#------------------------------------------------------------------------------
#$Date: 2022-09-05 05:38:10 +0300 (Mon, 05 Sep 2022) $
#$Revision: 277621 $
#$URL: file:///home/coder/svn-repositories/cod/cif/7/13/06/7130662.cif $
#------------------------------------------------------------------------------
#
# This file is available in the Crystallography Open Database (COD),
# http://www.crystallography.net/
#
# All data on this site have been placed in the public domain by the
# contributors.
#
data_7130662
loop_
_publ_author_name
'Fujita, Masaki'
'Haketa, Yohei'
'Tanaka, Hiroki'
'Yasuda, Nobuhiro'
'Maeda, Hiromitsu'
_publ_section_title
;
 Ion-pairing assemblies of heteroporphyrin-based \p-electronic cation with
 various counteranions.
;
_journal_issue                   71
_journal_name_full               'Chemical communications (Cambridge, England)'
_journal_page_first              9870
_journal_page_last               9873
_journal_paper_doi               10.1039/d2cc02345h
_journal_volume                  58
_journal_year                    2022
_chemical_formula_moiety         'C44 H28 N3 Ni S, C24 B F20, C6 H5 Cl'
_chemical_formula_sum            'C74 H33 B Cl F20 N3 Ni S'
_chemical_formula_weight         1481.06
_space_group_crystal_system      triclinic
_space_group_IT_number           2
_space_group_name_Hall           '-P 1'
_space_group_name_H-M_alt        'P -1'
_atom_sites_solution_hydrogens   geom
_audit_creation_method           SHELXL-2014/7
_audit_update_record
;
2022-04-19 deposited with the CCDC.	2022-08-04 downloaded from the CCDC.
;
_cell_angle_alpha                62.936(2)
_cell_angle_beta                 87.227(2)
_cell_angle_gamma                74.503(2)
_cell_formula_units_Z            2
_cell_length_a                   13.2112(3)
_cell_length_b                   15.9096(4)
_cell_length_c                   16.7024(4)
_cell_measurement_reflns_used    31511
_cell_measurement_temperature    90(2)
_cell_measurement_theta_max      29.248
_cell_measurement_theta_min      1.706
_cell_volume                     3001.55(14)
_computing_cell_refinement       'Rapid Auto(Rigaku)'
_computing_data_collection       'Rapid Auto(Rigaku)'
_computing_data_reduction        'Rapid Auto(Rigaku)'
_computing_structure_refinement  'SHELXL2014 (Sheldrick, 2014)'
_computing_structure_solution    'SHELXT (Sheldrick, 2014)'
_diffrn_ambient_temperature      90(2)
_diffrn_detector_area_resol_mean 13.33
_diffrn_measured_fraction_theta_full 0.995
_diffrn_measured_fraction_theta_max 0.995
_diffrn_measurement_device_type  'DECTRIS EIGER X 1M'
_diffrn_measurement_method       'Shutterless \w scans'
_diffrn_radiation_monochromator  'Si(111) Channel Cut'
_diffrn_radiation_wavelength     0.81106
_diffrn_reflns_av_R_equivalents  0.0372
_diffrn_reflns_av_unetI/netI     0.0394
_diffrn_reflns_Laue_measured_fraction_full 0.995
_diffrn_reflns_Laue_measured_fraction_max 0.995
_diffrn_reflns_limit_h_max       15
_diffrn_reflns_limit_h_min       -15
_diffrn_reflns_limit_k_max       19
_diffrn_reflns_limit_k_min       -17
_diffrn_reflns_limit_l_max       20
_diffrn_reflns_limit_l_min       -20
_diffrn_reflns_number            31511
_diffrn_reflns_point_group_measured_fraction_full 0.995
_diffrn_reflns_point_group_measured_fraction_max 0.995
_diffrn_reflns_theta_full        29.120
_diffrn_reflns_theta_max         29.248
_diffrn_reflns_theta_min         1.706
_diffrn_source                   'synchrotron radiation SPring-8 BL40XU'
_exptl_absorpt_coefficient_mu    0.732
_exptl_absorpt_correction_T_max  1.000
_exptl_absorpt_correction_T_min  0.766
_exptl_absorpt_correction_type   multi-scan
_exptl_crystal_colour            brown
_exptl_crystal_density_diffrn    1.639
_exptl_crystal_density_meas      ?
_exptl_crystal_description       block
_exptl_crystal_F_000             1488
_exptl_crystal_size_max          0.02
_exptl_crystal_size_mid          0.02
_exptl_crystal_size_min          0.01
_refine_diff_density_max         2.374
_refine_diff_density_min         -1.437
_refine_diff_density_rms         0.083
_refine_ls_extinction_method     none
_refine_ls_goodness_of_fit_ref   1.066
_refine_ls_hydrogen_treatment    constr
_refine_ls_matrix_type           full
_refine_ls_number_parameters     883
_refine_ls_number_reflns         10942
_refine_ls_number_restraints     0
_refine_ls_restrained_S_all      1.066
_refine_ls_R_factor_all          0.0691
_refine_ls_R_factor_gt           0.0673
_refine_ls_shift/su_max          0.001
_refine_ls_shift/su_mean         0.000
_refine_ls_structure_factor_coef Fsqd
_refine_ls_weighting_details
'w=1/[\s^2^(Fo^2^)+(0.0337P)^2^+11.3690P] where P=(Fo^2^+2Fc^2^)/3'
_refine_ls_weighting_scheme      calc
_refine_ls_wR_factor_gt          0.1463
_refine_ls_wR_factor_ref         0.1474
_reflns_Friedel_coverage         0.000
_reflns_number_gt                10520
_reflns_number_total             10942
_reflns_threshold_expression     'I > 2\s(I)'
_cod_data_source_file            d2cc02345h2.cif
_cod_data_source_block           ydkr_a_CCDC1
_cod_depositor_comments
;
The following automatic conversions were performed:

data item '_exptl_crystal_density_meas' value 'not measured' was
changed to '?' -- the value is perceived as not measured.

Automatic conversion script
Id: cif_fix_values 7556 2019-12-06 15:28:31Z antanas 
;
_cod_database_code               7130662
_shelx_shelxl_version_number     2014/7
_shelx_space_group_comment
;
The symmetry employed for this shelxl refinement is uniquely defined
by the following loop, which should always be used as a source of
symmetry information in preference to the above space-group names.
They are only intended as comments.
;
_shelx_estimated_absorpt_t_min   0.986
_shelx_estimated_absorpt_t_max   0.993
_adiation_type                   Synchrotron
_shelx_res_file
;

    ydkr_a.res created by SHELXL-2014/7

TITL ydkr_a.res in P-1
REM  Yadorkari-X generated
CELL 0.81106 13.2112 15.9096 16.7024 62.9360 87.2270 74.5030
ZERR 2.0 0.0003 0.0004 0.0004 0.0020 0.0020 0.0020
LATT 1
REM  SPGR P-1 triclinic
SFAC C H B N Ni S Cl F
DISP    C     0.00450    0.00219        15.07
DISP    H     0.00000    0.00000         0.67
DISP    B     0.00226    0.00093         8.16
DISP    N     0.00850    0.00446        26.84
DISP    Ni    0.30789    1.41134      6547.54
DISP    S     0.15332    0.16207       769.95
DISP    Cl    0.18130    0.20737       980.71
DISP    F     0.02315    0.01375        73.11
UNIT 148 66 2 6 2 2 2 40
SIZE 0.02 0.02 0.01
TEMP -183.0
L.S. 20
FMAP 2
PLAN -20
ACTA
CONF
LIST 4
BOND $H
OMIT    0    1    1
OMIT   -1    6   12

EADP C36 N2 C39
EADP C8 N1 C11
EADP N3 S2
EADP S1 N4

WGHT    0.033700   11.369000
FVAR       0.48673   0.60779   0.40755   0.45207
C1    1    1.214225    0.505303    0.005630    11.00000    0.02129    0.02609 =
         0.02236   -0.01170    0.00561   -0.00949
C8    1    1.126684    0.584382   -0.008122    11.00000    0.02325    0.02521 =
         0.01832   -0.00264    0.00961   -0.00291
C9    1    1.110302    0.678018   -0.086359    11.00000    0.02274    0.02866 =
         0.01621   -0.00560    0.00714   -0.00640
AFIX  43
H9    2    1.153689    0.693901   -0.135203    11.00000   -1.20000
AFIX   0
C10   1    1.022767    0.739344   -0.078418    11.00000    0.02476    0.02502 =
         0.01736    0.00136    0.00765   -0.00074
AFIX  43
H10   2    0.992960    0.806061   -0.120775    11.00000   -1.20000
AFIX   0
C11   1    0.982358    0.685733    0.005784    11.00000    0.02325    0.02521 =
         0.01832   -0.00264    0.00961   -0.00291
C12   1    0.895636    0.728288    0.038789    11.00000    0.01764    0.02689 =
         0.02072   -0.00606    0.00442   -0.00389
C13   1    0.845383    0.835454   -0.011072    11.00000    0.01896    0.02721 =
         0.01655   -0.00478    0.00655   -0.00426
C14   1    0.903759    0.902127   -0.029800    11.00000    0.02332    0.03174 =
         0.02425   -0.00687    0.00955   -0.00997
AFIX  43
H14   2    0.976664    0.878947   -0.010082    11.00000   -1.20000
AFIX   0
C15   1    0.856646    1.001820   -0.076849    11.00000    0.03762    0.02967 =
         0.02539   -0.00928    0.01327   -0.01411
AFIX  43
H15   2    0.897205    1.046869   -0.089374    11.00000   -1.20000
AFIX   0
C16   1    0.751015    1.036109   -0.105662    11.00000    0.04181    0.01983 =
         0.02200   -0.00867    0.00691    0.00230
AFIX  43
H16   2    0.718978    1.104691   -0.138855    11.00000   -1.20000
AFIX   0
C17   1    0.691865    0.970845   -0.086297    11.00000    0.02548    0.02965 =
         0.02471   -0.01256    0.00095    0.00313
AFIX  43
H17   2    0.618746    0.994736   -0.105371    11.00000   -1.20000
AFIX   0
C18   1    0.737894    0.871233   -0.039501    11.00000    0.02004    0.02716 =
         0.02135   -0.01072    0.00473   -0.00349
AFIX  43
H18   2    0.696511    0.826746   -0.026515    11.00000   -1.20000
AFIX   0
C19   1    0.856306    0.674134    0.119010    11.00000    0.02159    0.02000 =
         0.02767   -0.00652    0.00973   -0.00218
C20   1    0.777567    0.711983    0.163754    11.00000    0.02465    0.02939 =
         0.02431   -0.00813    0.01024   -0.00549
AFIX  43
H20   2    0.740202    0.779184    0.142551    11.00000   -1.20000
AFIX   0
C21   1    0.764270    0.636941    0.241490    11.00000    0.02608    0.03825 =
         0.02545   -0.01311    0.01479   -0.00942
AFIX  43
H21   2    0.716035    0.642733    0.283976    11.00000   -1.20000
AFIX   0
C22   1    0.833463    0.548716    0.249393    11.00000    0.02978    0.04008 =
         0.01835   -0.01245    0.00421    0.00211
C23   1    0.841926    0.454751    0.319770    11.00000    0.02147    0.04139 =
         0.02082   -0.01308    0.00382   -0.00846
PART 4
C24   1    0.773477    0.452998    0.393966   -31.00000    0.01663
C25   1    0.789725    0.483452    0.455366   -31.00000    0.03064
AFIX  43
H25   2    0.848308    0.508572    0.451994   -31.00000   -1.20000
AFIX   0
C26   1    0.722431    0.478380    0.522366   -31.00000    0.03345
AFIX  43
H26   2    0.734203    0.500786    0.564070   -31.00000   -1.20000
AFIX   0
C27   1    0.636546    0.439970    0.528580   -31.00000    0.02353
AFIX  43
H27   2    0.598267    0.424163    0.580681   -31.00000   -1.20000
AFIX   0
C28   1    0.608784    0.425671    0.459814   -31.00000    0.03631
AFIX  43
H28   2    0.544491    0.409851    0.459169   -31.00000   -1.20000
AFIX   0
C29   1    0.673294    0.433905    0.390402   -31.00000    0.03295
AFIX  43
H29   2    0.651851    0.427047    0.340715   -31.00000   -1.20000
PART 3
AFIX   0
C30   1    0.817149    0.419046    0.480017    31.00000    0.05762
AFIX  43
H30   2    0.890479    0.410653    0.488293    31.00000   -1.20000
AFIX   0
C31   1    0.752086    0.418180    0.548388    31.00000    0.05098
AFIX  43
H31   2    0.779185    0.419781    0.599182    31.00000   -1.20000
AFIX   0
C32   1    0.657476    0.415302    0.544434    31.00000    0.03484
AFIX  43
H32   2    0.610081    0.422828    0.586850    31.00000   -1.20000
AFIX   0
C33   1    0.627544    0.400582    0.474805    31.00000    0.02135
AFIX  43
H33   2    0.563532    0.383982    0.475139    31.00000   -1.20000
AFIX   0
C34   1    0.691151    0.410085    0.404351    31.00000    0.01621
AFIX  43
H34   2    0.668825    0.397506    0.358634    31.00000   -1.20000
AFIX   0
C35   1    0.771946    0.432848    0.396344    31.00000    0.03510
PART 0
C36   1    0.912509    0.370270    0.322732    11.00000    0.03114    0.02244 =
         0.02150   -0.00744    0.01673   -0.01102
C37   1    0.916431    0.273620    0.391786    11.00000    0.02205    0.03646 =
         0.01924   -0.00502    0.00692   -0.01247
AFIX  43
H37   2    0.872140    0.257581    0.439969    11.00000   -1.20000
AFIX   0
C38   1    0.993273    0.209987    0.376568    11.00000    0.02810    0.03147 =
         0.02069   -0.00302    0.00644   -0.01556
AFIX  43
H38   2    1.011966    0.140534    0.411060    11.00000   -1.20000
AFIX   0
C39   1    1.042979    0.264955    0.298698    11.00000    0.03114    0.02244 =
         0.02150   -0.00744    0.01673   -0.01102
C40   1    1.134513    0.221930    0.270989    11.00000    0.02688    0.01942 =
         0.01565   -0.00493    0.00117   -0.00430
C41   1    1.190108    0.115713    0.324878    11.00000    0.02389    0.02356 =
         0.01841   -0.00611    0.00620   -0.00623
C42   1    1.226748    0.078064    0.414498    11.00000    0.03411    0.02614 =
         0.01637   -0.00565    0.00426   -0.00838
AFIX  43
H42   2    1.213727    0.119547    0.442743    11.00000   -1.20000
AFIX   0
C43   1    1.282132   -0.019727    0.462552    11.00000    0.03232    0.03191 =
         0.01865   -0.00487    0.00193   -0.00520
AFIX  43
H43   2    1.306929   -0.045067    0.523785    11.00000   -1.20000
AFIX   0
C44   1    1.301661   -0.080653    0.422552    11.00000    0.03035    0.02047 =
         0.02659    0.00000    0.00622   -0.00278
AFIX  43
H44   2    1.339751   -0.147739    0.456124    11.00000   -1.20000
AFIX   0
C45   1    1.265757   -0.044137    0.333290    11.00000    0.03449    0.02650 =
         0.02966   -0.01229    0.00829   -0.00873
AFIX  43
H45   2    1.279001   -0.086242    0.305687    11.00000   -1.20000
AFIX   0
C46   1    1.210626    0.053614    0.284330    11.00000    0.02851    0.02395 =
         0.01995   -0.00829    0.00391   -0.00564
AFIX  43
H46   2    1.186613    0.078662    0.222954    11.00000   -1.20000
AFIX   0
C47   1    1.181423    0.276036    0.196633    11.00000    0.02921    0.02755 =
         0.01705   -0.00517    0.00574    0.00111
C48   1    1.283645    0.248061    0.170846    11.00000    0.02935    0.02202 =
         0.02208   -0.00846    0.00914   -0.00739
AFIX  43
H48   2    1.330433    0.183786    0.199620    11.00000   -1.20000
AFIX   0
C49   1    1.305871    0.325197    0.099634    11.00000    0.02559    0.02180 =
         0.02654   -0.01150    0.01395   -0.01037
AFIX  43
H49   2    1.370535    0.321950    0.072200    11.00000   -1.20000
AFIX   0
C50   1    1.220834    0.410957    0.071373    11.00000    0.02091    0.02375 =
         0.04226   -0.01472    0.01010   -0.01065
N1    4    1.046006    0.588717    0.049027    11.00000    0.02325    0.02521 =
         0.01832   -0.00264    0.00961   -0.00291
N2    4    0.988850    0.365738    0.262303    11.00000    0.03114    0.02244 =
         0.02150   -0.00744    0.01673   -0.01102
PART 1
N3    4    0.898089    0.575972    0.177512    21.00000    0.02394    0.01823 =
         0.02002   -0.00496    0.00978   -0.00607
PART 2
N4    4    1.153232    0.383381    0.146767   -21.00000    0.03510    0.04693 =
         0.03238   -0.00278    0.01054   -0.00493
S1    6    0.874960    0.548365    0.152767   -21.00000    0.03510    0.04693 =
         0.03238   -0.00278    0.01054   -0.00493
PART 1
S2    6    1.107620    0.385983    0.114948    21.00000    0.02394    0.01823 =
         0.02002   -0.00496    0.00978   -0.00607
PART 0
NI1   5    1.014855    0.479169    0.155585    11.00000    0.02738    0.03532 =
         0.01386   -0.00580    0.00641   -0.02005
B1    3    0.299870   -0.016733    0.767443    11.00000    0.02036    0.02219 =
         0.01435   -0.00360    0.00724   -0.01065
C51   1    0.360416    0.069708    0.739372    11.00000    0.01640    0.02122 =
         0.01903   -0.00577    0.00932   -0.00564
C52   1    0.365616    0.129515    0.647923    11.00000    0.02148    0.02455 =
         0.01959   -0.00688    0.00621   -0.00819
C53   1    0.413091    0.204807    0.615922    11.00000    0.02995    0.02825 =
         0.01857   -0.00150    0.00987   -0.01260
C54   1    0.456900    0.224454    0.675545    11.00000    0.02657    0.02145 =
         0.03229   -0.00694    0.01293   -0.01443
C55   1    0.452121    0.170074    0.766156    11.00000    0.02151    0.02417 =
         0.02962   -0.01285    0.00718   -0.00632
C56   1    0.403688    0.095025    0.795399    11.00000    0.01965    0.02116 =
         0.01823   -0.00537    0.01011   -0.00571
F1    8    0.324921    0.113131    0.585815    11.00000    0.03348    0.03332 =
         0.01785   -0.00612    0.00465   -0.01595
F2    8    0.418421    0.257492    0.526802    11.00000    0.05100    0.04115 =
         0.01975   -0.00087    0.01190   -0.02849
F3    8    0.503044    0.298014    0.646001    11.00000    0.05181    0.04147 =
         0.03835   -0.01185    0.01615   -0.03516
F4    8    0.493048    0.189858    0.825144    11.00000    0.03244    0.03452 =
         0.03260   -0.01718    0.00650   -0.01501
F5    8    0.400413    0.047339    0.886197    11.00000    0.03188    0.02548 =
         0.01696   -0.00851    0.00980   -0.01120
C57   1    0.175492    0.045033    0.734206    11.00000    0.02037    0.02326 =
         0.01744   -0.00004    0.01152   -0.01121
C58   1    0.112816    0.052966    0.665814    11.00000    0.02358    0.02848 =
         0.01725   -0.00159    0.01201   -0.01106
C59   1    0.007132    0.104225    0.645447    11.00000    0.02618    0.04217 =
         0.01891    0.00233    0.00377   -0.01303
C60   1   -0.039897    0.155219    0.691346    11.00000    0.01988    0.03507 =
         0.03596    0.00151    0.01270   -0.00174
C61   1    0.019484    0.153498    0.757444    11.00000    0.02648    0.02355 =
         0.03852   -0.00408    0.01813   -0.00555
C62   1    0.123620    0.100039    0.776677    11.00000    0.02630    0.02186 =
         0.02554   -0.00401    0.01219   -0.01039
F6    8    0.151224    0.009034    0.613898    11.00000    0.02603    0.04692 =
         0.01784   -0.00841    0.00485   -0.01065
F7    8   -0.049542    0.103978    0.580852    11.00000    0.02566    0.07227 =
         0.02425   -0.00522    0.00070   -0.01279
F8    8   -0.142187    0.206224    0.672294    11.00000    0.02053    0.06089 =
         0.05703   -0.00898    0.00773    0.00332
F9    8   -0.024403    0.202263    0.804265    11.00000    0.03580    0.03247 =
         0.05541   -0.01618    0.02434   -0.00296
F10   8    0.176254    0.098424    0.845014    11.00000    0.03124    0.02952 =
         0.03417   -0.01644    0.01344   -0.01029
C63   1    0.316150   -0.094994    0.876622    11.00000    0.02161    0.01804 =
         0.01847   -0.00715    0.00838   -0.00808
C64   1    0.238877   -0.127522    0.931878    11.00000    0.01845    0.02142 =
         0.02069   -0.00841    0.00611   -0.00623
C65   1    0.258353   -0.198674    1.020889    11.00000    0.02515    0.02039 =
         0.02071   -0.00861    0.01348   -0.00921
C66   1    0.359406   -0.241461    1.059801    11.00000    0.03099    0.02026 =
         0.01365   -0.00509    0.00839   -0.00970
C67   1    0.439787   -0.213209    1.008057    11.00000    0.02122    0.02237 =
         0.01961   -0.01025    0.00446   -0.00389
C68   1    0.416920   -0.143325    0.919604    11.00000    0.01944    0.02102 =
         0.01860   -0.00881    0.01058   -0.00966
F11   8    0.135684   -0.090112    0.900954    11.00000    0.01828    0.02929 =
         0.02353   -0.00492    0.00872   -0.01010
F12   8    0.178395   -0.225821    1.069651    11.00000    0.02764    0.02957 =
         0.02265   -0.00520    0.01595   -0.01266
F13   8    0.378836   -0.309132    1.146715    11.00000    0.03539    0.02727 =
         0.01435   -0.00088    0.00762   -0.00749
F14   8    0.540836   -0.254504    1.044181    11.00000    0.02298    0.02772 =
         0.02047   -0.00723    0.00259   -0.00391
F15   8    0.501139   -0.122046    0.872869    11.00000    0.01895    0.02477 =
         0.02021   -0.00766    0.00877   -0.00785
C69   1    0.348786   -0.091231    0.723457    11.00000    0.01877    0.02211 =
         0.01357   -0.00293    0.00465   -0.00745
C70   1    0.297560   -0.159124    0.730050    11.00000    0.01957    0.02708 =
         0.01270   -0.00572    0.00708   -0.00839
C71   1    0.333212   -0.229376    0.701026    11.00000    0.02526    0.02468 =
         0.01576   -0.00462    0.00375   -0.01343
C72   1    0.428588   -0.236664    0.664059    11.00000    0.02709    0.02520 =
         0.01754   -0.01021    0.00553   -0.00611
C73   1    0.485228   -0.173115    0.657764    11.00000    0.01944    0.03117 =
         0.01588   -0.00886    0.00860   -0.01098
C74   1    0.445975   -0.103404    0.687194    11.00000    0.02065    0.02480 =
         0.01644   -0.00695    0.00640   -0.00847
F16   8    0.205222   -0.159727    0.768744    11.00000    0.02191    0.03250 =
         0.02099   -0.00867    0.01121   -0.01488
F17   8    0.277525   -0.292674    0.711345    11.00000    0.03129    0.03531 =
         0.02924   -0.01569    0.00847   -0.01898
F18   8    0.466225   -0.305133    0.636350    11.00000    0.03472    0.03772 =
         0.03102   -0.02164    0.01274   -0.01563
F19   8    0.579145   -0.179985    0.622935    11.00000    0.02373    0.03878 =
         0.03296   -0.02026    0.01532   -0.01236
F20   8    0.509020   -0.046580    0.679142    11.00000    0.02112    0.02946 =
         0.02748   -0.01335    0.01106   -0.01447
C75   1    0.217749    0.354862    0.382597    11.00000    0.03285    0.05044 =
         0.04137   -0.01888   -0.00562   -0.00530
AFIX  43
H75   2    0.254276    0.287495    0.417185    11.00000   -1.20000
AFIX   0
C76   1    0.249035    0.408687    0.300072    11.00000    0.04503    0.07173 =
         0.04705   -0.02277   -0.00139   -0.02028
AFIX  43
H76   2    0.306509    0.378112    0.277213    11.00000   -1.20000
AFIX   0
C77   1    0.199658    0.503947    0.251095    11.00000    0.07847    0.06353 =
         0.05574   -0.02319   -0.00281   -0.03964
AFIX  43
H77   2    0.223557    0.540777    0.194502    11.00000   -1.20000
AFIX   0
C78   1    0.114094    0.549452    0.281989    11.00000    0.09810    0.03138 =
         0.07908   -0.01901   -0.05069   -0.00411
AFIX  43
H78   2    0.078838    0.616934    0.246228    11.00000   -1.20000
AFIX   0
C79   1    0.078811    0.494934    0.367647    11.00000    0.05352    0.05077 =
         0.07050   -0.03822   -0.02134   -0.00142
AFIX  43
H79   2    0.020189    0.524377    0.390357    11.00000   -1.20000
AFIX   0
C80   1    0.133923    0.397603    0.415706    11.00000    0.03748    0.05002 =
         0.04183   -0.02188    0.00146   -0.01746
CL1   7    0.097403    0.328011    0.521489    11.00000    0.09140    0.08784 =
         0.05930   -0.03556    0.03172   -0.04996
PART 5
C87   1    1.472154    0.544115   -0.157734    41.00000    0.02182
AFIX  43
H80   2    1.531203    0.551215   -0.192526    41.00000   -1.20000
AFIX   0
C89   1    1.415835    0.479895   -0.155489    41.00000    0.02208
AFIX  43
H81   2    1.436647    0.443968   -0.188802    41.00000   -1.20000
AFIX   0
C92   1    1.330603    0.468977   -0.105118    41.00000    0.01504
AFIX  43
H82   2    1.292351    0.425867   -0.104346    41.00000   -1.20000
AFIX   0
C93   1    1.356230    0.584875   -0.059763    41.00000    0.02541
AFIX  43
H83   2    1.333988    0.621270   -0.027016    41.00000   -1.20000
AFIX   0
C95   1    1.300325    0.518977   -0.056437    41.00000    0.01656
C85   1    1.442602    0.597399   -0.109711    41.00000    0.02103
AFIX  43
H84   2    1.480425    0.641053   -0.111076    41.00000   -1.20000
PART 6
AFIX   0
C90   1    1.354815    0.473992   -0.090763   -41.00000    0.02921
AFIX  43
H85   2    1.326997    0.424110   -0.089273   -41.00000   -1.20000
AFIX   0
C91   1    1.435392    0.617214   -0.091872   -41.00000    0.02548
AFIX  43
H86   2    1.463975    0.666074   -0.091970   -41.00000   -1.20000
AFIX   0
C88   1    1.481724    0.564898   -0.136923   -41.00000    0.02143
AFIX  43
H87   2    1.542329    0.578367   -0.167672   -41.00000   -1.20000
AFIX   0
C94   1    1.348840    0.599271   -0.047195   -41.00000    0.02120
AFIX  43
H88   2    1.316489    0.636687   -0.017208   -41.00000   -1.20000
AFIX   0
C96   1    1.307230    0.527224   -0.044817   -41.00000    0.01794
C97   1    1.442822    0.493052   -0.138934   -41.00000    0.02651
AFIX  43
H89   2    1.474348    0.458312   -0.171464   -41.00000   -1.20000
PART 0

AFIX   0
HKLF 4 1 1 0 0 0 1 0 0 0 1

REM  ydkr_a.res in P-1
REM R1 =  0.0673 for   10520 Fo > 4sig(Fo)  and  0.0691 for all   10942 data
REM    883 parameters refined using      0 restraints

END

WGHT      0.0321     12.2526

REM Highest difference peak  2.374,  deepest hole -1.437,  1-sigma level  0.083
Q1    1   0.9453  0.3743  0.2291  11.00000  0.05    2.37
Q2    1   1.0854  0.6007  0.0806  11.00000  0.05    1.99
Q3    1   1.0601  0.4276  0.1595  11.00000  0.05    1.36
Q4    1   1.0121  0.3607  0.2773  11.00000  0.05    0.71
Q5    1   0.1463  0.3427  0.5521  11.00000  0.05    0.67
Q6    1   0.7604  0.5231  0.4414  11.00000  0.05    0.66
Q7    1   0.2998  0.4841  0.2392  11.00000  0.05    0.64
Q8    1   0.6230  0.4266  0.5006  11.00000  0.05    0.58
Q9    1   1.0634  0.4927  0.1810  11.00000  0.05    0.57
Q10   1   0.9444  0.5602  0.1622  11.00000  0.05    0.51
Q11   1   0.8800  0.3993  0.3281  11.00000  0.05    0.50
Q12   1   0.8404  0.3756  0.4916  11.00000  0.05    0.50
Q13   1   0.6960  0.5211  0.5001  11.00000  0.05    0.47
Q14   1   0.8102  0.4529  0.4725  11.00000  0.05    0.47
Q15   1   1.0215  0.2404  0.3267  11.00000  0.05    0.46
Q16   1   0.9383  0.6980  0.0219  11.00000  0.05    0.45
Q17   1   1.0814  0.2505  0.2843  11.00000  0.05    0.45
Q18   1   1.1229  0.6100 -0.0328  11.00000  0.05    0.44
Q19   1   1.0355  0.5723  0.0379  11.00000  0.05    0.44
Q20   1   0.9371  0.3359  0.3179  11.00000  0.05    0.43
;
_shelx_res_checksum              3761
_shelx_hkl_file
;
   0   0   2  470.45    9.83
   0   0   2  481.94    9.88
   0   0   2  445.03    9.71
   0   0   2  448.63    9.50
   0   0  -2  450.22    9.43
   0   0  -2  465.38    9.68
   0   0  -2  468.21    9.84
   0   0  -2  462.88   10.15
   0   0   3 1283.68   45.85
   0   0   3 1345.79   45.08
   0   0  -3 1333.38   47.25
   0   0  -3 1347.54   46.09
   0   0  -3 1256.38   43.19
   0   0   4 3714.34  212.51
   0   0  -4 3763.25  218.41
   0   0   5 1171.04   42.62
   0   0   5 1126.97   39.58
   0   0  -5 1199.47   42.89
   0   0   6  185.09    5.39
   0   0   6  185.31    4.75
   0   0  -6  191.82    4.50
   0   0  -6  191.08    4.92
   0   0   7  256.30    8.45
   0   0   7  259.28    7.41
   0   0  -7  262.78    7.46
   0   0  -7  259.37    7.65
   0   0   8  156.55    4.87
   0   0   8  158.35    4.92
   0   0  -8  155.70    5.05
   0   0  -8  153.53    4.82
   0   0   9  218.40    7.39
   0   0   9  216.51    7.09
   0   0  -9  228.01    7.60
   0   0  -9  231.75    7.67
   0   0  10  173.53    7.10
   0   0  10  160.15    5.72
   0   0 -10  166.05    6.15
   0   0 -10  161.34    5.27
   0   0  11   40.62    2.25
   0   0  11   39.42    3.02
   0   0 -11   40.81    1.98
   0   0 -11   38.98    2.50
   0   0  12  245.36   10.74
   0   0  12  240.65    9.93
   0   0 -12  245.21   10.67
   0   0 -12  256.88   11.01
   0   0  13  415.92   18.23
   0   0  13  438.01   19.97
   0   0 -13  417.02   19.48
   0   0 -13  439.87   20.26
   0   0  14   39.62    3.38
   0   0  14   52.85    4.66
   0   0 -14   51.56    3.78
   0   0 -14   51.82    4.19
   0   0  15    9.60    1.81
   0   0  15    8.79    2.57
   0   0 -15    8.46    2.02
   0   0 -15   11.42    2.25
   0   0  16  163.40   11.93
   0   0  16  138.60    8.83
   0   0 -16  147.68    9.89
   0   0 -16  157.69   10.91
   0   0  17    4.34    2.26
   0   0  17    1.65    1.52
   0   0 -17    3.67    2.00
   0   0 -17    2.77    1.78
   0   1 -17    6.04    2.41
   0   1 -17    3.44    1.91
   0  -1  17    5.75    1.94
   0  -1  17    1.82    1.86
   0   1 -16  110.00    8.20
   0   1 -16  143.28    9.87
   0  -1  16  115.47   10.46
   0  -1  16  117.87    8.14
   0   1 -15    8.54    1.92
   0   1 -15    8.40    1.84
   0  -1  15    7.94    1.96
   0  -1  15    8.60    2.56
   0   1 -14   59.27    3.68
   0   1 -14   48.31    3.94
   0  -1  14   50.84    4.09
   0  -1  14   55.25    5.05
   0   1 -13  700.22   33.57
   0   1 -13  771.00   35.92
   0  -1  13  711.58   34.60
   0  -1  13  718.63   34.80
   0   1 -12   52.20    3.22
   0   1 -12   61.83    3.65
   0  -1  12   48.96    3.32
   0  -1  12   48.01    3.99
   0   1 -11  116.11    5.22
   0   1 -11  128.88    5.97
   0  -1  11  132.57    5.57
   0  -1  11  125.92    5.63
   0   1 -10  305.24   11.89
   0   1 -10  299.13   10.90
   0  -1  10  292.67   12.20
   0  -1  10  299.75   11.46
   0   1  -9  145.18    4.91
   0   1  -9  148.50    5.45
   0  -1   9  140.50    5.11
   0  -1   9  146.73    5.37
   0   1  -8   26.87    1.41
   0   1  -8   36.55    1.33
   0  -1   8   31.03    1.89
   0  -1   8   27.67    1.27
   0   1  -7 3669.50  226.22
   0   1  -7 3850.92  242.42
   0  -1   7 3634.11  230.60
   0  -1   7 3685.41  237.23
   0   1  -6 2960.78  163.67
   0   1  -6 2923.16  156.88
   0  -1   6 2900.31  163.11
   0  -1   6 2841.80  156.20
   0   1  -5  319.22    8.19
   0   1  -5  305.54    7.21
   0  -1   5  279.52    7.24
   0   1  -4 1701.27   69.92
   0   1  -4 1742.70   69.33
   0  -1   4 1675.82   70.56
   0  -1   4 1770.17   69.02
   0   1  -3 2893.12  145.44
   0  -1   3 2868.35  142.95
   0  -1   3 2666.71  127.63
   0  -1   2 2460.33  113.46
   0  -1   2 2579.96  116.89
   0   1  -1   23.32    0.42
   0   1  -1   22.88    0.38
   0  -1   1   21.62    0.33
   0  -1   1   22.97    0.32
   0  -1   1   22.61    0.23
   0  -1   1   21.43    0.41
   0   1   0    4.61    0.07
   0   1   0    4.75    0.07
   0  -1   0    4.89    0.06
   0  -1   0    4.71    0.09
   0  -1  -1    5.62    0.06
   0   1   2  278.44    5.26
   0   1   2  310.86    5.59
   0  -1  -2  281.42    5.05
   0  -1  -2  283.15    5.14
   0  -1  -2  278.43    4.30
   0  -1  -2  291.54    4.96
   0   1   3 2841.48  137.16
   0  -1  -3 2753.53  136.18
   0   1   4 3938.32  228.16
   0  -1  -4 3750.84  222.80
   0   1   5   98.47    2.35
   0   1   5   99.34    1.92
   0  -1  -5  103.69    2.28
   0  -1  -5   96.34    1.80
   0   1   6  470.15   12.44
   0   1   6  466.20   13.64
   0  -1  -6  481.14   13.40
   0   1   7  580.29   17.49
   0   1   7  595.47   20.44
   0  -1  -7  584.82   19.25
   0  -1  -7  568.42   18.13
   0   1   8  219.18    7.45
   0   1   8  211.09    5.86
   0  -1  -8  214.35    6.52
   0  -1  -8  210.09    6.02
   0   1   9 3110.22  182.11
   0   1   9 3113.87  191.36
   0  -1  -9 3171.55  191.78
   0  -1  -9 3055.19  184.37
   0   1  10 1072.38   46.19
   0   1  10 1019.81   41.55
   0  -1 -10 1061.74   44.60
   0  -1 -10  999.68   41.80
   0   1  11  367.56   14.16
   0   1  11  355.66   12.64
   0  -1 -11  351.38   12.32
   0  -1 -11  376.42   14.68
   0   1  12  145.32    5.82
   0   1  12  151.50    6.60
   0  -1 -12  148.71    6.79
   0  -1 -12  154.33    6.79
   0   1  13  248.83   11.10
   0   1  13  223.37    8.70
   0  -1 -13  247.71    9.68
   0  -1 -13  229.31   10.93
   0   1  14  187.93    9.35
   0   1  14  167.76    7.87
   0  -1 -14  189.64    9.60
   0  -1 -14  179.12    8.07
   0   1  15   57.59    4.32
   0   1  15   44.43    3.64
   0  -1 -15   61.14    3.49
   0  -1 -15   62.67    3.69
   0   1  16   10.62    2.26
   0   1  16   10.39    1.83
   0  -1 -16   12.28    2.51
   0  -1 -16   11.78    1.89
   0   1  17   18.45    2.46
   0   1  17   16.48    3.14
   0  -1 -17   20.95    3.43
   0  -1 -17   17.35    2.47
   0   1  18    6.31    1.89
   0   1  18    9.71    2.48
   0  -1 -18    4.65    2.50
   0  -1 -18    8.62    2.79
   0   2 -16   62.07    6.33
   0   2 -16   46.13    4.44
   0  -2  16   47.64    5.22
   0  -2  16   40.83    4.65
   0   2 -15   10.80    2.20
   0   2 -15   12.76    2.93
   0  -2  15   12.78    3.04
   0  -2  15   13.92    2.49
   0   2 -14    7.47    1.72
   0   2 -14   10.65    1.69
   0  -2  14    7.98    2.00
   0  -2  14    7.55    2.27
   0   2 -13   26.02    3.05
   0   2 -13   22.15    2.39
   0  -2  13   27.51    3.13
   0  -2  13   26.79    2.79
   0   2 -12  151.20    7.89
   0   2 -12  126.73    6.33
   0  -2  12  125.07    6.17
   0  -2  12  126.56    6.92
   0   2 -11    6.04    1.47
   0   2 -11    7.60    1.14
   0  -2  11    4.76    1.48
   0  -2  11    6.39    1.43
   0   2 -10  192.19    7.25
   0   2 -10  184.20    6.88
   0  -2  10  188.48    8.42
   0  -2  10  197.03    8.17
   0   2  -9  536.20   21.07
   0   2  -9  514.61   18.08
   0  -2   9  537.86   21.11
   0  -2   9  532.28   21.27
   0   2  -8   15.99    1.04
   0  -2   8   17.96    1.39
   0  -2   8   13.73    1.37
   0   2  -7 1831.62   84.00
   0   2  -7 1846.31   88.30
   0  -2   7 1832.97   90.40
   0  -2   7 1820.82   89.24
   0   2  -6  594.82   18.93
   0   2  -6  583.32   17.50
   0  -2   6  577.87   19.61
   0   2  -5   38.97    1.03
   0   2  -5   38.35    1.28
   0  -2   5   41.79    1.44
   0   2  -4   25.62    0.66
   0   2  -4   24.77    0.79
   0  -2   4   23.35    0.61
   0  -2   4   25.73    0.92
   0   2  -3 3697.27  209.26
   0  -2   3 3385.46  197.92
   0   2  -2  320.58    6.91
   0   2  -2  298.65    6.75
   0   2  -2  303.17    5.50
   0   2  -2  329.18    6.78
   0  -2   2  319.26    6.72
   0  -2   2  295.76    6.28
   0  -2   2  286.57    6.49
   0  -2   2  302.15    5.58
   0   2  -1 1525.32   56.22
   0   2  -1 1620.27   60.30
   0  -2   1 1510.37   56.85
   0  -2   1 1485.42   52.61
   0  -2   1 1597.73   58.23
   0  -2   1 1518.80   52.24
   0   2   0  280.07    5.21
   0   2   0  290.39    5.41
   0  -2   0  267.56    4.94
   0  -2   0  274.03    4.56
   0  -2   0  288.16    5.20
   0  -2   0  267.98    4.49
   0   2   2 1023.65   29.68
   0   2   2  934.98   27.20
   0  -2  -2  917.04   26.90
   0  -2  -2  938.60   26.75
   0  -2  -2  971.49   27.74
   0  -2  -2  959.07   25.05
   0   2   3  967.25   30.29
   0   2   3 1038.26   31.48
   0  -2  -3  968.15   25.90
   0  -2  -3  927.93   27.60
   0  -2  -3 1013.92   31.32
   0  -2  -3  969.76   30.42
   0   2   4 3509.42  189.27
   0  -2  -4 3204.78  174.46
   0  -2  -4 3039.87  153.40
   0   2   5 1262.75   43.05
   0   2   5 1447.44   51.15
   0   2   5 1302.85   50.92
   0  -2  -5 1360.44   46.57
   0  -2  -5 1333.14   50.88
   0  -2  -5 1307.38   48.08
   0   2   6  131.59    3.83
   0   2   6  131.76    2.53
   0  -2  -6  130.73    3.14
   0  -2  -6  145.75    2.72
   0   2   7 1011.18   33.99
   0   2   7 1022.66   40.01
   0  -2  -7 1003.91   36.43
   0   2   8  452.79   12.54
   0   2   8  452.27   15.98
   0  -2  -8  432.19   13.59
   0   2   9  295.01    8.44
   0   2   9  304.41   10.07
   0  -2  -9  308.11    9.81
   0  -2  -9  298.30    9.51
   0   2  10   37.53    2.63
   0   2  10   41.96    1.62
   0  -2 -10   42.90    1.96
   0  -2 -10   51.43    2.11
   0   2  11  386.30   12.74
   0   2  11  402.63   15.36
   0  -2 -11  377.89   14.36
   0  -2 -11  400.40   15.95
   0   2  12  399.79   16.49
   0   2  12  377.18   13.77
   0  -2 -12  404.76   15.89
   0  -2 -12  396.68   17.12
   0   2  13  213.31   10.91
   0   2  13  197.52    7.58
   0  -2 -13  205.62    9.81
   0  -2 -13  204.79    9.11
   0   2  14   30.38    2.00
   0   2  14   39.10    3.81
   0  -2 -14   40.88    2.40
   0  -2 -14   39.88    2.73
   0   2  15    1.69    0.90
   0   2  15    3.31    1.63
   0  -2 -15    1.32    1.30
   0  -2 -15    3.15    1.37
   0   2  16  172.82   12.35
   0   2  16  142.27    7.68
   0  -2 -16  158.74   10.49
   0  -2 -16  171.34   10.15
   0   2  17  160.25   10.99
   0   2  17  102.18    6.00
   0  -2 -17  121.52    9.07
   0  -2 -17  122.08    8.87
   0   2  18   19.42    3.04
   0  -2 -18   12.38    3.28
   0  -2 -18   13.19    2.42
   0   3 -16   43.74    4.69
   0  -3  16   37.46    4.96
   0  -3  16   34.12    5.72
   0   3 -15    3.15    2.05
   0   3 -15    2.56    1.31
   0  -3  15    3.69    1.93
   0  -3  15    0.63    1.78
   0   3 -14   43.82    3.17
   0   3 -14   52.83    5.31
   0  -3  14   56.34    5.09
   0  -3  14   46.12    4.79
   0   3 -13   54.51    3.72
   0   3 -13   46.99    3.29
   0  -3  13   50.45    4.65
   0  -3  13   52.24    3.60
   0   3 -12  721.18   36.64
   0   3 -12  610.53   28.02
   0  -3  12  682.81   34.59
   0  -3  12  664.81   34.09
   0   3 -11  229.13    9.34
   0   3 -11  274.82   12.66
   0  -3  11  249.88   12.05
   0  -3  11  255.55   12.06
   0   3 -10  657.45   29.12
   0   3 -10  586.23   23.63
   0  -3  10  620.20   26.08
   0  -3  10  614.34   27.39
   0   3  -9  393.60   14.03
   0   3  -9  442.37   16.23
   0  -3   9  395.58   16.33
   0  -3   9  417.52   17.28
   0   3  -8  133.02    5.32
   0   3  -8  120.50    3.85
   0  -3   8  124.76    4.48
   0  -3   8  125.20    4.97
   0   3  -7   64.77    2.92
   0   3  -7   63.72    1.86
   0  -3   7   61.65    2.65
   0   3  -6  660.34   20.38
   0   3  -6  662.24   24.05
   0  -3   6  639.25   22.61
   0   3  -5 1597.90   69.09
   0   3  -5 1618.58   64.71
   0  -3   5 1457.08   63.86
   0   3  -4 1168.65   39.62
   0   3  -4 1137.38   43.04
   0  -3   4 1140.21   42.57
   0  -3   4 1223.51   41.51
   0  -3   4 1135.30   43.75
   0   3  -3 1976.21   80.45
   0   3  -3 1983.16   88.61
   0  -3   3 1922.31   88.03
   0  -3   3 2057.26   85.15
   0  -3   3 1950.09   85.99
   0   3  -1  280.88    5.35
   0   3  -1  257.58    4.54
   0  -3   1  260.22    4.97
   0  -3   1  276.23    6.37
   0  -3   1  248.61    4.60
   0  -3   0 3017.96  151.91
   0  -3   0 2851.78  144.83
   0  -3  -1 1181.92   38.61
   0  -3  -1 1136.05   36.54
   0  -3  -1 1128.89   35.15
   0  -3  -1 1177.55   37.38
   0  -3  -2  218.93    4.27
   0  -3  -2  246.85    4.55
   0  -3  -3 3784.78  216.63
   0   3   4 3345.47  175.44
   0  -3  -4 3338.84  182.94
   0  -3  -4 3168.46  157.06
   0   3   5 4689.69  298.77
   0   3   6  740.71   24.93
   0   3   6  701.93   18.69
   0  -3  -6  757.55   25.21
   0  -3  -6  744.89   20.04
   0  -3  -6  749.11   22.97
   0   3   7 2871.63  147.58
   0   3   7 2974.30  170.82
   0  -3  -7 2859.05  155.99
   0  -3  -7 2950.24  151.09
   0  -3  -7 2911.64  164.41
   0   3   8   55.24    2.31
   0   3   8   43.31    1.06
   0  -3  -8   41.92    1.02
   0  -3  -8   45.40    1.69
   0   3   9    7.65    0.49
   0   3   9    8.52    1.19
   0  -3  -9    7.40    0.83
   0   3  10  210.75    5.79
   0   3  10  230.27    9.11
   0  -3 -10  211.09    6.30
   0   3  11   18.79    1.52
   0   3  11   18.55    0.90
   0  -3 -11   20.53    1.88
   0  -3 -11   17.85    1.53
   0   3  12   15.17    0.95
   0   3  12   16.78    2.11
   0  -3 -12   19.08    1.94
   0  -3 -12   17.56    1.25
   0   3  13  471.41   17.44
   0   3  13  519.32   22.94
   0  -3 -13  501.07   21.26
   0  -3 -13  502.65   23.09
   0   3  14   57.60    2.96
   0   3  14   70.04    4.26
   0  -3 -14   82.60    3.79
   0  -3 -14   70.90    4.21
   0   3  15  110.89    7.91
   0   3  15   79.89    4.27
   0  -3 -15  111.21    6.92
   0  -3 -15  114.48    6.00
   0   3  16   10.21    2.76
   0   3  16    7.58    1.39
   0  -3 -16   12.48    1.90
   0  -3 -16   13.78    2.12
   0   3  17   20.57    2.16
   0   3  17   32.74    4.54
   0  -3 -17   28.72    3.45
   0  -3 -17   25.87    3.86
   0   3  18   -0.28    1.21
   0  -3 -18    2.66    1.41
   0  -3 -18   -1.19    0.94
   0   3  19   98.79   11.10
   0  -3 -19  110.66   10.87
   0  -3 -19  146.53   10.18
   0   4 -15   43.12    5.68
   0  -4  15   33.58    5.10
   0   4 -14   46.93    4.81
   0   4 -14   27.81    2.94
   0  -4  14   36.01    4.49
   0  -4  14   33.51    4.43
   0   4 -13  472.99   23.96
   0   4 -13  361.88   16.70
   0  -4  13  442.50   24.05
   0  -4  13  440.61   21.90
   0   4 -12   56.26    2.96
   0   4 -12   66.29    5.23
   0  -4  12   69.04    5.39
   0  -4  12   67.31    4.71
   0   4 -11  250.27   10.91
   0   4 -11  214.01    8.85
   0  -4  11  239.80   11.70
   0  -4  11  259.03   13.08
   0   4 -10  244.55    9.16
   0   4 -10  265.75   12.55
   0  -4  10  265.44   10.93
   0  -4  10  258.76   11.62
   0   4  -9 3053.47  196.59
   0   4  -9 2658.65  157.89
   0  -4   9 2772.25  176.98
   0  -4   9 2895.74  189.71
   0   4  -8  288.46    8.95
   0   4  -8  315.35   12.64
   0  -4   8  299.04   11.25
   0  -4   8  314.45   13.00
   0   4  -7   10.74    1.19
   0   4  -7    7.31    0.55
   0  -4   7    8.02    1.03
   0   4  -6 1446.89   66.28
   0   4  -6 1410.77   56.45
   0  -4   6 1367.26   61.09
   0   4  -5  265.64    7.86
   0   4  -5  259.04    6.08
   0  -4   5  249.19    7.55
   0   4  -4  406.97    9.81
   0   4  -4  423.38   12.31
   0  -4   4  373.79   10.75
   0  -4   4  380.72   11.80
   0   4  -3  733.47   20.29
   0   4  -3  751.66   25.32
   0  -4   3  703.30   22.10
   0  -4   3  698.44   23.67
   0  -4   3  754.85   21.49
   0   4  -2   47.89    1.05
   0   4  -2   50.28    1.23
   0   4  -2   43.56    0.72
   0  -4   2   45.77    1.12
   0  -4   2   43.86    1.32
   0  -4   2   42.57    0.95
   0   4  -1    1.43    0.31
   0   4  -1    0.74    0.17
   0   4  -1    0.39    0.12
   0  -4   1    0.76    0.19
   0  -4   1    0.67    0.34
   0  -4   1    0.79    0.18
   0   4   0   90.50    1.49
   0  -4   0   88.10    2.11
   0  -4   0   85.89    1.44
   0  -4   0   93.87    1.53
   0   4   1  472.53   10.68
   0   4   1  420.01   10.17
   0  -4  -1  490.05   12.22
   0  -4  -1  463.48   10.85
   0  -4  -1  440.57   10.04
   0  -4  -1  432.89   10.91
   0   4   2  105.47    1.88
   0   4   2   98.69    2.05
   0   4   2   96.55    1.78
   0   4   2  103.08    1.86
   0   4   3 1181.13   37.66
   0   4   3 1146.55   36.08
   0   4   3 1166.78   39.92
   0  -4  -3 1221.05   41.49
   0  -4  -3 1097.16   37.57
   0   4   4 1458.70   51.24
   0   4   4 1655.33   62.91
   0  -4  -4 1470.14   56.97
   0  -4  -4 1507.73   61.03
   0  -4  -4 1544.41   54.24
   0   4   5  387.27    7.64
   0   4   5  406.45    9.23
   0  -4  -5  360.52    9.62
   0  -4  -5  379.55    9.35
   0  -4  -5  360.89    6.99
   0   4   6 1228.13   40.33
   0  -4  -6 1296.99   48.61
   0  -4  -6 1294.54   51.34
   0  -4  -6 1350.91   44.42
   0   4   7  177.39    5.60
   0  -4  -7  174.91    5.56
   0  -4  -7  178.81    3.38
   0  -4  -7  172.49    4.51
   0   4   8   62.52    2.23
   0   4   8   58.75    1.30
   0  -4  -8   65.42    1.38
   0  -4  -8   64.46    2.72
   0  -4  -8   62.39    2.04
   0   4   9   14.72    1.39
   0   4   9   14.48    0.46
   0  -4  -9   11.21    0.60
   0  -4  -9   13.48    0.95
   0   4  10   79.82    1.96
   0   4  10   85.65    3.94
   0  -4 -10   79.52    2.90
   0   4  11   78.74    3.99
   0  -4 -11   62.88    2.84
   0   4  12  177.56    5.13
   0   4  12  198.50    7.93
   0  -4 -12  185.01    7.18
   0  -4 -12  188.64    8.66
   0   4  13  601.14   22.04
   0   4  13  686.65   33.22
   0  -4 -13  681.89   32.04
   0  -4 -13  641.88   27.59
   0   4  14   81.80    3.10
   0   4  14   95.12    5.33
   0  -4 -14   91.30    5.02
   0  -4 -14  125.35    6.34
   0   4  15  109.34    7.76
   0  -4 -15   87.14    5.73
   0  -4 -15  118.53    7.25
   0   4  16   50.08    2.41
   0   4  16   60.16    5.80
   0  -4 -16   53.76    4.09
   0  -4 -16   56.97    4.30
   0   4  17  284.88   16.84
   0  -4 -17  263.00   15.11
   0  -4 -17  271.53   17.73
   0   4  18    0.23    1.13
   0  -4 -18   -1.75    1.07
   0  -4 -18    1.33    0.98
   0   4  19   54.11    6.95
   0  -4 -19   31.46    5.99
   0   5 -14   18.87    3.62
   0  -5  14    9.51    3.34
   0   5 -13    2.61    1.45
   0  -5  13    2.67    1.63
   0  -5  13    2.86    1.88
   0   5 -12  289.08   15.97
   0   5 -12  208.74    9.16
   0  -5  12  252.40   13.87
   0  -5  12  273.95   13.83
   0   5 -11   19.54    2.36
   0   5 -11   17.68    1.61
   0  -5  11   23.85    2.56
   0  -5  11   22.61    3.07
   0   5 -10   94.78    5.85
   0  -5  10  101.35    6.10
   0  -5  10   85.33    5.22
   0   5  -9   44.04    3.51
   0   5  -9   41.20    1.73
   0  -5   9   48.91    2.96
   0  -5   9   52.77    2.92
   0   5  -8  120.00    5.78
   0   5  -8  104.41    3.28
   0  -5   8  114.84    4.92
   0   5  -7  254.18   10.33
   0   5  -7  236.56    6.73
   0  -5   7  256.58    9.05
   0   5  -6  470.70   17.95
   0   5  -6  446.55   13.06
   0  -5   6  468.72   15.72
   0   5  -5  377.53   12.37
   0   5  -5  376.07    9.80
   0  -5   5  385.06   14.03
   0  -5   5  369.81   11.72
   0   5  -4   10.44    0.40
   0   5  -4    9.44    0.80
   0  -5   4    8.00    0.77
   0  -5   4   12.06    1.15
   0   5  -3   39.48    1.70
   0  -5   3   35.40    1.90
   0  -5   3   35.84    0.91
   0  -5   3   35.52    1.28
   0   5  -2  199.64    4.01
   0   5  -2  205.00    5.32
   0  -5   2  191.96    3.91
   0  -5   2  203.77    6.22
   0  -5   2  196.67    4.50
   0   5  -1  101.56    1.91
   0   5  -1  115.61    2.25
   0  -5   1  105.37    2.13
   0  -5   1  107.39    2.78
   0  -5   1  106.08    2.08
   0   5   0 1335.84   46.57
   0   5   0 1229.20   42.82
   0  -5   0 1284.07   44.96
   0  -5   0 1201.16   42.07
   0  -5   0 1250.04   48.33
   0   5   1    9.24    0.40
   0   5   1   10.42    0.34
   0  -5  -1    9.62    0.42
   0  -5  -1   10.48    0.59
   0   5   2  897.83   27.50
   0   5   2  821.02   26.59
   0   5   2  898.71   29.15
   0   5   2  928.22   27.71
   0  -5  -2  955.51   30.06
   0  -5  -2  861.38   27.29
   0   5   3 4186.89  269.44
   0   5   3 4244.98  264.68
   0   5   4 4621.23  298.67
   0  -5  -4 4353.84  283.56
   0   5   5 1278.15   43.77
   0   5   5 1405.33   52.76
   0  -5  -5 1363.16   46.69
   0  -5  -5 1361.06   52.23
   0   5   6   67.82    1.12
   0  -5  -6   69.62    1.86
   0  -5  -6   71.12    1.14
   0  -5  -6   72.02    2.46
   0  -5  -7 3007.24  164.66
   0  -5  -7 2894.49  167.19
   0  -5  -7 2907.23  143.18
   0   5   8  954.09   28.63
   0  -5  -8  969.13   35.10
   0  -5  -8  993.05   39.79
   0  -5  -8  873.28   26.07
   0  -5  -9  559.60   20.44
   0  -5  -9  576.02   15.63
   0  -5  -9  554.51   18.58
   0   5  10  479.16   13.29
   0   5  10  516.50   18.76
   0  -5 -10  493.71   13.91
   0  -5 -10  523.09   20.70
   0  -5 -10  506.96   17.27
   0   5  11  217.07    7.94
   0   5  11  196.79    4.86
   0  -5 -11  204.46    7.20
   0   5  12  120.17    5.01
   0   5  12  100.74    2.96
   0  -5 -12  110.63    4.39
   0   5  13   21.90    1.09
   0   5  13   21.26    2.73
   0  -5 -13   24.39    1.91
   0   5  14 1298.76   58.63
   0   5  14 1555.20   85.29
   0  -5 -14 1539.88   88.64
   0  -5 -14 1390.01   73.35
   0   5  15    5.00    0.74
   0   5  15    8.73    2.09
   0  -5 -15    6.32    1.52
   0  -5 -15    7.66    1.41
   0   5  16  524.04   21.12
   0   5  16  680.20   35.45
   0  -5 -16  610.39   31.01
   0  -5 -16  654.92   37.00
   0   5  17    8.39    2.22
   0  -5 -17   10.54    2.05
   0  -5 -17   10.20    2.73
   0   5  18  102.35    9.01
   0  -5 -18   64.94    6.27
   0  -5 -18   78.10    6.16
   0   5  19   72.86    6.85
   0  -5 -19   57.80    7.72
   0   6 -13  224.50   16.94
   0  -6  13  241.82   17.72
   0   6 -12  126.20    8.05
   0  -6  12  129.94    8.52
   0   6 -11   73.30    6.06
   0   6 -11   54.83    2.75
   0  -6  11   81.59    6.42
   0  -6  11   74.81    4.89
   0   6 -10   23.93    1.47
   0   6 -10   32.37    3.40
   0  -6  10   41.78    3.58
   0  -6  10   28.40    2.69
   0   6  -9   46.21    2.93
   0   6  -9   40.37    1.65
   0  -6   9   39.87    2.98
   0  -6   9   57.24    4.11
   0   6  -8  467.37   16.19
   0   6  -8  542.28   22.72
   0  -6   8  493.55   19.30
   0   6  -7  221.84    8.29
   0   6  -7  204.47    5.99
   0  -6   7  199.69    7.11
   0   6  -6   54.78    1.58
   0   6  -6   62.35    2.74
   0  -6   6   56.19    2.56
   0  -6   6   67.91    3.66
   0   6  -5  211.14    8.14
   0   6  -5  201.41    4.90
   0  -6   5  208.72    6.29
   0  -6   5  218.74    7.69
   0   6  -4  163.42    3.63
   0   6  -4  172.91    6.21
   0  -6   4  175.26    5.88
   0  -6   4  172.32    4.95
   0   6  -3  475.51   16.64
   0   6  -3  457.47   11.62
   0  -6   3  469.82   13.67
   0  -6   3  466.11   15.81
   0   6  -2 1502.66   56.49
   0  -6   2 1488.51   66.48
   0  -6   2 1477.35   57.44
   0  -6   2 1484.57   60.18
   0   6  -1  186.39    4.01
   0  -6   1  182.26    4.11
   0  -6   1  200.96    4.30
   0  -6   1  178.41    5.20
   0   6   0  265.54    5.94
   0   6   0  279.02    6.29
   0  -6   0  283.32    6.50
   0  -6   0  284.12    6.47
   0  -6   0  287.34    8.30
   0   6   1  209.72    4.37
   0   6   1  201.92    4.71
   0  -6  -1  220.34    4.72
   0  -6  -1  223.73    5.89
   0  -6  -1  216.34    4.96
   0   6   2  128.79    3.01
   0   6   2  137.03    3.13
   0   6   2  140.85    2.96
   0   6   2  128.08    2.68
   0  -6  -2  130.11    3.24
   0   6   3   41.04    1.10
   0   6   3   42.55    1.20
   0   6   3   42.95    1.39
   0   6   3   38.49    1.30
   0   6   4  235.20    6.52
   0   6   4  250.27    5.44
   0   6   4  230.98    5.13
   0   6   4  223.55    5.66
   0   6   5   93.01    1.68
   0   6   5   98.82    2.37
   0  -6  -5  100.24    2.39
   0   6   6  576.64   14.79
   0   6   6  635.89   21.23
   0   6   6  667.28   17.42
   0  -6  -6  613.69   19.04
   0   6   7    4.65    0.78
   0   6   7    5.65    0.23
   0  -6  -7    4.32    0.58
   0  -6  -7    4.26    0.21
   0  -6  -7    4.88    0.64
   0   6   8 2491.79  114.38
   0  -6  -8 2911.41  159.05
   0  -6  -8 2936.42  152.45
   0  -6  -8 2233.16  102.75
   0   6   9   13.48    0.38
   0  -6  -9   15.23    1.46
   0  -6  -9   14.10    0.97
   0  -6 -10  240.92    7.48
   0  -6 -10  252.35    9.55
   0  -6 -10  225.19    4.97
   0   6  11  406.17   10.86
   0  -6 -11  456.69   19.34
   0  -6 -11  410.81   14.16
   0   6  12   34.50    2.41
   0  -6 -12   40.90    2.12
   0  -6 -12   38.90    3.12
   0   6  13  665.42   22.33
   0   6  13  838.51   37.16
   0  -6 -13  753.24   32.08
   0   6  14  129.32    8.18
   0  -6 -14  121.81    5.87
   0   6  15  302.86    9.85
   0   6  15  381.84   18.33
   0  -6 -15  389.31   18.40
   0  -6 -15  364.15   16.13
   0   6  16  135.98   10.10
   0  -6 -16  132.48    7.59
   0  -6 -16  141.29    9.59
   0   6  17  156.06   11.14
   0  -6 -17  129.98    8.58
   0  -6 -17  119.12    7.96
   0   6  18   13.86    2.68
   0  -6 -18   12.75    2.52
   0   6  19   18.92    4.55
   0   7 -13    5.45    2.11
   0  -7  13    4.02    2.81
   0   7 -12  266.00   18.55
   0  -7  12  248.50   15.87
   0   7 -11  265.16   14.62
   0  -7  11  288.09   18.58
   0   7 -10   46.24    5.00
   0  -7  10   57.89    5.41
   0   7  -9    8.50    0.88
   0   7  -9   14.34    2.16
   0   7  -8   35.65    1.36
   0   7  -8   54.29    3.63
   0  -7   8   37.58    2.36
   0   7  -7   10.19    1.69
   0   7  -7    7.75    0.64
   0  -7   7    8.24    1.17
   0   7  -6  375.41   15.92
   0   7  -6  324.06    9.38
   0  -7   6  334.77   11.77
   0  -7   6  369.87   14.70
   0   7  -5   71.83    3.55
   0  -7   5   69.88    4.10
   0  -7   5   59.07    2.59
   0   7  -4   47.51    1.19
   0   7  -4   50.70    2.27
   0  -7   4   52.70    1.92
   0  -7   4   58.58    3.14
   0  -7   3   41.24    1.42
   0  -7   3   49.99    2.63
   0   7  -2    3.37    0.32
   0  -7   2    3.55    0.40
   0  -7   2    3.19    0.66
   0   7  -1  321.43    7.73
   0  -7   1  317.82    7.92
   0  -7   1  313.56   10.68
   0  -7   1  298.58    7.89
   0   7   0   56.31    1.34
   0  -7   0   55.30    1.46
   0  -7   0   54.26    1.88
   0   7   1  143.70    3.53
   0   7   1  134.76    3.66
   0  -7  -1  132.03    2.98
   0  -7  -1  142.53    4.34
   0   7   2 1620.89   70.66
   0   7   2 1483.20   62.81
   0   7   2 1544.14   62.72
   0  -7  -2 1566.70   67.54
   0   7   3    4.99    0.62
   0   7   3    5.36    0.42
   0   7   3    5.18    0.62
   0   7   3    6.68    0.60
   0   7   4  336.48   10.08
   0   7   4  339.80    8.81
   0   7   4  325.26    9.40
   0   7   4  334.72    9.04
   0   7   5   29.68    1.56
   0   7   5   30.59    1.27
   0  -7  -5   27.69    1.22
   0   7   6 3328.09  201.79
   0   7   6 3450.31  214.59
   0   7   6 3376.60  189.07
   0   7   6 3187.10  175.90
   0  -7  -6 3269.56  195.55
   0   7   7  665.47   18.85
   0   7   7  819.75   29.55
   0   7   7  753.17   21.23
   0  -7  -7  808.09   27.21
   0   7   8  513.88   18.51
   0  -7  -8  485.17   15.86
   0   7   9   72.65    3.23
   0  -7  -9   65.36    2.40
   0  -7  -9   67.42    3.45
   0  -7 -10   47.82    1.95
   0  -7 -10   56.91    2.44
   0  -7 -11  766.26   34.54
   0  -7 -11  707.58   27.76
   0   7  12    0.95    0.20
   0  -7 -12    2.08    0.76
   0  -7 -12    0.80    0.58
   0   7  13  452.31   12.99
   0  -7 -13  572.94   24.67
   0  -7 -13  536.05   21.17
   0   7  14  101.17    2.56
   0  -7 -14  123.56    5.42
   0   7  15  335.18   18.75
   0  -7 -15  280.07   13.38
   0   7  16    0.77    1.24
   0  -7 -16    1.99    1.04
   0   7  17  400.23   25.91
   0  -7 -17  389.99   25.25
   0   7  18   15.33    2.80
   0   7  19   28.17    3.98
   0   7  19   24.05    5.34
   0   7  20    2.71    2.54
   0   7  20    0.99    2.61
   0   8 -12    1.23    2.23
   0  -8  12    2.76    1.76
   0   8 -11   28.64    3.60
   0  -8  11   32.41    3.89
   0   8 -10   17.22    3.45
   0  -8  10   19.27    3.56
   0   8  -9  235.26   14.45
   0   8  -8  292.92   16.18
   0   8  -7   81.88    4.72
   0  -8   7   99.21    5.13
   0   8  -6    2.82    0.91
   0   8  -6    1.94    0.33
   0  -8   6    2.69    1.29
   0  -8   6    2.47    0.74
   0   8  -5  118.09    3.23
   0  -8   5  127.07    5.60
   0  -8   5  122.12    4.34
   0   8  -4   13.93    0.50
   0  -8   4   11.18    0.89
   0  -8   4   11.15    1.84
   0   8  -3   22.14    0.77
   0  -8   3   23.50    1.06
   0  -8   3   28.50    1.70
   0   8  -2   27.09    0.79
   0  -8   2   29.02    1.16
   0  -8   2   31.78    2.18
   0   8  -1  412.87   10.53
   0   8  -1  408.01   14.76
   0  -8   1  422.16   15.51
   0  -8   1  402.81   11.42
   0   8   0   29.30    0.90
   0   8   0   38.30    2.00
   0  -8   0   25.47    1.50
   0  -8   0   29.72    1.01
   0   8   1   64.01    2.43
   0  -8  -1   55.45    2.39
   0  -8  -1   51.58    1.54
   0   8   2  664.69   21.31
   0   8   2  711.20   23.45
   0   8   2  704.08   24.09
   0   8   3    4.14    0.58
   0   8   3    2.24    0.38
   0   8   3    4.05    0.57
   0   8   3    3.08    0.62
   0   8   4   46.64    1.82
   0   8   4   44.45    1.44
   0   8   4   43.93    1.84
   0   8   4   44.68    1.50
   0   8   5 1018.37   41.91
   0   8   5 1028.97   39.73
   0   8   5 1019.93   38.98
   0   8   5 1027.63   37.71
   0   8   6 1123.14   42.13
   0   8   6 1168.16   51.21
   0   8   6 1136.29   46.97
   0  -8  -6 1128.45   45.79
   0   8   7   13.59    0.44
   0   8   7   17.93    1.08
   0   8   7   13.04    1.10
   0   8   7   14.49    0.47
   0  -8  -7   11.31    0.95
   0   8   8    2.61    0.27
   0   8   8    2.30    0.77
   0   8   8    3.09    0.25
   0   8   8    4.25    0.70
   0  -8  -8    1.71    0.60
   0   8   9  139.56    2.45
   0   8   9  155.47    2.71
   0   8  10  297.82   10.85
   0  -8 -10  298.16    9.94
   0   8  11  908.03   42.06
   0  -8 -11  860.28   35.66
   0   8  12   36.49    2.94
   0  -8 -12   33.99    2.42
   0  -8 -12   32.85    1.98
   0  -8 -13   56.99    3.09
   0  -8 -13   62.13    4.51
   0  -8 -14  100.99    6.14
   0  -8 -14   74.98    4.12
   0  -8 -15  149.77    7.51
   0  -8 -15  160.62    8.83
   0   8  17  144.14    7.69
   0   8  18  203.09   13.91
   0   8  18  184.22   12.65
   0   8  19   15.25    4.08
   0   8  19   13.05    4.17
   0   8  20   13.86    3.61
   0   8  20   17.93    4.78
   0   9 -11  188.13   13.13
   0  -9  11  193.20   14.07
   0   9 -10   13.68    3.22
   0   9  -9    6.25    1.78
   0   9  -8   64.82    4.58
   0   9  -7  148.36    7.91
   0  -9   7  142.75    8.49
   0   9  -6    3.67    0.47
   0  -9   6   10.17    1.76
   0   9  -5  194.30    5.32
   0  -9   5  230.57   10.02
   0   9  -4  568.04   17.41
   0  -9   4  643.73   27.32
   0   9  -3   87.01    2.02
   0  -9   3   97.16    4.32
   0  -9   3   92.11    2.86
   0   9  -2  998.22   43.36
   0   9  -2  950.44   32.43
   0  -9   2  966.01   36.71
   0  -9   2 1058.60   49.19
   0   9  -1  205.89    4.96
   0   9  -1  234.89    7.78
   0  -9   1  239.43    9.43
   0  -9   1  227.40    6.08
   0   9   0   21.81    1.92
   0  -9   0   21.91    0.91
   0  -9   0   20.94    1.42
   0   9   1  787.12   31.31
   0   9   1  770.42   26.15
   0  -9  -1  748.71   25.39
   0  -9  -1  770.76   29.45
   0   9   2   51.40    2.32
   0   9   2   48.12    1.52
   0   9   2   46.41    1.90
   0   9   2   50.64    1.77
   0   9   3   69.74    2.37
   0   9   3   60.34    2.50
   0   9   3   58.15    1.74
   0   9   3   62.18    2.51
   0   9   4  158.16    4.95
   0   9   4  158.46    4.48
   0   9   4  167.32    5.43
   0   9   4  153.09    5.11
   0   9   5  752.42   28.24
   0   9   5  742.93   26.65
   0   9   5  765.27   29.58
   0   9   5  748.17   26.88
   0   9   6   26.42    0.94
   0   9   6   37.15    1.89
   0   9   6   23.80    1.27
   0   9   6   25.20    1.39
   0   9   7 1125.37   44.35
   0   9   7 1289.36   57.30
   0   9   7 1223.42   53.82
   0  -9  -7 1204.63   51.68
   0   9   8  875.26   36.34
   0   9   8  837.33   28.48
   0   9   8  913.34   40.25
   0  -9  -8  844.35   32.63
   0   9   9   17.61    1.86
   0   9   9   21.98    1.66
   0   9   9   17.91    0.57
   0  -9  -9   17.67    1.23
   0   9  10   22.48    0.50
   0   9  10   25.49    0.58
   0   9  11  486.19   21.16
   0  -9 -11  472.40   17.31
   0   9  12  158.01    8.09
   0  -9 -12  154.77    6.07
   0   9  13    1.57    1.22
   0   9  13    2.92    1.31
   0  -9 -13    1.19    0.81
   0   9  14   83.72    4.64
   0   9  14   94.18    6.41
   0  -9 -14   72.70    4.07
   0   9  15   15.86    2.65
   0   9  15   15.45    2.86
   0  -9 -15   10.77    1.72
   0   9  16   81.96    7.63
   0   9  17    3.81    1.75
   0   9  18    7.30    2.98
   0   9  19   32.02    5.84
   0   9  20   52.04    6.64
   0  10 -10   42.59    4.78
   0  10  -9    9.09    2.94
   0  10  -8    6.88    2.22
   0 -10   8    4.75    1.90
   0 -10   7    8.66    2.68
   0 -10   6  106.38    8.34
   0 -10   5  842.37   48.38
   0  10  -4   71.54    2.01
   0 -10   4  111.82    5.66
   0  10  -3  171.59    4.16
   0  10  -3  197.42    8.99
   0 -10   3  207.70    9.74
   0  10  -2   57.59    2.96
   0 -10   2   65.22    3.28
   0  10  -1   89.95    2.41
   0  10  -1   93.77    4.62
   0 -10   1  102.36    5.11
   0 -10   1   91.70    2.88
   0  10   0  509.39   15.45
   0  10   0  511.76   20.83
   0 -10   0  474.32   15.02
   0 -10   0  517.30   19.76
   0  10   1  591.10   25.01
   0  10   1  619.98   20.30
   0  10   2   93.11    2.66
   0  10   2   84.29    2.81
   0  10   2   95.72    4.17
   0  10   2  109.90    4.23
   0  10   3   57.17    2.65
   0  10   3   55.28    2.21
   0  10   3   52.83    1.85
   0  10   3   58.11    2.30
   0  10   4 1352.40   58.95
   0  10   4 1351.03   63.60
   0  10   4 1369.91   63.56
   0  10   4 1371.64   62.97
   0  10   5  191.30    6.53
   0  10   5  172.03    5.67
   0  10   5  161.77    5.86
   0  10   5  171.74    5.37
   0  10   6   54.11    2.35
   0  10   6   54.44    2.01
   0  10   6   51.35    1.73
   0  10   6   57.99    2.82
   0  10   7  210.51    7.34
   0  10   7  199.62    6.75
   0  10   7  184.60    5.34
   0  10   7  198.37    6.82
   0  10   8  246.85    9.10
   0  10   8  225.44    6.11
   0  10   8  253.63    9.24
   0  10   9   21.15    1.59
   0  10   9   15.37    0.71
   0  10   9   19.75    1.29
   0 -10  -9   19.61    1.19
   0  10  10    0.93    0.81
   0  10  10    1.35    0.21
   0  10  10    2.57    1.01
   0  10  10    0.62    0.23
   0 -10 -10    1.76    0.61
   0  10  11  106.62    5.59
   0  10  11  108.24    5.22
   0 -10 -11  104.75    4.34
   0  10  12  134.50    5.95
   0 -10 -12  135.75    5.08
   0  10  13    5.69    1.59
   0 -10 -13    4.65    0.91
   0  10  14  267.43   14.39
   0 -10 -14  247.88   10.61
   0  10  15    2.10    1.19
   0  10  15    1.37    1.67
   0  10  16    1.97    1.54
   0  10  16   -0.22    1.68
   0  10  17   29.28    3.71
   0  10  17   35.22    3.86
   0  10  18   50.93    6.95
   0  10  18   53.46    6.51
   0  10  19   63.45    6.71
   0  10  20  121.79   13.75
   0 -11   8   14.41    2.96
   0 -11   7   29.73    4.82
   0 -11   6  213.00   12.87
   0 -11   5  302.51   19.10
   0  11  -4   72.69    4.28
   0 -11   4   71.42    5.95
   0  11  -3   84.00    4.36
   0 -11   3   88.74    6.26
   0  11  -2    3.38    1.20
   0  11  -2    2.58    0.30
   0 -11   2    4.82    1.03
   0  11  -1   45.56    3.08
   0 -11   1   39.27    3.37
   0  11   0   48.38    1.48
   0  11   0   52.64    3.10
   0  11   1  222.12    8.30
   0  11   1  237.32   10.30
   0  11   1  234.33    6.53
   0  11   1  196.15    5.94
   0  11   2 1103.62   49.07
   0  11   2 1099.26   52.49
   0  11   2  951.90   38.87
   0  11   2 1017.96   41.80
   0  11   3  185.39    5.53
   0  11   3  174.92    5.95
   0  11   3  207.67    7.94
   0  11   3  201.21    8.07
   0  11   4   21.40    1.17
   0  11   4   26.61    1.92
   0  11   4   23.45    1.60
   0  11   5  461.97   17.47
   0  11   5  437.76   16.51
   0  11   5  417.18   14.50
   0  11   5  450.09   17.55
   0  11   6  132.05    4.70
   0  11   6  136.24    5.64
   0  11   6  131.13    4.54
   0  11   6  135.39    5.19
   0  11   7   12.53    1.18
   0  11   7   13.13    1.07
   0  11   7   13.95    1.58
   0  11   8    9.34    1.08
   0  11   8    6.59    0.67
   0  11   8    7.81    1.00
   0  11   8   10.66    1.46
   0  11   9  835.77   39.85
   0  11   9  696.47   24.88
   0  11   9  765.41   32.13
   0  11   9  766.02   34.00
   0  11  10   39.69    3.27
   0  11  10   43.18    2.62
   0 -11 -10   31.06    1.76
   0  11  11    7.11    1.40
   0  11  11    7.48    1.74
   0 -11 -11    5.42    0.90
   0  11  12   35.30    3.20
   0  11  12   40.14    3.02
   0 -11 -12   32.47    2.35
   0  11  13  121.38    7.42
   0  11  13  105.07    6.45
   0 -11 -13   89.09    4.14
   0  11  14   35.30    3.77
   0  11  15    2.57    1.25
   0  11  16   42.11    4.95
   0  11  17   28.40    3.76
   0  11  17   28.21    3.47
   0  11  18   47.31    6.67
   0  11  18   45.22    6.45
   0  11  19   13.54    3.98
   0  11  19    9.83    3.67
   0  12  -7   72.51    6.63
   0  12  -6   46.10    4.35
   0  12  -6   44.45    4.87
   0  12  -5   57.01    4.33
   0  12  -4  624.85   32.46
   0  12  -3  105.20    7.06
   0  12  -2   16.50    1.50
   0  12  -2   23.31    1.99
   0  12  -1   49.00    2.92
   0  12  -1   49.02    3.45
   0  12   0    6.08    1.48
   0  12   0    3.72    0.43
   0  12   0    3.71    1.28
   0  12   1  144.42    4.62
   0  12   1  171.68    8.24
   0  12   1  182.96    5.25
   0  12   1  182.86    7.74
   0  12   2  750.17   32.99
   0  12   2  795.92   36.02
   0  12   2  668.45   25.21
   0  12   2  722.05   27.03
   0  12   3   36.01    1.51
   0  12   3   40.97    2.10
   0  12   3   40.73    2.88
   0  12   3   45.57    2.68
   0  12   4    4.33    1.04
   0  12   4    3.46    0.68
   0  12   4    6.36    1.09
   0  12   4    5.20    0.78
   0  12   5   64.27    3.33
   0  12   5   65.85    3.18
   0  12   5   67.14    3.20
   0  12   5   56.89    2.44
   0  12   6  121.33    5.59
   0  12   6  114.65    4.64
   0  12   6  114.36    4.08
   0  12   6  123.58    5.17
   0  12   7   25.71    1.98
   0  12   7   17.55    1.45
   0  12   7   16.12    1.16
   0  12   7   22.20    1.53
   0  12   8  178.92    8.19
   0  12   8  169.48    6.78
   0  12   8  154.43    4.81
   0  12   8  166.57    6.32
   0  12   9   13.37    1.48
   0  12   9   12.76    1.30
   0  12   9   10.88    1.92
   0  12  10   49.98    1.56
   0  12  10   51.68    2.58
   0  12  10   72.90    3.45
   0  12  10   59.22    4.46
   0  12  11   78.73    5.14
   0  12  11   71.77    3.26
   0 -12 -11   56.13    3.14
   0  12  12    4.45    1.17
   0  12  12    8.63    1.91
   0  12  13  147.84    9.05
   0  12  13  163.19    9.05
   0  12  14  115.84    7.70
   0  12  14  131.05    8.03
   0  12  15   73.32    5.05
   0  12  15   82.83    5.93
   0  12  16  217.54   14.52
   0  12  17   16.89    3.78
   0  12  18   22.69    5.15
   0  12  18   27.58    3.63
   0  12  19   28.14    5.51
   0  12  19   30.32    6.08
   0  13  -6   82.49    6.75
   0  13  -5  257.07   17.72
   0  13  -4    8.25    2.56
   0  13  -4    8.22    2.18
   0  13  -3    8.82    2.95
   0  13  -3   21.03    2.64
   0  13  -2    1.58    1.83
   0  13  -2    3.71    1.57
   0  13  -1  144.99    9.01
   0  13  -1  155.93    8.50
   0  13   0   -0.65    1.28
   0  13   0    1.93    1.09
   0  13   1   75.95    4.47
   0  13   1   80.59    4.14
   0  13   1   65.01    2.25
   0  13   2  266.36   11.11
   0  13   2  262.70    8.64
   0  13   2  279.93   13.67
   0  13   3    7.23    0.71
   0  13   3   14.38    1.65
   0  13   3    6.89    1.54
   0  13   3    7.48    0.88
   0  13   4    8.42    0.89
   0  13   4   12.85    1.24
   0  13   4   11.94    1.67
   0  13   4   14.23    1.32
   0  13   5   25.34    2.04
   0  13   5   20.55    1.94
   0  13   5   24.82    2.07
   0  13   5   28.56    1.46
   0  13   6   98.79    3.68
   0  13   6  113.01    5.36
   0  13   6  110.70    5.13
   0  13   6  104.25    4.68
   0  13   7    4.54    0.74
   0  13   7    4.01    1.20
   0  13   7    2.65    0.84
   0  13   7    2.80    1.00
   0  13   8   47.03    2.75
   0  13   8   45.37    2.78
   0  13   8   53.28    3.67
   0  13   8   51.18    1.94
   0  13   9    8.42    1.15
   0  13   9    4.29    0.65
   0  13   9    6.97    1.60
   0  13   9    5.66    1.20
   0  13  10   66.95    3.96
   0  13  10   57.95    3.43
   0  13  10   69.99    4.98
   0  13  11  159.58    8.25
   0  13  11  186.70   10.47
   0  13  11  150.42    6.36
   0  13  12   12.01    2.57
   0  13  12   11.10    1.46
   0  13  12   11.98    1.99
   0  13  13   35.65    4.20
   0  13  13   32.83    3.48
   0  13  14    6.44    1.88
   0  13  14    6.63    1.96
   0  13  15   67.17    5.84
   0  13  15   69.01    6.13
   0  13  16   10.70    2.86
   0  13  16   12.50    3.39
   0  13  17   12.32    2.48
   0  13  18    0.73    1.85
   0  13  19   12.94    3.99
   0  14  -4  238.84   14.79
   0  14  -4  246.35   16.49
   0  14  -3   22.65    3.36
   0  14  -3   18.84    3.67
   0  14  -2  100.27    7.70
   0  14  -2   97.94    8.83
   0  14  -1   64.75    5.47
   0  14  -1   61.47    4.93
   0  14   0  163.33   10.38
   0  14   0  165.81   11.69
   0  14   1   48.11    4.04
   0  14   1   54.21    3.78
   0  14   2   11.08    1.81
   0  14   2    9.47    2.13
   0  14   3  181.93    9.78
   0  14   3  175.91    8.82
   0  14   3  165.52    6.08
   0  14   4   34.74    2.88
   0  14   4   24.53    1.61
   0  14   4   34.47    2.23
   0  14   4   34.21    1.85
   0  14   5   74.40    3.40
   0  14   5   69.37    4.17
   0  14   5   62.40    2.99
   0  14   5   74.68    4.22
   0  14   6   21.83    1.95
   0  14   6   18.77    2.10
   0  14   6   23.49    2.03
   0  14   7   67.55    4.19
   0  14   7   58.97    3.73
   0  14   7   57.70    3.06
   0  14   7   74.42    3.32
   0  14   8  155.33    7.93
   0  14   8  123.77    5.16
   0  14   8  136.92    5.59
   0  14   8  133.79    6.29
   0  14   9  115.36    5.53
   0  14   9  109.11    5.22
   0  14   9  103.52    4.72
   0  14   9   95.63    3.68
   0  14  10   52.84    3.42
   0  14  10   55.15    4.52
   0  14  11   24.13    2.08
   0  14  11   28.05    3.36
   0  14  11   24.87    2.57
   0  14  12  377.88   17.29
   0  14  12  439.10   21.96
   0  14  12  380.97   20.07
   0  14  13   22.83    2.13
   0  14  13   22.24    2.97
   0  14  13   25.16    2.94
   0  14  14  298.66   19.38
   0  14  14  259.85   16.13
   0  14  15  102.72    8.05
   0  14  15  105.08   10.22
   0  14  16  154.57   11.78
   0  14  16  162.29   13.72
   0  14  17    2.61    2.62
   0  14  17    4.05    2.22
   0  14  18   22.45    5.32
   0  14  18   21.00    4.51
   0  15  -2  282.05   20.95
   0  15  -2  262.77   18.38
   0  15  -1   50.42    5.66
   0  15  -1   65.96    5.48
   0  15   0   34.43    3.91
   0  15   0   30.95    4.58
   0  15   1    1.31    1.12
   0  15   1    5.39    1.79
   0  15   2   84.71    4.64
   0  15   2   90.43    6.76
   0  15   3   11.63    1.90
   0  15   3   16.22    2.17
   0  15   4   14.72    1.30
   0  15   4   15.00    1.61
   0  15   4   17.85    2.39
   0  15   5   16.25    2.29
   0  15   5   21.08    2.12
   0  15   5   17.26    1.78
   0  15   6    2.05    1.03
   0  15   6    1.98    0.60
   0  15   6    1.71    1.06
   0  15   6    2.74    1.07
   0  15   7    1.55    1.20
   0  15   7    3.35    1.08
   0  15   7    2.69    0.72
   0  15   7    3.25    1.02
   0  15   8  361.17   16.93
   0  15   8  316.32   13.55
   0  15   8  312.90   12.81
   0  15   8  288.57   11.77
   0  15   9  235.12   10.57
   0  15   9  211.17    8.84
   0  15   9  253.14   13.09
   0  15   9  202.16    8.80
   0  15  10   91.25    5.13
   0  15  10   94.61    6.85
   0  15  10   92.15    4.91
   0  15  11   13.64    1.71
   0  15  11   13.07    2.00
   0  15  11   15.94    2.75
   0  15  12    8.33    1.78
   0  15  12    8.93    1.75
   0  15  12    5.71    1.35
   0  15  13    2.93    0.97
   0  15  13    3.40    1.58
   0  15  13    6.63    2.09
   0  15  14   26.63    3.22
   0  15  14   21.11    3.08
   0  15  14   14.88    2.03
   0  15  15   99.03    9.69
   0  15  15  104.19    7.86
   0  15  16    5.89    1.76
   0  15  16    4.43    2.95
   0  15  17   24.93    4.58
   0  15  17   29.27    5.58
   0  16   0   24.20    3.36
   0  16   0   21.04    2.75
   0  16   1    5.71    1.75
   0  16   1    1.62    1.58
   0  16   2   24.24    2.84
   0  16   2   18.45    3.07
   0  16   3   27.71    3.31
   0  16   3   28.47    3.76
   0  16   4   44.24    4.23
   0  16   4   42.22    3.04
   0  16   5    5.96    1.26
   0  16   5    7.81    1.76
   0  16   6   11.23    1.83
   0  16   6    9.58    1.42
   0  16   6   10.73    1.88
   0  16   7  148.11    8.11
   0  16   7  137.71    7.88
   0  16   7  153.51    8.15
   0  16   8  210.60   10.28
   0  16   8  223.03   11.74
   0  16   8  198.47    9.17
   0  16   9   86.83    5.22
   0  16   9   82.15    4.43
   0  16   9  129.27    6.81
   0  16   9   86.02    4.90
   0  16  10  114.85    6.56
   0  16  10  152.84    9.51
   0  16  10  124.81    6.81
   0  16  11    5.43    1.68
   0  16  11   16.05    2.09
   0  16  11   15.44    1.70
   0  16  12   13.45    2.61
   0  16  12    7.03    1.53
   0  16  12    9.88    1.92
   0  16  13   24.22    4.11
   0  16  13   24.06    3.00
   0  16  14    5.11    2.35
   0  16  14    3.24    1.76
   0  16  15   10.47    2.56
   0  16  15   10.40    2.60
   0  16  16  134.51    8.32
   0  16  16  132.94   13.12
   0  17   2   65.71    5.03
   0  17   2   75.19    5.83
   0  17   3   25.23    3.56
   0  17   3   29.83    4.07
   0  17   4    1.98    1.55
   0  17   4    1.05    1.34
   0  17   5   20.22    2.75
   0  17   5   18.26    3.05
   0  17   6   19.86    2.47
   0  17   6   15.82    2.57
   0  17   7    1.71    1.27
   0  17   7    2.44    1.24
   0  17   8   34.37    2.78
   0  17   8   35.07    3.26
   0  17   8   17.61    3.03
   0  17   9  113.00    6.37
   0  17   9  130.09    8.54
   0  17  10   94.99    6.82
   0  17  10   70.20    5.24
   0  17  11   35.14    3.84
   0  17  11   21.27    2.52
   0  17  12   77.14    6.37
   0  17  12   45.31    4.46
   0  17  13    7.16    2.86
   0  17  13    9.59    2.06
   0  17  14    1.04    1.38
   0  17  14    0.95    1.86
   0  17  15    9.20    2.51
   0  17  15   10.78    3.47
   0  18   5   27.47    3.89
   0  18   6   18.60    3.02
   0  18   6   16.39    2.78
   0  18   7    3.12    1.07
   0  18   7    1.69    1.54
   0  18   8   34.57    3.79
   0  18   9   17.14    2.63
   0  18  10    2.26    1.28
   0  18  10    2.40    1.70
   0  18  11  140.72   10.76
   0  18  12    8.06    2.74
   0  18  13   -0.53    1.67
  -1  18  11   43.31    5.27
  -1  18  11   33.55    3.97
  -1  18  10   17.91    2.95
  -1  18  10   27.85    3.81
  -1  18   9    3.94    1.71
  -1  18   8   11.62    2.44
  -1  17  14    5.50    2.91
  -1  17  13    8.31    3.04
  -1  17  12   33.80    4.75
  -1  17  12   26.64    3.17
  -1  17  11   70.01    5.67
  -1  17  11  109.46    8.27
  -1  17  10    6.02    1.69
  -1  17  10    6.58    2.26
  -1  17   9  106.33    8.29
  -1  17   9  105.44    7.14
  -1  17   8   96.20    6.23
  -1  17   8   77.24    6.28
  -1  17   7   40.78    3.50
  -1  17   7   38.34    4.11
  -1  17   6   37.98    3.82
  -1  17   6   38.37    4.25
  -1  17   5    8.22    1.62
  -1  17   5    7.33    2.13
  -1  17   4    4.52    2.09
  -1  17   4    6.04    1.97
  -1  17   3    2.19    1.66
  -1  17   3    1.27    1.32
  -1  16  16    3.39    2.69
  -1  16  16    2.25    1.86
  -1  16  15  165.33   10.89
  -1  16  15  133.51    9.84
  -1  16  14   15.26    3.44
  -1  16  14   17.84    2.19
  -1  16  14    4.43    1.70
  -1  16  13   10.23    1.96
  -1  16  13   11.54    2.40
  -1  16  12   38.58    4.50
  -1  16  12   26.36    2.78
  -1  16  12   23.88    2.64
  -1  16  11   -0.70    0.71
  -1  16  11   -0.19    1.37
  -1  16  11    2.64    0.93
  -1  16  10   91.27    7.00
  -1  16  10   76.16    5.54
  -1  16   9  271.94   14.62
  -1  16   9  284.34   16.76
  -1  16   8   44.97    4.11
  -1  16   8   52.17    4.49
  -1  16   8   47.74    3.32
  -1  16   7    4.26    1.38
  -1  16   7    2.49    1.41
  -1  16   7    2.87    1.02
  -1  16   6   45.31    4.04
  -1  16   6   53.87    3.97
  -1  16   6   56.57    4.60
  -1  16   5   75.40    5.96
  -1  16   5   84.22    6.32
  -1  16   4   25.97    3.50
  -1  16   4   28.73    3.48
  -1  16   3    3.48    1.96
  -1  16   3    5.56    1.88
  -1  16   2  293.12   18.56
  -1  16   2  231.80   14.50
  -1  16   1   27.26    4.55
  -1  16   1   30.34    4.07
  -1  16   0   22.82    4.05
  -1  16   0   25.95    4.59
  -1  15  17   86.42    8.57
  -1  15  17   94.10   11.69
  -1  15  16   90.18   10.67
  -1  15  16   91.72    8.24
  -1  15  15    4.32    1.59
  -1  15  15    6.29    2.20
  -1  15  15    7.85    2.07
  -1  15  14   -0.10    1.72
  -1  15  14    1.38    1.18
  -1  15  14    0.39    1.00
  -1  15  13    5.99    1.42
  -1  15  13    9.04    2.39
  -1  15  13    2.88    1.66
  -1  15  12    3.63    1.79
  -1  15  12    1.31    1.17
  -1  15  12    2.66    1.13
  -1  15  11    2.96    1.76
  -1  15  11    2.24    1.11
  -1  15  11    1.73    1.05
  -1  15  10   50.05    2.91
  -1  15  10   42.26    3.54
  -1  15  10   63.29    5.04
  -1  15   9  258.77   12.45
  -1  15   9  222.78    8.82
  -1  15   9  225.32    9.38
  -1  15   9  287.23   14.96
  -1  15   8   66.84    3.21
  -1  15   8   57.24    2.78
  -1  15   8   86.15    5.36
  -1  15   8   73.75    4.81
  -1  15   7   94.47    5.64
  -1  15   7   82.02    4.31
  -1  15   7   75.75    3.97
  -1  15   6   45.18    3.60
  -1  15   6   31.94    3.16
  -1  15   6   49.35    3.47
  -1  15   5  165.94    8.18
  -1  15   5  150.07    9.03
  -1  15   5  154.95    8.92
  -1  15   4   65.05    5.01
  -1  15   4   69.94    4.92
  -1  15   4   65.34    3.45
  -1  15   3   38.96    4.11
  -1  15   3   38.78    3.19
  -1  15   2    1.86    1.21
  -1  15   2    4.65    1.31
  -1  15   1    5.68    1.51
  -1  15   1    5.58    2.20
  -1  15   0   14.76    2.29
  -1  15   0   15.46    2.54
  -1  15  -1   21.19    3.60
  -1  15  -1   17.92    4.07
  -1  15  -2   39.47    4.54
  -1  15  -2   31.98    5.23
  -1  14  18   -0.72    1.88
  -1  14  18    3.75    2.39
  -1  14  17    7.27    2.70
  -1  14  17    7.71    2.59
  -1  14  16   37.02    4.80
  -1  14  16   35.34    5.77
  -1  14  15  167.57   12.07
  -1  14  15  201.34   15.78
  -1  14  14    0.91    1.04
  -1  14  14   -0.70    1.11
  -1  14  13    5.13    1.45
  -1  14  13    6.84    2.43
  -1  14  13    5.71    1.69
  -1  14  12   17.07    2.21
  -1  14  12   15.76    2.11
  -1  14  12   17.28    2.49
  -1  14  11   65.54    4.08
  -1  14  11   56.11    3.99
  -1  14  11   70.64    5.91
  -1  14  10  145.64    8.84
  -1  14  10  112.89    5.35
  -1  14  10  127.02    6.86
  -1  14   9    2.00    0.55
  -1  14   9    2.69    1.08
  -1  14   9    2.19    0.89
  -1  14   9    3.56    1.08
  -1  14   8   67.05    4.19
  -1  14   8   59.62    2.80
  -1  14   8   72.22    4.63
  -1  14   8   58.76    3.04
  -1  14   7   32.64    2.89
  -1  14   7   41.31    2.65
  -1  14   7   38.29    2.46
  -1  14   6   21.87    1.43
  -1  14   6   27.22    2.57
  -1  14   6   35.69    2.59
  -1  14   6   25.72    2.17
  -1  14   5   94.65    5.38
  -1  14   5  101.96    5.91
  -1  14   5   99.47    5.35
  -1  14   4   45.67    2.75
  -1  14   4   35.80    3.38
  -1  14   4   43.99    3.55
  -1  14   3   27.96    2.79
  -1  14   3   24.62    2.16
  -1  14   3   21.95    1.88
  -1  14   2   13.79    2.14
  -1  14   2   10.65    2.02
  -1  14   2    9.52    0.98
  -1  14   1   56.05    5.11
  -1  14   1   55.29    4.96
  -1  14   0   37.29    4.16
  -1  14   0   41.16    4.60
  -1  14  -1    4.16    2.04
  -1  14  -1    5.65    1.68
  -1  14  -2   11.90    2.95
  -1  14  -2   13.76    3.31
  -1  14  -3    5.21    2.67
  -1  14  -3    4.09    2.32
  -1  14  -4   58.39    7.39
  -1  14  -4   73.10    8.56
  -1  13  18   68.95    6.09
  -1  13  17   20.40    2.97
  -1  13  16    9.36    2.63
  -1  13  16   11.84    2.13
  -1  13  15   16.04    2.90
  -1  13  15   14.63    3.71
  -1  13  14  501.25   27.83
  -1  13  14  439.39   25.23
  -1  13  13   59.04    6.07
  -1  13  13   56.95    4.49
  -1  13  12   26.69    3.00
  -1  13  12   33.94    4.00
  -1  13  11    1.82    1.03
  -1  13  11    3.36    1.45
  -1  13  11    1.13    1.02
  -1  13  10  111.73    5.76
  -1  13  10  104.45    5.41
  -1  13  10  127.79    7.61
  -1  13   9    7.96    1.24
  -1  13   9    7.63    1.41
  -1  13   9   12.32    1.86
  -1  13   9    7.90    0.66
  -1  13   8    4.02    1.14
  -1  13   8    4.53    0.84
  -1  13   8    3.46    0.63
  -1  13   8    3.09    1.41
  -1  13   7   16.65    1.98
  -1  13   7   21.45    2.22
  -1  13   7   18.39    1.16
  -1  13   6   13.43    1.69
  -1  13   6   11.53    1.38
  -1  13   6    8.56    0.85
  -1  13   6   11.98    1.67
  -1  13   5    1.60    0.42
  -1  13   5    3.10    1.00
  -1  13   5    2.71    0.84
  -1  13   5    2.54    0.92
  -1  13   4  103.10    5.15
  -1  13   4   99.78    4.22
  -1  13   4   83.11    2.81
  -1  13   4  101.96    5.50
  -1  13   3    4.53    0.85
  -1  13   3    4.08    0.96
  -1  13   3    2.14    0.37
  -1  13   3    3.25    1.19
  -1  13   2  113.22    6.52
  -1  13   2  113.72    4.27
  -1  13   2  112.51    6.81
  -1  13   1   20.47    1.34
  -1  13   1   28.35    2.15
  -1  13   1   30.86    3.00
  -1  13   0    6.08    1.43
  -1  13   0    6.46    1.73
  -1  13  -1  105.76    7.33
  -1  13  -2  285.35   17.41
   1 -13   3  162.18   10.41
  -1  13  -3  152.92   11.19
   1 -13   4   60.94    5.53
  -1  13  -4   60.04    6.39
  -1  13  -5   39.74    5.49
  -1  12  19   18.21    3.47
  -1  12  19   23.21    5.37
  -1  12  18  137.86   10.16
  -1  12  18  155.09   14.77
  -1  12  17    2.39    1.90
  -1  12  16   11.07    2.79
  -1  12  15    4.28    1.87
  -1  12  14  443.38   25.22
  -1  12  14  493.39   27.11
   1 -12 -13   64.10    4.63
  -1  12  13  101.30    5.82
  -1  12  13   96.26    5.69
   1 -12 -12    1.00    1.05
  -1  12  12    3.82    1.17
  -1  12  12    4.87    1.66
   1 -12 -11  332.47   14.42
  -1  12  11  321.08   14.95
  -1  12  11  358.00   16.72
  -1  12  10    4.77    1.11
  -1  12  10    5.58    0.88
  -1  12  10    5.64    1.56
  -1  12  10    3.40    0.43
  -1  12   9    1.89    0.38
  -1  12   9    3.38    0.75
  -1  12   9    2.60    0.99
  -1  12   9    3.17    1.27
  -1  12   8  414.14   18.59
  -1  12   8  346.52   12.82
  -1  12   8  336.19   11.22
  -1  12   8  394.88   16.11
  -1  12   7  158.04    5.31
  -1  12   7  184.83    7.92
  -1  12   7  154.18    5.41
  -1  12   7  188.93    8.65
  -1  12   6    9.75    1.42
  -1  12   6    7.56    0.94
  -1  12   6    9.30    0.75
  -1  12   6   13.01    1.50
  -1  12   5  103.72    4.57
  -1  12   5  112.14    5.20
  -1  12   5  114.09    5.41
  -1  12   5   95.18    3.06
  -1  12   4  323.44   13.07
  -1  12   4  315.10   13.63
  -1  12   4  277.62    8.64
  -1  12   4  323.18   12.04
  -1  12   3  129.96    6.04
  -1  12   3  133.48    5.46
  -1  12   3  107.46    3.18
  -1  12   3  114.15    4.46
  -1  12   2  242.02   10.00
  -1  12   2  223.10    6.75
  -1  12   2  259.08    9.26
  -1  12   2  275.38   12.49
   1 -12  -1  294.56   12.20
  -1  12   1  291.49    9.71
  -1  12   1  236.53    7.10
  -1  12   1  294.19   13.66
   1 -12   0   67.38    3.81
  -1  12   0   76.42    3.71
   1 -12   1    2.29    1.03
  -1  12  -1    1.75    0.41
  -1  12  -1    5.07    1.27
   1 -12   2   17.24    2.79
  -1  12  -2   16.81    1.99
   1 -12   3   11.81    2.78
  -1  12  -3   11.74    1.88
   1 -12   4   33.23    4.42
  -1  12  -4   31.26    3.13
   1 -12   5  370.25   22.49
   1 -12   6   43.62    6.25
   1 -12   7   10.83    2.85
  -1  11  19    7.33    2.58
  -1  11  19    9.08    2.82
  -1  11  18  103.18    8.00
  -1  11  18  107.76   11.45
  -1  11  17   32.67    4.81
  -1  11  17   33.01    5.45
  -1  11  16   37.54    5.02
  -1  11  16   47.70    5.87
  -1  11  15   19.09    3.06
   1 -11 -14  180.98    8.98
  -1  11  14  183.75    9.22
   1 -11 -13   90.37    5.42
  -1  11  13  133.66    6.55
   1 -11 -12  170.35    7.82
  -1  11  12  175.20    8.96
  -1  11  12  189.28   11.28
   1 -11 -11   13.15    1.64
  -1  11  11   15.36    2.44
  -1  11  11   15.14    1.82
   1 -11 -10   21.30    1.82
  -1  11  10   15.95    2.64
  -1  11  10   20.03    1.90
   1 -11  -9    1.73    0.79
  -1  11   9    2.36    1.12
  -1  11   9    1.27    0.27
  -1  11   9    2.76    0.78
  -1  11   8  248.53    9.72
  -1  11   8  236.33    8.82
  -1  11   8  201.37    5.87
  -1  11   8  248.05    9.62
  -1  11   7    4.30    1.13
  -1  11   7    5.27    0.95
  -1  11   7    2.83    0.49
  -1  11   7    3.62    0.63
  -1  11   6    1.22    0.58
  -1  11   6    4.45    0.56
  -1  11   6    1.95    0.99
  -1  11   6    2.05    0.92
  -1  11   5  237.93    8.47
  -1  11   5  216.13    6.61
  -1  11   5  248.07    9.78
  -1  11   5  252.81    9.93
  -1  11   4  375.26   13.97
  -1  11   4  364.39   14.20
  -1  11   4  357.24   13.52
  -1  11   4  339.07   10.90
  -1  11   3    4.35    0.42
  -1  11   3    5.45    1.18
  -1  11   3    7.02    0.84
  -1  11   3    5.22    0.92
   1 -11  -2  490.55   20.87
  -1  11   2  441.64   14.04
  -1  11   2  477.52   17.13
  -1  11   2  504.02   21.60
   1 -11  -1  520.21   22.36
  -1  11   1  500.14   20.00
  -1  11   1  421.68   12.80
  -1  11   1  506.14   17.38
   1 -11   0   58.10    4.40
  -1  11   0   54.74    2.08
  -1  11   0   59.27    1.88
  -1  11   0   77.55    4.51
   1 -11   1  470.00   22.28
  -1  11  -1  409.32   13.24
  -1  11  -1  455.53   20.80
   1 -11   2   66.55    4.83
  -1  11  -2   63.34    3.47
   1 -11   3    9.61    1.60
  -1  11  -3    7.67    0.58
  -1  11  -3   10.17    1.88
   1 -11   4  384.89   20.33
   1 -11   5  402.30   25.23
   1 -11   6  134.34    9.00
   1 -11   7    0.14    1.55
   1 -11   8   61.34    7.96
  -1  11  -8   64.12    7.29
  -1  10  19    4.54    2.25
  -1  10  19    5.65    2.35
  -1  10  18    4.58    2.82
  -1  10  18    5.39    2.01
  -1  10  17    8.52    3.12
  -1  10  17   10.33    2.23
  -1  10  16   43.28    5.01
  -1  10  16   43.82    5.49
   1 -10 -15    3.24    1.28
  -1  10  15    4.56    1.73
  -1  10  15    2.27    1.98
   1 -10 -14   62.80    4.11
  -1  10  14   65.18    4.28
  -1  10  14   78.87    4.88
   1 -10 -13    5.47    1.28
  -1  10  13    5.84    1.63
   1 -10 -12  129.54    5.91
  -1  10  12  130.77    7.02
   1 -10 -11  256.64   10.50
  -1  10  11  279.33   14.17
  -1  10  11  261.74   11.76
   1 -10 -10  179.37    7.35
  -1  10  10  189.75    7.97
  -1  10  10  176.48    6.68
   1 -10  -9  363.48   13.82
  -1  10   9  394.27   17.36
  -1  10   9  319.72    8.52
  -1  10   9  390.64   14.86
   1 -10  -8   84.86    3.53
  -1  10   8   68.98    1.76
  -1  10   8   84.90    4.53
  -1  10   8   79.76    3.03
  -1  10   7    5.38    0.48
  -1  10   7    3.99    0.85
  -1  10   7    6.97    1.06
  -1  10   7    6.60    1.29
  -1  10   6  225.10    7.28
  -1  10   6  240.45    8.90
  -1  10   6  230.90    9.26
  -1  10   6  217.36    6.52
  -1  10   5   22.22    1.68
  -1  10   5   17.93    0.98
  -1  10   5   23.62    1.23
  -1  10   5   21.82    1.74
  -1  10   4   81.67    3.73
  -1  10   4   88.92    3.65
  -1  10   4   78.82    3.12
  -1  10   4   76.86    2.19
  -1  10   3   48.06    2.34
  -1  10   3   56.26    2.49
   1 -10  -2 1169.88   54.04
  -1  10   2 1139.45   49.53
  -1  10   2 1087.41   41.96
  -1  10   2 1190.12   56.60
   1 -10  -1  895.98   39.81
  -1  10   1  771.58   27.27
  -1  10   1  871.25   37.20
  -1  10   1  882.74   33.49
   1 -10   0   11.27    1.13
  -1  10   0    9.55    0.81
  -1  10   0    6.92    0.46
  -1  10   0    8.83    1.53
   1 -10   1  476.24   19.69
  -1  10  -1  453.21   14.41
  -1  10  -1  496.66   21.13
   1 -10   2  108.78    5.19
  -1  10  -2   76.74    2.22
   1 -10   3   20.96    2.14
  -1  10  -3   10.57    0.62
   1 -10   4    5.26    1.48
  -1  10  -4    2.25    0.39
   1 -10   5    4.93    1.48
   1 -10   6   49.78    5.58
  -1  10  -6   57.39    4.99
   1 -10   7   14.03    2.22
  -1  10  -7    7.29    1.98
   1 -10   8    7.77    2.31
  -1  10  -8   11.30    2.68
   1 -10   9   29.81    4.25
  -1  10  -9   35.43    5.06
  -1   9  19    2.82    2.71
  -1   9  18   13.18    3.67
  -1   9  18   14.37    2.96
  -1   9  17   12.12    3.15
  -1   9  17    8.58    2.93
   1  -9 -16   10.38    2.05
  -1   9  16   12.63    3.06
  -1   9  16   13.24    2.18
   1  -9 -15  100.73    6.27
  -1   9  15  129.15    8.31
  -1   9  15  128.91    8.87
   1  -9 -14   21.84    2.43
  -1   9  14   29.47    3.31
  -1   9  14   32.48    3.60
   1  -9 -13   19.35    2.01
  -1   9  13   17.90    2.02
  -1   9  13   23.17    2.21
   1  -9 -12  116.84    5.49
  -1   9  12  128.21    6.72
   1  -9 -11   68.85    3.18
  -1   9  11   54.98    2.87
   1  -9 -10   21.25    1.47
  -1   9  10   22.81    1.90
   1  -9  -9  133.57    5.22
  -1   9   9  140.10    6.69
  -1   9   9  130.95    5.30
   1  -9  -8    3.01    0.80
  -1   9   8    3.44    0.78
  -1   9   8    5.14    1.13
   1  -9  -7  160.62    5.69
  -1   9   7  155.07    4.00
  -1   9   7  156.64    5.24
  -1   9   7  176.44    7.08
  -1   9   6    7.20    0.78
  -1   9   6    9.13    0.52
  -1   9   6    7.35    1.18
  -1   9   6    5.38    0.81
  -1   9   5  365.05   11.26
  -1   9   5  366.31   10.92
  -1   9   5  399.74   14.54
  -1   9   5  390.82   13.83
  -1   9   4  192.78    6.94
  -1   9   4  197.72    6.24
  -1   9   4  189.40    5.04
  -1   9   4  210.60    7.37
   1  -9  -3  183.89    6.13
  -1   9   3  212.94    6.57
  -1   9   3  150.85    5.75
  -1   9   3  174.70    4.67
   1  -9  -2   53.86    2.52
  -1   9   2   68.92    2.65
  -1   9   2   53.82    2.13
   1  -9  -1  676.59   25.45
  -1   9   1  642.97   20.18
  -1   9   1  678.16   27.57
  -1   9   1  699.29   24.20
   1  -9   0  135.82    3.16
   1  -9   0  144.17    5.97
  -1   9   0  162.38    5.47
  -1   9   0  130.11    3.76
   1  -9   1  216.60    5.76
   1  -9   1  239.28    9.93
  -1   9  -1  203.20    5.76
   1  -9   2   58.93    2.79
  -1   9  -2   47.79    1.48
   1  -9   3  188.65    7.99
  -1   9  -3  180.03    4.81
   1  -9   4  202.80    8.66
  -1   9  -4  177.81    4.96
   1  -9   5  277.06   14.90
  -1   9  -5  270.95   13.79
   1  -9   6   22.95    2.28
  -1   9  -6   23.67    2.63
  -1   9  -6   16.80    0.87
   1  -9   7   21.35    2.93
  -1   9  -7    9.62    1.98
   1  -9   8  163.00   11.62
  -1   9  -8  139.50    8.08
  -1   9  -9    1.93    1.36
  -1   9 -10    0.65    1.68
  -1   8  19   18.67    3.68
  -1   8  18  226.84   18.32
   1  -8 -17  141.89    9.12
  -1   8  17  166.37   12.88
   1  -8 -16  285.35   15.21
  -1   8  16  324.13   20.78
   1  -8 -15  191.22    9.87
  -1   8  15  200.67   12.22
  -1   8  15  199.71   11.21
   1  -8 -14  132.25    7.05
  -1   8  14  144.69    7.53
  -1   8  14  154.18    8.08
   1  -8 -13  174.98    8.06
  -1   8  13  194.60    8.72
  -1   8  13  196.17   10.96
   1  -8 -12   10.27    1.31
  -1   8  12    8.33    1.63
  -1   8  12    6.89    1.43
   1  -8 -11    2.34    0.78
  -1   8  11    0.26    0.92
  -1   8  11    1.16    0.82
   1  -8 -10  332.41   11.88
  -1   8  10  317.15   11.49
   1  -8  -9    2.72    0.76
  -1   8   9    2.88    0.82
   1  -8  -8  176.86    6.15
  -1   8   8  189.52    6.30
  -1   8   8  163.48    3.09
   1  -8  -7   13.81    1.33
  -1   8   7   18.43    0.58
  -1   8   7   17.59    1.19
  -1   8   7   18.15    0.56
   1  -8  -6   24.80    1.52
  -1   8   6   32.81    1.90
  -1   8   6   22.94    0.73
  -1   8   6   26.26    1.29
  -1   8   5   65.89    2.34
  -1   8   5   61.13    2.55
  -1   8   5   59.68    1.91
  -1   8   5   56.53    1.58
  -1   8   4  589.82   21.69
  -1   8   4  601.32   21.75
  -1   8   4  570.05   17.48
   1  -8  -3  372.18   11.19
  -1   8   3  374.61   12.43
  -1   8   3  351.56   11.22
  -1   8   3  361.36    9.26
   1  -8  -2  112.53    3.70
  -1   8   2   96.53    2.22
  -1   8   2  127.40    4.24
  -1   8   2  108.99    3.52
  -1   8   2  110.26    2.55
   1  -8  -1  363.35   12.21
  -1   8   1  328.97    8.31
  -1   8   1  338.34   10.01
  -1   8   1  352.57   12.23
   1  -8   0  242.46    5.57
   1  -8   0  274.60    9.66
  -1   8   0  284.25    7.64
  -1   8   0  248.30    5.62
   1  -8   1   88.02    1.99
   1  -8   1   91.12    4.04
  -1   8  -1   84.52    2.28
   1  -8   2  564.82   22.86
   1  -8   2  520.75   15.74
  -1   8  -2  515.24   15.58
   1  -8   3  113.41    4.81
   1  -8   3  109.45    2.99
  -1   8  -3  115.23    3.00
   1  -8   4  677.84   30.83
  -1   8  -4  654.84   27.18
  -1   8  -4  612.72   20.24
   1  -8   5   55.36    4.26
  -1   8  -5   60.37    3.64
   1  -8   6   13.95    2.11
  -1   8  -6   13.56    1.51
  -1   8  -6   10.22    0.71
   1  -8   7    9.58    1.55
  -1   8  -7    5.22    0.73
  -1   8  -7    7.19    1.79
   1  -8   8  118.65    7.20
  -1   8  -8  115.44    7.59
  -1   8  -9  105.81    7.73
  -1   8 -10   88.15    7.70
   1  -8  11  109.39   10.27
  -1   8 -11   98.67    7.43
  -1   7  19  119.65   12.99
  -1   7  19  137.44   11.01
  -1   7  18    2.53    1.62
  -1   7  18    2.11    1.65
   1  -7 -17   95.13    6.46
  -1   7  17   88.39    7.05
   1  -7 -16  525.25   27.67
  -1   7  16  587.87   35.82
   1  -7 -15  114.33    6.65
  -1   7  15  122.93    7.23
   1  -7 -14  511.95   23.88
  -1   7  14  557.99   27.36
   1  -7 -13   25.96    2.12
  -1   7  13   24.81    2.31
   1  -7 -12  134.13    5.98
  -1   7  12  156.66    8.06
  -1   7  12  149.09    7.51
   1  -7 -11  903.07   39.25
  -1   7  11  908.88   40.22
  -1   7  11  940.67   43.44
   1  -7 -10 1037.79   45.37
  -1   7  10 1080.52   52.57
  -1   7  10 1062.11   49.24
   1  -7  -9   28.33    1.81
  -1   7   9   35.61    1.96
  -1   7   9   36.97    2.05
   1  -7  -8 1274.69   56.50
  -1   7   8 1311.66   58.88
   1  -7  -7  161.06    5.29
  -1   7   7  166.85    5.29
  -1   7   7  159.02    2.85
   1  -7  -6  937.22   36.17
  -1   7   6  818.92   25.48
  -1   7   6  930.85   29.00
  -1   7   6  887.86   33.13
  -1   7   6  948.36   38.12
   1  -7  -5  146.64    4.63
  -1   7   5  142.75    3.76
  -1   7   5  147.02    4.49
  -1   7   5  152.47    3.32
  -1   7   4 1382.21   60.60
  -1   7   4 1399.54   61.58
  -1   7   4 1348.06   53.20
   1  -7  -3  285.69    7.69
  -1   7   3  274.23    8.06
  -1   7   3  271.80    6.42
  -1   7   3  291.72    8.89
  -1   7   3  294.51    6.97
   1  -7  -2   12.92    0.91
  -1   7   2   12.93    0.49
  -1   7   2   14.32    1.09
  -1   7   2   14.78    0.53
  -1   7   2   12.68    0.82
   1  -7  -1   11.85    1.03
  -1   7   1   11.58    0.45
  -1   7   1   12.98    0.74
  -1   7   1   13.27    0.47
   1  -7   0  640.36   18.60
   1  -7   0  663.31   23.53
  -1   7   0  716.58   20.42
  -1   7   0  704.85   22.40
   1  -7   1  707.63   25.33
   1  -7   1  683.37   19.64
  -1   7  -1  688.67   21.63
  -1   7  -1  647.95   18.16
   1  -7   2  702.14   21.52
   1  -7   2  747.93   29.83
  -1   7  -2  702.03   22.33
   1  -7   3  436.90   12.78
   1  -7   3  445.21   16.24
  -1   7  -3  424.67   11.95
  -1   7  -3  434.59   15.41
   1  -7   4   73.14    3.68
   1  -7   4   58.96    1.82
  -1   7  -4   60.03    1.71
  -1   7  -4   63.87    2.75
   1  -7   5  383.15   15.23
   1  -7   5  347.98   11.14
  -1   7  -5  394.90   15.01
  -1   7  -5  374.07   11.34
   1  -7   6   87.29    4.81
   1  -7   6   58.14    2.44
  -1   7  -6   81.32    4.30
   1  -7   7   27.72    2.91
  -1   7  -7   25.12    2.01
  -1   7  -7   22.14    1.07
  -1   7  -8  320.33   13.73
  -1   7  -8  260.77    8.83
  -1   7  -9    7.30    0.79
  -1   7  -9    7.98    1.56
   1  -7  10  163.15    9.76
  -1   7 -10  158.77    9.00
   1  -7  11   70.87    6.92
  -1   7 -11   63.16    5.08
   1  -7  12   22.62    3.39
  -1   7 -12   21.89    3.15
  -1   6  19   42.59    7.14
  -1   6  19   53.73    5.67
   1  -6 -18   45.17    4.60
  -1   6  18   35.98    4.81
  -1   6  18   56.11    6.19
   1  -6 -17  138.08    9.09
  -1   6  17  156.97   10.26
  -1   6  17  152.62   11.80
   1  -6 -16  283.57   15.22
  -1   6  16  300.50   16.35
  -1   6  16  310.11   19.17
   1  -6 -15  779.23   38.40
  -1   6  15  861.34   47.31
  -1   6  15  681.60   38.50
   1  -6 -14   82.40    3.45
  -1   6  14   29.03    2.18
   1  -6 -13  551.68   18.36
  -1   6  13  309.34    7.01
  -1   6  12   88.88    3.38
   1  -6 -11   49.83    2.54
  -1   6  11   47.13    2.69
   1  -6 -10    3.54    0.83
  -1   6  10    5.45    0.89
   1  -6  -9  356.32   12.26
  -1   6   9  362.38   12.23
  -1   6   9  383.96   14.75
   1  -6  -8  216.62    6.92
  -1   6   8  209.77    6.40
  -1   6   8  230.16    8.48
   1  -6  -7 3046.47  180.01
  -1   6   7 3027.26  179.72
   1  -6  -6   21.18    1.08
  -1   6   6   15.27    1.11
   1  -6  -5 3762.35  245.35
  -1   6   5 3973.08  250.64
  -1   6   5 3862.79  228.46
  -1   6   5 3983.39  235.06
   1  -6  -4  302.36    8.84
  -1   6   4  299.00    9.18
  -1   6   4  309.22    7.13
  -1   6   4  289.66    7.36
   1  -6  -3   18.09    0.71
  -1   6   3   17.58    1.07
  -1   6   3   14.88    0.55
  -1   6   3   19.50    0.55
  -1   6   3   14.82    0.80
   1  -6  -2   26.55    0.95
  -1   6   2   20.11    0.58
  -1   6   2   24.44    1.11
  -1   6   2   20.77    0.60
   1  -6  -1  349.31   10.25
  -1   6   1  346.57    7.79
  -1   6   1  340.10    9.54
  -1   6   1  360.93    8.04
   1  -6   0  206.72    6.27
   1  -6   0  198.12    4.05
  -1   6   0  200.73    5.17
  -1   6   0  208.09    4.19
   1  -6   1  316.46    7.37
   1  -6   1  329.03   10.70
  -1   6  -1  332.73    8.50
  -1   6  -1  310.88    6.70
   1  -6   2  154.04    3.29
   1  -6   2  147.61    4.76
  -1   6  -2  176.54    5.21
  -1   6  -2  160.32    3.47
  -1   6  -2  156.40    3.60
   1  -6   3  214.30    5.19
   1  -6   3  221.23    7.25
  -1   6  -3  216.29    5.16
  -1   6  -3  219.41    6.88
   1  -6   4   78.24    2.13
   1  -6   4   83.14    3.94
  -1   6  -4   82.50    3.62
  -1   6  -4   79.73    2.16
   1  -6   5   15.38    0.85
   1  -6   5   16.42    1.38
  -1   6  -5   14.90    0.69
  -1   6  -5   14.08    1.60
   1  -6   6   60.54    2.48
   1  -6   6   65.84    3.24
  -1   6  -6   65.33    3.05
  -1   6  -6   58.76    1.86
   1  -6   7   24.85    1.46
  -1   6  -7   30.05    2.47
   1  -6   8  142.62    5.27
  -1   6  -8  129.77    4.66
  -1   6  -8  147.44    6.30
   1  -6   9  105.19    4.89
  -1   6  -9   91.25    3.75
  -1   6  -9  111.53    5.49
   1  -6  10   60.62    5.06
  -1   6 -10   45.19    2.52
  -1   6 -10   60.65    3.65
   1  -6  11   15.56    2.25
  -1   6 -11    9.86    1.43
  -1   6 -11   16.28    2.15
   1  -6  12    3.07    2.13
  -1   6 -12    3.46    1.49
   1  -6  13    3.32    2.09
  -1   6 -13    1.36    2.05
   1  -5 -19    2.83    1.92
  -1   5  19    3.23    1.86
  -1   5  19    1.27    2.59
   1  -5 -18    3.43    1.91
  -1   5  18    3.03    1.91
  -1   5  18    5.31    2.35
   1  -5 -17   57.93    3.94
  -1   5  17   52.79    5.00
  -1   5  17   49.81    4.63
   1  -5 -16  242.55   13.15
  -1   5  16  256.77   14.11
   1  -5 -15   45.97    4.67
   1  -5 -15   44.35    3.86
  -1   5  15   56.31    3.93
   1  -5 -14   37.26    2.40
   1  -5 -14   35.65    2.90
  -1   5  14   45.68    3.10
   1  -5 -13  721.44   34.32
   1  -5 -13  689.67   30.27
  -1   5  13  739.82   35.37
  -1   5  13  596.81   19.33
   1  -5 -12   10.46    1.21
  -1   5  12    7.02    0.35
  -1   5  12    8.34    1.60
   1  -5 -11   43.39    2.10
  -1   5  11   30.59    0.79
   1  -5 -10   16.71    1.19
   1  -5 -10   13.43    1.26
   1  -5  -9  545.89   19.22
   1  -5  -9  549.58   19.90
   1  -5  -8   31.54    1.59
  -1   5   8   37.09    1.64
   1  -5  -7    7.88    0.86
  -1   5   7    9.95    0.86
  -1   5   7   12.29    0.98
   1  -5  -6 1028.12   38.31
  -1   5   6 1013.99   40.01
  -1   5   6  999.34   36.44
   1  -5  -5  109.20    3.00
  -1   5   5  105.53    1.61
  -1   5   5  109.85    2.80
  -1   5   5   99.82    1.50
   1  -5  -4 1050.53   38.62
  -1   5   4 1050.61   32.85
  -1   5   4  991.65   30.91
  -1   5   4 1049.92   36.04
   1  -5  -3  129.78    2.38
   1  -5  -3  123.49    3.25
   1  -5  -3  126.01    2.39
  -1   5   3  120.45    2.32
  -1   5   3  132.37    2.54
   1  -5  -2 1613.14   64.22
  -1   5   2 1483.69   62.49
  -1   5   2 1612.57   60.40
  -1   5   2 1525.39   56.59
   1  -5  -1 1006.38   34.91
  -1   5   1  961.34   28.48
  -1   5   1  992.45   29.94
  -1   5   1  983.98   34.11
   1  -5   0  518.40   15.42
   1  -5   0  537.55   13.03
  -1   5   0  563.65   15.75
  -1   5   0  567.23   13.57
   1  -5   1    4.33    0.50
  -1   5  -1    3.51    0.35
  -1   5  -1    3.75    0.26
  -1   5  -1    4.26    0.59
   1  -5   2 2540.79  139.31
   1  -5   2 2445.15  119.09
  -1   5  -2 2619.16  141.82
  -1   5  -2 2681.82  129.49
  -1   5  -2 2549.67  126.20
   1  -5   3    2.83    0.34
   1  -5   3    3.58    0.81
  -1   5  -3    3.08    0.53
  -1   5  -3    4.07    0.33
   1  -5   4  285.12    9.43
   1  -5   4  275.59    7.59
  -1   5  -4  307.74    9.39
  -1   5  -4  305.01    7.62
   1  -5   5  219.56    6.44
   1  -5   5  228.86    8.01
  -1   5  -5  242.45    6.25
  -1   5  -5  259.27    9.16
   1  -5   6   79.26    2.55
   1  -5   6   81.91    3.42
  -1   5  -6   79.55    3.76
  -1   5  -6   75.36    2.17
   1  -5   7   22.88    1.46
  -1   5  -7   21.60    1.57
  -1   5  -7   22.23    0.99
   1  -5   8   50.07    2.58
  -1   5  -8   41.50    1.71
  -1   5  -8   50.35    3.26
   1  -5   9   51.44    3.32
   1  -5   9   70.76    4.73
  -1   5  -9   64.79    4.28
   1  -5  10    5.58    1.41
   1  -5  10    7.55    1.45
  -1   5 -10    6.04    1.00
  -1   5 -10    7.61    1.74
   1  -5  11   40.02    3.59
   1  -5  11   60.91    4.87
  -1   5 -11   40.77    2.65
  -1   5 -11   55.64    4.50
   1  -5  12  181.30   11.60
  -1   5 -12  173.80   10.69
  -1   5 -12  132.51    6.70
   1  -5  13  118.91   10.24
  -1   5 -13  123.82    7.73
   1  -5  14   49.79    5.06
  -1   5 -14   58.65    6.80
   1  -4 -19  100.34   10.25
  -1   4  19  150.27   13.41
  -1   4  19  133.44   11.69
   1  -4 -18    6.14    2.36
  -1   4  18    9.33    3.08
  -1   4  18    6.63    2.09
   1  -4 -17   13.60    2.65
  -1   4  17   14.63    3.52
   1  -4 -16   51.89    3.17
   1  -4 -16   47.51    4.60
  -1   4  16   36.50    1.86
  -1   4  16   53.18    5.32
   1  -4 -15  707.15   35.55
   1  -4 -15  740.52   36.29
  -1   4  15  622.62   24.76
  -1   4  15  768.43   42.67
   1  -4 -14  145.45    8.22
   1  -4 -14  144.71    7.15
  -1   4  14  154.99    9.14
  -1   4  14  121.81    4.07
   1  -4 -13  858.93   43.06
   1  -4 -13  854.02   39.90
  -1   4  13  901.54   45.44
  -1   4  13  784.95   28.97
   1  -4 -12   52.04    2.32
   1  -4 -12   54.86    2.75
  -1   4  12   49.62    3.64
   1  -4 -11  260.07    8.51
  -1   4  11  243.54    6.09
  -1   4  11  270.70   10.08
   1  -4 -10  126.78    4.78
   1  -4 -10  117.41    2.58
  -1   4  10  125.96    2.88
  -1   4  10  139.61    5.02
   1  -4  -9  246.90    8.00
   1  -4  -9  242.15    5.17
  -1   4   9  230.37    4.94
  -1   4   9  251.71    9.10
   1  -4  -8  329.47   10.12
   1  -4  -8  314.81    6.30
   1  -4  -8  318.45   10.13
  -1   4   8  307.54    6.31
   1  -4  -7   50.61    1.78
   1  -4  -7   45.63    0.59
   1  -4  -7   46.12    1.68
   1  -4  -6  115.59    3.20
  -1   4   6  124.27    3.81
   1  -4  -5  258.65    6.74
  -1   4   5  271.36    6.89
   1  -4  -4  338.26    8.72
   1  -4  -4  355.97    8.50
  -1   4   4  344.69    9.37
  -1   4   4  343.89    8.34
  -1   4   4  327.92    5.83
  -1   4   4  319.52    5.84
   1  -4  -3  743.14   20.65
   1  -4  -3  698.64   21.10
   1  -4  -3  696.76   18.11
  -1   4   3  683.89   18.97
  -1   4   3  765.79   20.05
   1  -4  -2  194.06    4.39
   1  -4  -2  192.46    3.34
   1  -4  -2  177.78    3.99
   1  -4  -2  178.83    3.53
  -1   4   2  186.87    3.31
  -1   4   2  192.27    3.72
   1  -4  -1  244.61    5.69
   1  -4  -1  265.13    6.09
  -1   4   1  244.92    5.91
  -1   4   1  276.99    6.14
  -1   4   1  263.07    4.68
   1  -4   0 1228.72   45.59
   1  -4   0 1242.71   39.41
   1  -4   0 1269.28   45.03
  -1   4   0 1247.90   46.86
  -1   4   0 1246.54   39.22
  -1   4   0 1199.18   42.93
   1  -4   1  247.68    6.59
   1  -4   1  245.35    5.53
   1  -4   1  233.80    4.35
  -1   4  -1  270.03    6.81
  -1   4  -1  235.54    5.29
  -1   4  -1  252.25    4.77
   1  -4   2  525.68   13.49
   1  -4   2  549.02   17.42
  -1   4  -2  584.64   15.05
  -1   4  -2  550.67   17.05
  -1   4  -2  529.05   14.08
   1  -4   3    5.79    0.62
   1  -4   3    4.76    0.37
  -1   4  -3    3.97    0.71
  -1   4  -3    6.67    0.36
  -1   4  -3    4.67    0.34
   1  -4   4   86.57    3.44
   1  -4   4   83.53    2.08
  -1   4  -4   86.25    2.56
  -1   4  -4   82.24    1.92
   1  -4   5   98.92    2.96
   1  -4   5  107.71    4.27
  -1   4  -5  105.68    2.59
  -1   4  -5  107.92    3.93
   1  -4   6   44.18    1.83
  -1   4  -6   42.41    1.50
   1  -4   7   19.26    1.26
  -1   4  -7   15.29    1.53
  -1   4  -7   13.64    0.94
   1  -4   8   12.72    1.30
  -1   4  -8   12.56    1.24
  -1   4  -8   13.66    0.99
   1  -4   9  401.65   16.16
  -1   4  -9  426.73   16.87
  -1   4  -9  386.26   13.94
   1  -4  10   42.28    2.81
   1  -4  10   45.19    3.65
  -1   4 -10   34.19    2.18
  -1   4 -10   46.08    3.36
   1  -4  11  133.45    8.18
   1  -4  11  126.64    6.89
  -1   4 -11  130.44    6.21
  -1   4 -11  111.18    5.27
   1  -4  12   22.67    2.54
   1  -4  12   22.04    2.42
  -1   4 -12   21.75    2.32
  -1   4 -12   15.76    1.91
   1  -4  13    6.89    1.50
   1  -4  13    6.59    1.82
  -1   4 -13    7.08    1.42
  -1   4 -13    8.42    2.26
   1  -4  14    3.25    1.53
  -1   4 -14    1.84    1.98
  -1   4 -14    2.96    1.31
   1  -4  15   12.36    2.41
  -1   4 -15    9.96    2.45
   1  -3 -19  372.86   27.02
  -1   3  19  369.04   24.81
  -1   3  19  399.19   31.91
   1  -3 -18    1.65    1.48
  -1   3  18    3.65    2.33
  -1   3  18    3.75    1.57
   1  -3 -17   12.94    2.87
   1  -3 -17   12.19    2.11
  -1   3  17   16.46    3.41
   1  -3 -16  100.07    4.99
   1  -3 -16   94.84    6.45
  -1   3  16   85.03    7.62
  -1   3  16   64.63    3.68
   1  -3 -15   60.77    3.73
   1  -3 -15   68.71    3.50
  -1   3  15   63.17    5.74
  -1   3  15   48.94    2.40
   1  -3 -14    2.07    1.30
   1  -3 -14    2.58    1.11
  -1   3  14    3.72    0.59
  -1   3  14    5.26    1.66
   1  -3 -13  410.92   17.58
   1  -3 -13  419.39   16.64
  -1   3  13  440.79   21.31
  -1   3  13  396.69   13.55
   1  -3 -12  206.75    7.63
   1  -3 -12  218.41    9.77
  -1   3  12  221.20   10.54
  -1   3  12  209.66    6.17
   1  -3 -11  330.11   12.64
   1  -3 -11  331.62   13.74
  -1   3  11  318.55    9.14
  -1   3  11  346.99   14.62
   1  -3 -10  161.35    6.36
   1  -3 -10  157.92    4.82
  -1   3  10  145.25    3.55
  -1   3  10  157.41    6.72
   1  -3  -9  231.47    7.61
   1  -3  -9  247.27    5.76
  -1   3   9  229.13    5.29
  -1   3   9  247.64    9.06
   1  -3  -8    9.71    0.89
  -1   3   8    7.99    0.30
  -1   3   8    7.74    1.12
   1  -3  -7  100.06    2.67
   1  -3  -7  107.38    1.87
  -1   3   7  105.90    3.20
  -1   3   7  104.00    1.80
   1  -3  -6 1008.16   28.56
   1  -3  -6  986.38   35.77
   1  -3  -6  968.69   33.90
  -1   3   6  942.03   26.82
   1  -3  -5   23.40    0.86
  -1   3   5   20.01    0.81
   1  -3  -4  200.98    4.70
   1  -3  -4  207.21    4.53
  -1   3   4  197.37    4.52
   1  -3  -3 3186.51  165.33
   1  -3  -3 3093.05  156.23
   1  -3  -3 2888.52  152.13
  -1   3   3 2819.18  149.31
   1  -3  -2  146.98    3.20
   1  -3  -2  162.87    3.30
   1  -3  -2  146.07    2.38
   1  -3  -2  145.99    2.33
  -1   3   2  141.08    2.29
  -1   3   2  153.52    2.42
   1  -3  -1 2095.56   90.70
   1  -3  -1 1997.16   83.96
  -1   3   1 1985.82   87.00
  -1   3   1 2079.15   90.82
   1  -3   0  241.84    4.94
   1  -3   0  225.64    4.97
   1  -3   0  233.03    3.54
  -1   3   0  218.76    4.72
  -1   3   0  232.85    3.56
   1  -3   1  388.19    7.81
   1  -3   1  384.24    9.99
   1  -3   1  413.70    9.59
  -1   3  -1  402.67    8.06
  -1   3  -1  366.86    9.13
  -1   3  -1  388.54    9.00
   1  -3   2  159.47    2.84
   1  -3   2  166.46    3.35
   1  -3   2  167.45    4.35
  -1   3  -2  178.45    3.83
  -1   3  -2  160.35    3.15
  -1   3  -2  171.10    3.10
   1  -3   3   11.78    0.86
   1  -3   3   11.42    0.44
  -1   3  -3   10.66    0.57
  -1   3  -3   12.31    0.46
   1  -3   4   30.77    0.95
   1  -3   4   29.08    1.62
  -1   3  -4   29.92    1.38
   1  -3   5  113.01    3.57
   1  -3   5  111.90    3.23
  -1   3  -5  116.61    2.94
  -1   3  -5  125.17    4.00
   1  -3   6  323.40   10.13
  -1   3  -6  347.65    9.81
  -1   3  -6  350.96   10.82
   1  -3   7    8.44    1.01
  -1   3  -7    9.73    0.80
  -1   3  -7    9.95    1.17
   1  -3   8   53.82    2.71
   1  -3   8   68.91    3.27
  -1   3  -8   53.02    2.23
  -1   3  -8   61.75    2.57
   1  -3   9   77.05    4.32
   1  -3   9   74.44    3.06
  -1   3  -9   77.54    4.05
  -1   3  -9   71.88    2.63
   1  -3  10  332.92   14.10
   1  -3  10  339.00   13.85
  -1   3 -10  314.61   11.99
  -1   3 -10  334.72   14.52
   1  -3  11   36.05    2.78
   1  -3  11   34.45    2.42
  -1   3 -11   25.82    2.17
  -1   3 -11   30.81    2.91
   1  -3  12  106.11    6.84
   1  -3  12  100.76    6.02
  -1   3 -12   90.05    4.84
  -1   3 -12  113.42    5.60
   1  -3  13    3.69    1.15
   1  -3  13    2.88    1.64
  -1   3 -13    2.30    1.16
  -1   3 -13    3.65    1.61
   1  -3  14   21.56    3.31
   1  -3  14   17.07    3.00
  -1   3 -14   17.56    3.37
  -1   3 -14   16.99    2.41
   1  -3  15   66.98    6.98
   1  -3  15   80.81    5.77
  -1   3 -15   61.53    5.40
  -1   3 -15   86.20    5.72
   1  -2 -18   22.24    3.07
  -1   2  18   34.21    3.80
  -1   2  18   15.74    2.01
   1  -2 -17   45.99    4.72
   1  -2 -17   39.27    4.60
  -1   2  17   50.82    4.50
  -1   2  17   30.43    2.81
   1  -2 -16  360.35   19.70
   1  -2 -16  342.22   19.64
  -1   2  16  302.88   14.03
  -1   2  16  396.03   23.53
   1  -2 -15   59.40    4.65
   1  -2 -15   58.07    4.76
  -1   2  15   63.32    5.90
   1  -2 -14  111.88    6.39
   1  -2 -14  115.82    6.31
  -1   2  14  112.77    7.46
   1  -2 -13   49.78    3.52
   1  -2 -13   46.18    3.43
  -1   2  13   39.68    1.99
  -1   2  13   58.74    4.14
   1  -2 -12    2.57    1.09
   1  -2 -12    3.80    1.03
  -1   2  12    2.06    0.95
  -1   2  12    2.70    0.54
   1  -2 -11  131.67    5.32
   1  -2 -11  126.98    5.62
  -1   2  11  124.16    5.17
  -1   2  11  117.66    3.71
   1  -2 -10  921.05   39.63
   1  -2 -10  913.19   38.15
  -1   2  10  928.88   41.30
  -1   2  10  877.56   32.16
   1  -2  -9 1606.42   76.97
   1  -2  -9 1646.08   79.31
  -1   2   9 1650.94   71.06
  -1   2   9 1713.22   86.03
   1  -2  -8    5.48    0.74
  -1   2   8    6.91    0.95
  -1   2   8    4.10    0.35
   1  -2  -7  424.31   10.10
   1  -2  -7  423.64   12.94
  -1   2   7  434.35   13.41
  -1   2   7  429.62   10.45
   1  -2  -6   73.90    1.31
   1  -2  -6   72.43    2.08
  -1   2   6   74.33    1.34
  -1   2   6   73.77    2.04
   1  -2  -5 1713.22   64.32
   1  -2  -5 1793.71   78.38
   1  -2  -5 1797.32   76.36
  -1   2   5 1756.79   75.96
  -1   2   5 1706.04   63.95
   1  -2  -4   26.04    0.31
   1  -2  -4   28.74    0.69
   1  -2  -4   25.94    0.67
  -1   2   4   26.78    0.74
   1  -2  -3  690.35   19.70
   1  -2  -3  702.80   19.19
  -1   2   3  770.76   21.74
  -1   2   3  707.31   20.65
   1  -2  -2 1548.32   55.67
   1  -2  -2 1692.53   63.67
   1  -2  -2 1547.46   58.44
  -1   2   2 1625.27   60.70
  -1   2   2 1466.68   56.10
   1  -2  -1   10.99    0.25
   1  -2  -1   10.66    0.18
  -1   2   1   11.76    0.43
  -1   2   1   11.64    0.33
   1  -2   0 1664.98   62.97
   1  -2   0 1695.66   65.01
   1  -2   0 1638.35   62.33
  -1   2   0 1674.44   64.66
   1  -2   1 2188.01  100.63
   1  -2   1 2249.57  100.32
   1  -2   1 2395.19  109.34
  -1   2  -1 2414.52  109.64
  -1   2  -1 2239.14   92.78
  -1   2  -1 2307.89  105.33
   1  -2   2 1525.93   55.69
   1  -2   2 1460.49   51.67
   1  -2   2 1402.01   54.20
  -1   2  -2 1492.39   56.89
  -1   2  -2 1430.65   50.24
   1  -2   3 1636.96   68.65
   1  -2   3 1659.71   65.57
   1  -2   3 1707.50   67.85
  -1   2  -3 1655.69   67.82
  -1   2  -3 1660.42   65.34
  -1   2  -3 1689.42   66.12
   1  -2   4 1147.13   43.92
   1  -2   4 1155.02   41.06
  -1   2  -4 1160.40   40.23
  -1   2  -4 1129.25   41.15
   1  -2   5 3597.24  219.19
  -1   2  -5 3718.55  220.50
  -1   2  -5 3834.97  236.05
   1  -2   6 6084.55  486.50
  -1   2  -6 6430.53  499.94
   1  -2   7   92.55    3.88
   1  -2   7   97.30    3.39
  -1   2  -7   92.15    2.85
  -1   2  -7   90.91    3.42
   1  -2   8   93.58    3.98
   1  -2   8   86.56    3.51
  -1   2  -8   85.28    2.97
  -1   2  -8   88.23    2.99
   1  -2   9  483.27   17.50
   1  -2   9  485.16   19.55
  -1   2  -9  487.21   17.52
  -1   2  -9  467.66   16.67
   1  -2  10 1240.55   61.14
   1  -2  10 1278.01   63.29
  -1   2 -10 1191.54   55.49
  -1   2 -10 1262.43   58.98
   1  -2  11    3.81    1.46
  -1   2 -11    7.15    1.09
  -1   2 -11    6.28    1.13
   1  -2  12  169.77    8.78
   1  -2  12  166.43    8.81
  -1   2 -12  159.93    7.57
  -1   2 -12  175.36    8.79
   1  -2  13  132.16    7.86
   1  -2  13  124.63    7.81
  -1   2 -13  114.76    6.34
  -1   2 -13  127.89    6.43
   1  -2  14   25.17    2.59
   1  -2  14   24.08    3.35
  -1   2 -14   23.80    3.37
  -1   2 -14   26.31    2.71
   1  -2  15  100.13    6.42
   1  -2  15   90.02    8.36
  -1   2 -15  104.96    6.62
  -1   2 -15  107.26    6.74
   1  -2  16  163.48   12.31
   1  -2  16  145.04   11.16
  -1   2 -16  168.23   12.28
  -1   2 -16  134.11    9.67
   1  -1 -18   29.16    4.37
  -1   1  18   22.38    4.02
   1  -1 -17   37.38    4.42
   1  -1 -17   46.42    5.00
  -1   1  17   41.27    5.71
  -1   1  17   29.99    3.15
   1  -1 -16   16.58    2.94
   1  -1 -16   15.27    2.65
  -1   1  16   14.38    1.85
  -1   1  16   16.99    3.46
   1  -1 -15   54.55    4.13
   1  -1 -15   49.18    4.28
  -1   1  15   46.13    5.23
  -1   1  15   36.60    2.99
   1  -1 -14  171.32    8.99
   1  -1 -14  149.59    7.22
  -1   1  14  168.70    8.69
  -1   1  14  154.57    6.91
   1  -1 -13  180.99    8.95
   1  -1 -13  172.74    8.67
  -1   1  13  188.33   10.19
  -1   1  13  170.38    6.88
   1  -1 -12  108.89    5.57
   1  -1 -12  108.54    4.54
  -1   1  12  112.15    6.44
  -1   1  12  106.77    4.28
   1  -1 -11   83.77    3.69
   1  -1 -11   66.00    3.47
  -1   1  11   69.00    3.31
   1  -1 -10  211.35    7.97
   1  -1 -10  220.59    8.09
  -1   1  10  210.68    6.54
  -1   1  10  219.40    9.19
   1  -1  -9   74.67    2.63
   1  -1  -9   78.39    3.21
  -1   1   9   70.75    2.89
  -1   1   9   72.31    2.28
   1  -1  -8   44.80    1.81
   1  -1  -8   34.47    1.42
  -1   1   8   49.35    2.19
  -1   1   8   33.77    1.17
   1  -1  -7  165.80    5.03
   1  -1  -7  166.64    4.97
  -1   1   7  171.03    4.98
  -1   1   7  162.94    3.89
   1  -1  -6  215.84    4.38
   1  -1  -6  208.92    5.57
  -1   1   6  206.21    6.02
  -1   1   6  204.82    4.41
   1  -1  -5 1504.99   59.28
   1  -1  -5 1484.38   54.16
  -1   1   5 1478.06   54.15
  -1   1   5 1450.21   60.10
   1  -1  -4  557.22   14.97
   1  -1  -4  576.67   13.52
  -1   1   4  652.49   17.24
  -1   1   4  571.61   13.40
  -1   1   4  546.12   15.19
   1  -1  -3   15.91    0.44
   1  -1  -3   18.00    0.44
  -1   1   3   16.07    0.41
  -1   1   3   18.57    0.61
  -1   1   3   20.22    0.55
   1  -1  -2   11.85    0.29
   1  -1  -2   11.38    0.26
  -1   1   2   12.56    0.40
  -1   1   2   10.76    0.27
  -1   1   2   11.18    0.28
  -1   1   1 1733.73   63.85
  -1   1   1 1580.17   58.94
  -1   1   0 2362.16  102.05
  -1   1   0 2296.47   98.33
   1  -1   1   25.10    0.59
   1  -1   1   24.05    0.28
   1  -1   1   25.32    0.49
   1  -1   1   26.62    0.55
  -1   1  -1   23.11    0.40
  -1   1  -1   24.62    0.44
  -1   1  -1   25.89    0.57
   1  -1   2 1619.77   58.95
   1  -1   2 1506.31   57.57
   1  -1   2 1538.91   55.40
   1  -1   2 1603.71   59.87
  -1   1  -2 1559.17   58.46
  -1   1  -2 1606.59   61.28
   1  -1   3 1363.97   47.74
   1  -1   3 1316.46   46.55
   1  -1   3 1307.74   48.74
  -1   1  -3 1317.23   47.53
  -1   1  -3 1369.06   47.66
   1  -1   4  417.80   10.95
  -1   1  -4  427.43   10.60
  -1   1  -4  426.67   10.60
   1  -1   5 1125.45   41.37
  -1   1  -5 1134.26   40.06
  -1   1  -5 1159.58   42.35
   1  -1   6   75.41    2.52
  -1   1  -6   77.02    2.51
  -1   1  -6   77.95    2.22
   1  -1   7 2443.93  132.42
   1  -1   7 2493.60  135.31
  -1   1  -7 2495.91  130.20
  -1   1  -7 2580.89  137.26
   1  -1   8  330.98   11.69
   1  -1   8  344.40   12.09
  -1   1  -8  352.69   11.15
  -1   1  -8  364.32   11.96
   1  -1   9  146.70    5.80
   1  -1   9  142.27    5.83
  -1   1  -9  152.97    5.65
  -1   1  -9  150.41    4.55
   1  -1  10    4.05    1.06
   1  -1  10    4.52    0.86
  -1   1 -10    4.20    1.04
  -1   1 -10    6.04    0.90
   1  -1  11   70.78    3.10
   1  -1  11   61.92    3.64
  -1   1 -11   57.53    2.93
  -1   1 -11   70.39    3.26
   1  -1  12   66.31    3.53
   1  -1  12   74.53    4.71
  -1   1 -12   70.27    3.99
  -1   1 -12   86.26    4.57
   1  -1  13  331.88   17.01
   1  -1  13  325.26   15.68
  -1   1 -13  305.97   14.78
  -1   1 -13  337.25   14.70
   1  -1  14   23.71    3.41
   1  -1  14   25.83    2.90
  -1   1 -14   24.99    2.68
  -1   1 -14   25.03    3.20
   1  -1  15   12.64    2.64
   1  -1  15   11.97    1.78
  -1   1 -15    9.91    2.21
  -1   1 -15   10.45    2.56
   1  -1  16    0.04    1.46
   1  -1  16    3.43    1.71
  -1   1 -16    0.57    1.37
  -1   1 -16    1.72    1.61
   1  -1  17    0.52    1.09
   1  -1  17    1.80    1.71
  -1   1 -17   -0.32    1.66
  -1   1 -17    0.42    1.33
   1   0 -17    2.16    1.96
   1   0 -17    1.52    1.57
  -1   0  17    1.28    2.13
  -1   0  17    1.97    1.28
   1   0 -16    4.57    1.77
   1   0 -16    5.12    2.07
  -1   0  16    4.16    2.35
  -1   0  16    4.58    1.42
   1   0 -15    8.90    1.86
   1   0 -15    9.24    1.69
  -1   0  15    6.00    1.31
  -1   0  15    6.57    1.83
   1   0 -14   33.73    3.40
   1   0 -14   28.43    2.93
  -1   0  14   31.32    3.76
  -1   0  14   24.07    2.40
   1   0 -13  120.63    6.75
   1   0 -13  108.65    5.92
  -1   0  13  103.34    5.09
  -1   0  13  114.54    6.00
   1   0 -12 1051.42   51.85
   1   0 -12  990.87   47.60
  -1   0  12 1038.38   54.05
  -1   0  12  999.72   45.60
   1   0 -11   44.09    2.31
   1   0 -11   39.63    2.14
  -1   0  11   35.22    2.10
  -1   0  11   40.69    2.38
   1   0 -10   74.37    3.34
   1   0 -10   71.05    3.20
  -1   0  10   72.49    3.93
  -1   0  10   67.08    2.83
   1   0  -9 1259.72   56.12
   1   0  -9 1218.34   53.49
  -1   0   9 1224.01   51.84
  -1   0   9 1234.13   58.00
   1   0  -8   19.06    1.38
   1   0  -8   19.71    1.28
  -1   0   8   16.11    1.61
  -1   0   8   18.49    1.10
   1   0  -7 2342.54  121.38
   1   0  -7 2435.61  124.91
  -1   0   7 2366.60  127.77
  -1   0   7 2313.35  117.17
   1   0  -6    9.52    0.64
   1   0  -6    7.91    0.71
  -1   0   6    8.07    0.83
  -1   0   6    6.30    0.55
   1   0  -5  288.02    6.40
   1   0  -5  270.02    6.41
   1   0  -5  265.43    6.55
  -1   0   5  263.80    6.09
  -1   0   5  269.97    7.53
   1   0  -4 1485.76   58.09
   1   0  -4 1605.65   60.26
  -1   0   4 1472.85   55.77
  -1   0   4 1459.39   58.70
  -1   0   4 1658.27   62.88
   1   0  -3  260.20    5.36
   1   0  -3  261.17    4.94
   1   0  -3  267.91    5.58
  -1   0   3  270.23    5.32
  -1   0   3  247.37    5.79
  -1   0   3  265.81    5.30
   1   0  -2   73.90    1.16
   1   0  -2   77.57    1.22
   1   0  -2   79.26    1.01
   1   0  -2   72.26    1.01
  -1   0   2   71.97    1.19
  -1   0   2   81.04    1.19
  -1   0   2   77.28    1.18
  -1   0   2   73.66    1.19
   1   0  -1  577.39   12.32
   1   0  -1  590.96   13.34
   1   0  -1  584.27   13.30
   1   0  -1  584.74   13.17
  -1   0   1  600.62   12.74
  -1   0   1  548.06   12.33
  -1   0   1  574.13   13.07
  -1   0   1  602.21   13.44
  -1   0   0 1491.39   49.63
   1   0   2   90.88    1.29
   1   0   2   85.02    1.37
   1   0   2   86.01    1.55
  -1   0  -2   87.36    1.29
  -1   0  -2   89.36    1.40
  -1   0  -2   85.47    1.30
   1   0   3 1381.37   46.66
   1   0   3 1278.21   45.02
  -1   0  -3 1309.32   44.68
  -1   0  -3 1367.08   47.71
   1   0   4  169.22    3.76
  -1   0  -4  181.22    3.65
   1   0   5  471.14   13.30
  -1   0  -5  498.51   13.14
   1   0   6  104.02    3.20
   1   0   6  105.78    3.02
  -1   0  -6  100.14    2.37
  -1   0  -6  106.10    2.80
   1   0   7   14.90    0.79
   1   0   7   15.17    1.14
  -1   0  -7   13.92    0.96
  -1   0  -7   15.30    0.96
   1   0   8   48.55    2.25
   1   0   8   47.02    1.99
  -1   0  -8   44.85    1.95
  -1   0  -8   46.81    2.01
   1   0   9    8.13    1.05
   1   0   9    8.98    1.18
  -1   0  -9    8.86    0.76
  -1   0  -9    9.93    0.98
   1   0  10    8.53    1.29
   1   0  10    7.09    1.10
  -1   0 -10    6.64    1.06
  -1   0 -10    9.49    1.11
   1   0  11    4.27    0.78
   1   0  11    3.71    0.91
  -1   0 -11    3.76    0.98
  -1   0 -11    3.91    0.80
   1   0  12   74.93    3.87
   1   0  12   66.67    4.58
  -1   0 -12   62.66    3.99
  -1   0 -12   82.01    3.91
   1   0  13  356.24   16.59
   1   0  13  378.97   19.14
  -1   0 -13  414.81   18.42
  -1   0 -13  371.59   17.24
   1   0  14   14.49    2.08
   1   0  14   16.57    2.61
  -1   0 -14   14.33    2.22
  -1   0 -14   13.67    2.30
   1   0  15   91.67    5.87
   1   0  15   89.11    7.20
  -1   0 -15   87.34    6.12
  -1   0 -15   86.30    5.06
   1   0  16  106.69    9.04
   1   0  16   97.07    7.38
  -1   0 -16   90.88    7.42
  -1   0 -16  112.63    6.69
   1   0  17  176.71   11.97
   1   0  17  206.99   15.22
  -1   0 -17  178.93   12.59
  -1   0 -17  187.98   12.88
   1   1 -17    2.05    1.63
   1   1 -17    2.92    2.28
  -1  -1  17    1.03    2.34
  -1  -1  17    2.91    1.14
   1   1 -16   45.50    5.14
   1   1 -16   30.13    3.79
  -1  -1  16   29.80    3.57
  -1  -1  16   38.53    4.01
   1   1 -15   26.80    3.91
   1   1 -15   23.73    2.87
  -1  -1  15   26.99    2.85
  -1  -1  15   23.36    4.02
   1   1 -14  239.05   12.18
   1   1 -14  262.86   14.37
  -1  -1  14  263.90   13.22
  -1  -1  14  225.93   10.19
   1   1 -13  133.73    6.84
   1   1 -13  157.41    7.32
  -1  -1  13  145.93    9.11
  -1  -1  13  138.14    7.00
   1   1 -12   85.14    4.08
   1   1 -12   75.90    4.26
  -1  -1  12   79.59    4.35
  -1  -1  12  104.89    5.55
   1   1 -11   35.64    3.03
   1   1 -11   46.47    2.40
  -1  -1  11   42.05    2.56
  -1  -1  11   40.32    2.50
   1   1 -10   56.52    2.76
   1   1 -10   58.24    2.64
  -1  -1  10   60.59    2.87
  -1  -1  10   57.99    2.80
   1   1  -9   74.83    2.93
   1   1  -9   56.78    2.47
  -1  -1   9   56.14    2.59
  -1  -1   9   56.24    2.57
   1   1  -8   43.76    1.76
   1   1  -8   43.69    1.85
  -1  -1   8   46.50    2.00
   1   1  -7   37.29    1.90
   1   1  -7   38.22    1.57
  -1  -1   7   35.73    1.57
  -1  -1   7   34.86    1.38
   1   1  -6  877.36   30.50
   1   1  -6  857.90   29.30
  -1  -1   6  849.72   29.94
  -1  -1   6  850.64   31.99
   1   1  -5   25.90    0.81
   1   1  -5   26.94    0.81
  -1  -1   5   21.61    0.95
  -1  -1   5   25.98    1.13
   1   1  -4  282.44    6.67
   1   1  -4  290.38    6.45
  -1  -1   4  290.44    7.54
  -1  -1   4  311.94    6.50
   1   1  -2  920.83   27.10
   1   1  -2  880.72   26.12
   1   1  -2  898.54   25.75
  -1  -1   2  890.31   23.91
  -1  -1   2  923.21   26.42
  -1  -1   2  833.37   25.00
   1   1  -1  606.74   14.30
   1   1  -1  583.82   13.67
   1   1  -1  612.61   14.71
  -1  -1   1  600.21   13.95
  -1  -1   1  574.52   12.28
  -1  -1   1  573.16   13.74
  -1  -1   1  614.05   14.16
   1   1   1   29.38    0.32
   1   1   1   29.43    0.43
   1   1   1   26.44    0.41
  -1  -1  -1   26.24    0.34
  -1  -1  -1   29.33    0.38
  -1  -1  -1   27.25    0.31
   1   1   2  928.08   26.27
   1   1   2  918.33   26.64
   1   1   2  973.88   27.38
  -1  -1  -2  931.95   26.18
  -1  -1  -2  941.77   26.79
  -1  -1  -2  939.61   24.34
  -1  -1  -2  985.59   28.35
   1   1   3   90.36    1.66
   1   1   3  102.08    1.76
  -1  -1  -3   90.83    1.66
  -1  -1  -3   99.71    1.67
  -1  -1  -3  103.23    1.94
  -1  -1  -3   97.43    1.47
   1   1   4   50.24    1.31
   1   1   4   48.89    0.89
  -1  -1  -4   49.45    1.01
  -1  -1  -4   48.94    0.96
   1   1   5 1147.56   40.31
   1   1   5 1137.58   41.63
  -1  -1  -5 1165.03   39.51
   1   1   6 1814.97   83.05
   1   1   6 1857.31   81.34
  -1  -1  -6 1858.45   79.71
   1   1   7 2630.40  142.99
   1   1   7 2758.01  145.76
  -1  -1  -7 2744.35  144.18
   1   1   8  888.71   32.45
   1   1   8  889.11   35.29
  -1  -1  -8  893.10   33.81
  -1  -1  -8  874.52   31.91
   1   1   9  237.52    7.62
   1   1   9  245.88    8.06
  -1  -1  -9  246.99    7.78
  -1  -1  -9  248.14    7.51
   1   1  10   60.61    2.68
   1   1  10   55.60    2.62
  -1  -1 -10   64.56    2.72
  -1  -1 -10   64.39    3.09
   1   1  11   26.45    2.39
   1   1  11   30.27    1.78
  -1  -1 -11   26.62    1.98
  -1  -1 -11   24.31    1.82
   1   1  12   46.27    3.47
   1   1  12   47.73    2.63
  -1  -1 -12   45.08    2.42
  -1  -1 -12   46.24    2.90
   1   1  13  110.12    5.62
   1   1  13  107.59    5.29
  -1  -1 -13  109.12    5.91
  -1  -1 -13  114.73    5.65
   1   1  14   27.06    2.62
   1   1  14   32.10    3.58
  -1  -1 -14   35.85    3.14
  -1  -1 -14   34.65    3.08
   1   1  15   45.32    4.98
   1   1  15   45.44    3.58
  -1  -1 -15   47.80    4.28
  -1  -1 -15   51.71    4.07
   1   1  16    4.72    1.58
   1   1  16    6.12    2.29
  -1  -1 -16    5.00    1.46
  -1  -1 -16    6.96    1.93
   1   1  17   16.17    3.25
   1   1  17   24.17    2.93
  -1  -1 -17   23.09    3.55
  -1  -1 -17   26.27    3.63
   1   1  18    0.62    1.48
   1   1  18    4.70    2.33
  -1  -1 -18    2.97    1.89
  -1  -1 -18    1.44    1.91
   1   2 -16  263.87   16.19
   1   2 -16  357.38   23.37
  -1  -2  16  301.50   18.33
  -1  -2  16  333.13   23.21
   1   2 -15   36.36    4.91
   1   2 -15   39.32    3.49
  -1  -2  15   32.27    3.01
  -1  -2  15   40.21    4.98
   1   2 -14   40.41    4.42
   1   2 -14   35.87    3.18
  -1  -2  14   39.06    3.52
  -1  -2  14   38.81    3.52
   1   2 -13  129.88    7.79
   1   2 -13  106.41    5.97
  -1  -2  13  120.62    7.93
  -1  -2  13  112.12    6.62
   1   2 -12  273.80   12.20
   1   2 -12  330.15   15.39
  -1  -2  12  285.01   14.90
  -1  -2  12  283.08   13.10
   1   2 -11  379.60   16.38
   1   2 -11  347.34   13.90
  -1  -2  11  357.77   16.69
  -1  -2  11  357.51   15.20
   1   2 -10 1303.65   61.34
   1   2 -10 1216.05   55.97
  -1  -2  10 1239.22   60.00
  -1  -2  10 1255.60   63.42
   1   2  -9   83.45    3.16
   1   2  -9   88.79    3.39
  -1  -2   9   81.92    3.38
  -1  -2   9   78.08    2.96
   1   2  -8    1.35    0.53
   1   2  -8    2.94    0.57
  -1  -2   8    2.41    0.80
  -1  -2   8    1.54    0.52
   1   2  -7   56.06    2.07
   1   2  -7   53.51    1.63
  -1  -2   7   54.61    2.61
  -1  -2   7   56.31    2.38
   1   2  -6  127.61    3.30
   1   2  -6  134.97    3.86
  -1  -2   6  124.03    4.41
  -1  -2   6  128.24    4.15
   1   2  -5 1358.91   53.44
   1   2  -5 1307.31   48.39
  -1  -2   5 1265.84   51.14
   1   2  -4 1518.30   60.77
   1   2  -4 1452.57   54.17
  -1  -2   4 1435.69   58.28
  -1  -2   4 1534.50   56.19
   1   2  -3  154.66    2.59
   1   2  -3  172.82    3.86
  -1  -2   3  174.21    2.77
  -1  -2   3  170.61    3.65
   1   2  -2  523.94   11.42
   1   2  -2  562.45   14.24
   1   2  -2  560.95   14.35
  -1  -2   2  560.34   11.91
  -1  -2   2  608.52   15.39
  -1  -2   2  544.92   14.58
  -1  -2   2  510.18   13.89
   1   2  -1  772.49   20.96
   1   2  -1  717.60   19.13
  -1  -2   1  748.10   19.76
  -1  -2   1  708.08   19.47
   1   2   0 1700.56   63.51
  -1  -2   0 1613.26   60.25
  -1  -2   0 1765.32   65.88
   1   2   2  216.41    3.89
   1   2   2  223.84    3.81
  -1  -2  -2  215.91    3.78
  -1  -2  -2  227.80    4.04
  -1  -2  -2  204.34    2.72
  -1  -2  -2  219.53    3.73
   1   2   3  341.70    8.01
   1   2   3  351.28    6.34
   1   2   3  383.66    8.19
  -1  -2  -3  363.37    8.06
  -1  -2  -3  340.66    6.28
  -1  -2  -3  371.67    8.45
  -1  -2  -3  347.91    7.21
   1   2   4  808.21   21.38
   1   2   4  767.59   23.11
  -1  -2  -4  778.25   22.79
  -1  -2  -4  729.17   19.81
  -1  -2  -4  774.43   21.74
   1   2   5 3156.90  162.30
   1   2   5 2969.91  165.32
  -1  -2  -5 3036.96  160.07
  -1  -2  -5 3124.86  170.39
   1   2   6  397.40   10.12
   1   2   6  410.99   12.09
  -1  -2  -6  387.86    9.72
  -1  -2  -6  417.96   11.06
   1   2   7  227.04    6.47
   1   2   7  245.02    6.10
  -1  -2  -7  228.84    5.82
   1   2   8  550.80   16.87
   1   2   8  538.49   19.49
  -1  -2  -8  551.70   17.21
   1   2   9  334.32   11.22
   1   2   9  329.58   10.00
  -1  -2  -9  344.59   11.81
  -1  -2  -9  343.33   10.48
   1   2  10  187.72    6.07
   1   2  10  195.46    6.74
  -1  -2 -10  185.83    6.18
  -1  -2 -10  195.27    7.18
   1   2  11  127.49    4.82
   1   2  11  137.38    5.24
  -1  -2 -11  132.83    5.81
  -1  -2 -11  134.05    4.93
   1   2  12   46.36    2.20
   1   2  12   39.04    3.21
  -1  -2 -12   39.58    2.50
  -1  -2 -12   38.57    2.85
   1   2  13   69.02    3.33
   1   2  13   74.83    3.87
  -1  -2 -13   62.42    3.74
  -1  -2 -13   62.71    4.28
   1   2  14   14.50    2.75
   1   2  14   15.36    1.81
  -1  -2 -14   22.17    2.40
  -1  -2 -14   20.02    1.61
   1   2  15  414.06   19.49
   1   2  15  472.51   23.82
  -1  -2 -15  447.45   23.69
  -1  -2 -15  463.90   22.36
   1   2  16   93.03    8.10
   1   2  16   92.68    5.36
  -1  -2 -16   92.87    7.24
  -1  -2 -16   99.15    6.53
   1   2  17   31.54    4.22
   1   2  17   18.70    2.53
  -1  -2 -17   21.01    3.37
  -1  -2 -17   23.60    3.61
   1   2  18    3.46    1.62
   1   2  18    5.88    2.03
  -1  -2 -18    4.02    2.35
  -1  -2 -18    5.60    2.11
   1   3 -16   59.36    5.32
  -1  -3  16   52.94    6.71
  -1  -3  16   40.06    4.02
   1   3 -15  266.54   14.55
   1   3 -15  189.32   11.54
  -1  -3  15  247.51   16.74
  -1  -3  15  233.38   14.86
   1   3 -14  123.07    7.19
   1   3 -14  156.21    8.69
  -1  -3  14  143.61    8.50
  -1  -3  14  136.16    9.17
   1   3 -13   68.92    3.99
   1   3 -13   94.31    6.58
  -1  -3  13   97.85    6.44
  -1  -3  13   84.92    5.83
   1   3 -12    8.73    1.38
   1   3 -12    9.49    2.19
  -1  -3  12   12.27    1.90
  -1  -3  12   11.87    2.13
   1   3 -11   21.81    2.27
   1   3 -11   14.34    1.46
  -1  -3  11   14.43    2.01
  -1  -3  11   14.88    2.20
   1   3 -10  754.99   34.88
   1   3 -10  693.44   27.77
  -1  -3  10  729.91   33.05
  -1  -3  10  711.24   33.44
   1   3  -9   63.80    2.75
   1   3  -9   85.90    3.92
  -1  -3   9   69.27    3.87
  -1  -3   9   82.07    4.03
   1   3  -8   49.03    1.97
   1   3  -8   39.65    1.60
  -1  -3   8   44.73    2.61
  -1  -3   8   47.51    2.48
   1   3  -7 1336.29   54.32
   1   3  -7 1412.83   62.15
  -1  -3   7 1328.20   59.00
  -1  -3   7 1318.18   58.50
   1   3  -6  386.97   10.32
   1   3  -6  422.15   13.98
  -1  -3   6  391.12   13.09
  -1  -3   6  385.56   12.11
   1   3  -5  367.48   10.55
   1   3  -5  357.70    8.65
  -1  -3   5  350.05   11.03
   1   3  -4    8.67    0.58
   1   3  -4    7.08    0.37
  -1  -3   4    8.69    0.56
  -1  -3   4    8.92    0.28
   1   3  -3   45.61    1.18
  -1  -3   3   48.11    1.56
  -1  -3   3   49.02    1.47
  -1  -3   3   47.21    0.68
  -1  -3   1 1597.05   58.29
  -1  -3   1 1439.54   54.90
  -1  -3   1 1383.71   51.83
   1   3   0  125.98    1.59
   1   3   0  120.84    1.45
   1   3   0  122.09    2.31
   1   3   0  131.06    2.31
  -1  -3   0  124.40    2.36
  -1  -3   0  129.44    2.23
   1   3   1   15.59    0.50
  -1  -3  -1   14.37    0.46
  -1  -3  -1   17.09    0.45
  -1  -3  -1   14.73    0.31
   1   3   2 1101.87   35.81
   1   3   2 1072.00   31.32
  -1  -3  -2 1077.76   33.75
  -1  -3  -2 1172.45   36.40
   1   3   3  556.64   12.01
   1   3   3  526.82   14.02
  -1  -3  -3  535.87   11.70
  -1  -3  -3  565.12   14.21
  -1  -3  -3  559.57   13.11
  -1  -3  -3  519.94   13.08
   1   3   4 2194.49  101.45
   1   3   4 2242.20   93.32
  -1  -3  -4 2283.37  104.89
  -1  -3  -4 2143.51   90.60
  -1  -3  -4 2244.66   97.18
   1   3   5   92.45    2.52
   1   3   5   96.11    1.52
   1   3   5   92.73    1.74
  -1  -3  -5   88.82    1.62
  -1  -3  -5   92.03    2.05
  -1  -3  -5   97.54    1.76
   1   3   6    1.54    0.21
   1   3   6    3.18    0.28
   1   3   6    2.56    0.39
  -1  -3  -6    1.64    0.23
  -1  -3  -6    2.29    0.46
  -1  -3  -6    2.22    0.28
   1   3   7   39.42    1.45
   1   3   7   36.97    0.97
  -1  -3  -7   35.77    1.15
   1   3   8  646.40   23.66
   1   3   8  645.70   19.82
  -1  -3  -8  602.32   19.14
   1   3   9  772.56   31.06
   1   3   9  763.23   25.71
  -1  -3  -9  763.78   26.72
   1   3  10  196.19    5.70
   1   3  10  205.27    8.14
  -1  -3 -10  203.69    6.29
   1   3  11  555.32   22.11
   1   3  11  525.59   18.42
  -1  -3 -11  545.71   20.11
  -1  -3 -11  564.46   23.13
   1   3  12  598.54   27.15
   1   3  12  545.20   20.86
  -1  -3 -12  602.38   24.60
  -1  -3 -12  561.29   20.69
   1   3  13  101.32    6.14
   1   3  13   90.57    3.97
  -1  -3 -13   95.05    3.81
  -1  -3 -13   96.34    5.73
   1   3  14  512.68   21.64
   1   3  14  570.97   26.97
  -1  -3 -14  523.75   23.48
  -1  -3 -14  551.68   27.25
   1   3  15   76.21    4.45
   1   3  15  117.28    7.51
  -1  -3 -15   99.95    5.49
  -1  -3 -15  112.47    6.74
   1   3  16   76.41    4.73
   1   3  16  103.33    6.40
  -1  -3 -16   85.84    4.82
  -1  -3 -16   92.66    6.76
   1   3  17  168.72    9.37
   1   3  17  231.15   15.45
  -1  -3 -17  206.47   13.66
  -1  -3 -17  208.13   11.92
   1   3  18   74.69    7.91
  -1  -3 -18   59.15    5.96
  -1  -3 -18   65.99    7.02
   1   3  19    6.36    2.40
  -1  -3 -19    5.26    2.80
   1   4 -15    5.60    2.53
  -1  -4  15    4.03    2.38
  -1  -4  15    3.95    2.16
   1   4 -14   36.53    4.48
  -1  -4  14   30.71    3.89
  -1  -4  14   23.60    3.18
   1   4 -13   72.47    6.15
   1   4 -13   49.06    3.22
  -1  -4  13   69.56    4.56
  -1  -4  13   75.08    5.41
   1   4 -12   82.24    4.70
   1   4 -12   58.49    3.51
  -1  -4  12   81.84    5.27
  -1  -4  12   80.28    4.48
   1   4 -11   10.40    1.46
   1   4 -11    6.79    0.92
  -1  -4  11    6.81    1.72
  -1  -4  11    7.23    1.79
   1   4 -10  128.40    4.74
   1   4 -10  150.65    7.77
  -1  -4  10  146.25    6.23
  -1  -4  10  146.99    7.42
   1   4  -9  771.58   30.84
   1   4  -9  932.51   42.72
  -1  -4   9  849.31   39.31
  -1  -4   9  819.29   38.35
   1   4  -8  240.21    8.32
   1   4  -8  206.23    6.22
  -1  -4   8  222.18    8.72
  -1  -4   8  227.92    9.29
   1   4  -7   30.32    0.99
   1   4  -7   33.64    2.10
  -1  -4   7   31.40    2.01
  -1  -4   7   30.92    1.64
   1   4  -6   47.74    1.26
   1   4  -6   48.77    1.97
  -1  -4   6   53.16    2.34
   1   4  -5  433.77   13.43
   1   4  -5  397.40   10.01
  -1  -4   5  414.61   13.57
  -1  -4   5  427.25   10.45
   1   4  -4 1107.33   42.56
   1   4  -4 1074.97   35.17
  -1  -4   4 1084.38   42.10
  -1  -4   4 1152.39   37.08
  -1  -4   4 1058.25   41.82
   1   4  -3 1015.47   37.32
   1   4  -3  928.71   27.51
  -1  -4   3  999.55   35.84
  -1  -4   3 1013.93   37.89
  -1  -4   3 1032.35   30.82
  -1  -4   2   68.54    2.06
  -1  -4   2   68.10    1.73
  -1  -4   2   65.52    0.95
   1   4  -1 1522.14   56.79
   1   4  -1 1346.79   42.45
  -1  -4   1 1387.87   54.66
  -1  -4   1 1420.12   45.97
  -1  -4   1 1393.14   52.73
   1   4   0 2860.15  142.87
  -1  -4   0 2943.29  147.77
  -1  -4   0 2673.94  135.45
   1   4   1   98.60    1.45
   1   4   1  104.33    2.03
   1   4   1  101.85    1.62
  -1  -4  -1  101.66    1.85
  -1  -4  -1   95.77    1.95
  -1  -4  -2 6716.66  516.28
   1   4   3  140.80    2.29
   1   4   3  135.15    2.54
  -1  -4  -3  143.65    2.59
  -1  -4  -3  133.92    2.83
  -1  -4  -3  138.92    2.73
   1   4   5  498.16   12.02
   1   4   5  505.15   14.81
   1   4   5  539.61   12.55
  -1  -4  -5  511.96   12.25
  -1  -4  -5  478.81   11.60
  -1  -4  -5  483.63   13.44
   1   4   6  222.81    4.28
   1   4   6  218.24    4.38
   1   4   6  221.36    6.31
  -1  -4  -6  224.65    4.38
  -1  -4  -6  218.84    4.58
  -1  -4  -6  208.42    5.36
   1   4   7 1357.96   50.20
   1   4   7 1364.20   57.03
  -1  -4  -7 1305.72   54.30
  -1  -4  -7 1315.90   50.09
  -1  -4  -7 1351.13   49.43
   1   4   8  917.64   35.44
   1   4   8  905.11   29.72
  -1  -4  -8  923.09   36.15
  -1  -4  -8  906.53   31.01
   1   4   9   74.05    1.87
   1   4   9   72.86    2.76
  -1  -4  -9   70.32    2.21
  -1  -4  -9   70.58    2.57
   1   4  10   82.39    3.31
   1   4  10   59.93    1.78
  -1  -4 -10   58.18    2.17
   1   4  11  809.06   29.30
   1   4  11  846.02   35.70
  -1  -4 -11  808.01   31.17
   1   4  12   89.81    4.04
   1   4  12   76.20    2.62
  -1  -4 -12   78.50    3.42
   1   4  13  498.66   22.18
   1   4  13  465.10   17.56
  -1  -4 -13  476.18   19.17
  -1  -4 -13  510.79   23.68
   1   4  14  986.28   53.67
   1   4  14  916.16   39.70
  -1  -4 -14  918.81   43.82
  -1  -4 -14 1002.70   49.41
   1   4  15  229.76   13.28
   1   4  15  190.22    7.95
  -1  -4 -15  206.13    9.61
  -1  -4 -15  225.89   12.27
   1   4  16   70.26    5.05
   1   4  16   55.33    3.39
  -1  -4 -16   72.86    5.71
  -1  -4 -16   67.31    4.50
   1   4  17  332.43   21.08
   1   4  17  258.08   12.85
  -1  -4 -17  296.12   15.90
  -1  -4 -17  314.03   16.92
   1   4  18  154.24   11.92
  -1  -4 -18  118.89   10.99
   1   4  19   11.29    3.12
  -1  -4 -19   14.60    3.60
   1   5 -14    4.22    2.23
  -1  -5  14    1.46    1.92
  -1  -5  14    3.21    1.98
   1   5 -13  184.08   12.78
  -1  -5  13  176.69   12.10
  -1  -5  13  174.56   11.94
   1   5 -12  239.19   10.74
   1   5 -12  307.36   15.39
  -1  -5  12  288.39   16.58
  -1  -5  12  275.82   15.59
   1   5 -11    8.48    0.96
   1   5 -11   10.11    2.17
  -1  -5  11    9.43    1.54
  -1  -5  11    8.21    1.59
   1   5 -10   65.42    4.77
  -1  -5  10   57.53    4.27
  -1  -5  10   63.61    3.64
   1   5  -9  172.07    5.76
   1   5  -9  201.17    8.21
  -1  -5   9  190.18    7.98
  -1  -5   9  190.00    8.58
   1   5  -8   16.36    1.81
   1   5  -8   12.85    0.79
  -1  -5   8   15.93    1.63
  -1  -5   8   14.08    1.43
   1   5  -7   90.53    4.33
   1   5  -7   77.37    2.19
  -1  -5   7   91.57    3.26
   1   5  -6  963.86   33.94
   1   5  -6 1059.86   43.93
  -1  -5   6 1024.45   42.71
   1   5  -5    5.63    0.39
   1   5  -5    7.28    0.72
  -1  -5   5    6.22    0.83
  -1  -5   5    4.73    0.38
   1   5  -4   49.72    1.62
  -1  -5   4   47.00    2.24
  -1  -5   4   43.82    1.78
  -1  -5   3 5760.21  445.53
  -1  -5   3 5936.30  471.86
  -1  -5   3 5947.32  425.47
   1   5  -2 2625.08  117.50
  -1  -5   2 2463.09  112.85
  -1  -5   2 2598.57  133.32
  -1  -5   2 2685.62  143.29
   1   5  -1  146.32    2.10
  -1  -5   1  152.04    2.40
  -1  -5   1  158.18    3.84
  -1  -5   1  160.60    3.67
   1   5   0   13.53    0.31
  -1  -5   0   14.19    0.31
  -1  -5   0   13.20    0.52
   1   5   1 3761.01  216.11
   1   5   1 3453.02  189.83
  -1  -5  -1 3399.13  196.89
   1   5   2  562.95   14.65
   1   5   2  612.96   16.98
   1   5   2  600.06   15.45
   1   5   2  567.44   14.95
  -1  -5  -2  609.63   16.20
  -1  -5  -2  567.64   15.95
   1   5   3  603.53   15.87
   1   5   3  572.62   14.85
   1   5   3  548.15   14.82
   1   5   3  549.69   14.08
  -1  -5  -3  602.51   15.99
  -1  -5  -3  544.77   15.13
   1   5   4 1081.45   34.91
   1   5   4 1049.20   35.03
  -1  -5  -4 1097.92   39.52
  -1  -5  -4 1122.90   37.16
  -1  -5  -4 1045.91   33.75
   1   5   5  431.00   10.49
   1   5   5  484.58   11.03
  -1  -5  -5  452.47   10.66
  -1  -5  -5  449.99   13.02
  -1  -5  -5  431.28   10.26
   1   5   6  631.78   17.08
   1   5   6  657.78   17.74
  -1  -5  -6  624.30   17.48
  -1  -5  -6  640.58   21.28
  -1  -5  -6  617.59   16.22
   1   5   7  562.17   14.49
   1   5   7  536.28   14.01
   1   5   7  558.88   19.03
  -1  -5  -7  544.02   17.46
  -1  -5  -7  505.09   13.00
  -1  -5  -7  535.49   14.79
   1   5   8  167.83    3.69
   1   5   8  171.59    6.16
  -1  -5  -8  173.72    3.80
  -1  -5  -8  167.04    4.09
  -1  -5  -8  172.35    6.08
   1   5   9  139.21    3.12
   1   5   9  148.09    4.88
  -1  -5  -9  144.79    5.54
  -1  -5  -9  136.47    3.65
   1   5  10 1352.43   53.50
   1   5  10 1362.90   63.72
  -1  -5 -10 1373.37   63.66
  -1  -5 -10 1324.42   56.10
   1   5  11  473.00   14.60
   1   5  11  507.57   21.34
  -1  -5 -11  487.14   16.68
  -1  -5 -11  511.18   21.18
   1   5  12  584.89   19.75
   1   5  12  641.18   28.47
  -1  -5 -12  563.50   21.08
   1   5  13   71.97    2.71
   1   5  13   91.51    5.24
  -1  -5 -13   72.61    3.39
   1   5  14   10.63    1.91
   1   5  14    6.44    0.72
  -1  -5 -14    5.22    1.21
  -1  -5 -14    5.32    1.82
   1   5  15    2.54    0.67
   1   5  15    6.36    1.80
  -1  -5 -15    6.92    1.28
  -1  -5 -15    3.59    1.15
   1   5  16  355.46   14.38
   1   5  16  448.05   22.90
  -1  -5 -16  418.71   23.42
  -1  -5 -16  381.09   18.21
   1   5  17   82.83    4.64
   1   5  17  117.70    9.09
  -1  -5 -17  109.03    7.10
  -1  -5 -17  101.36    6.44
   1   5  18    4.66    1.99
  -1  -5 -18    5.30    2.42
   1   5  19   10.74    3.54
  -1  -5 -19    8.87    3.31
   1   6 -14   37.92    4.13
   1   6 -14   23.08    2.50
   1   6 -13   84.15    7.82
  -1  -6  13   69.30    7.35
   1   6 -12  301.41   16.55
  -1  -6  12  281.99   16.00
  -1  -6  12  274.57   16.30
   1   6 -11   40.98    5.18
  -1  -6  11   55.94    5.14
  -1  -6  11   50.91    4.28
   1   6 -10   27.67    3.18
   1   6 -10   20.16    1.42
  -1  -6  10   28.55    3.32
  -1  -6  10   29.52    2.70
   1   6  -9  245.18    8.22
   1   6  -9  317.73   13.24
  -1  -6   9  306.46   14.88
  -1  -6   9  282.40   12.77
   1   6  -8   27.53    1.11
   1   6  -8   38.06    2.96
  -1  -6   8   33.21    2.42
  -1  -6   8   38.78    2.33
   1   6  -7  192.55    8.33
   1   6  -7  157.65    4.25
  -1  -6   7  183.03    7.08
   1   6  -6  336.05   11.72
   1   6  -6  284.93    7.41
  -1  -6   6  316.60   11.24
   1   6  -5    7.36    0.44
   1   6  -5   10.97    0.91
  -1  -6   5    7.15    0.95
   1   6  -4  420.06   10.17
  -1  -6   4  409.51   13.48
  -1  -6   4  443.31   16.11
  -1  -6   4  408.41   10.47
   1   6  -3  161.89    2.83
  -1  -6   3  181.58    5.03
  -1  -6   3  166.17    3.13
  -1  -6   3  183.07    5.44
   1   6  -2  656.19   16.41
  -1  -6   2  657.41   21.30
  -1  -6   2  653.65   17.14
  -1  -6   2  682.97   24.41
   1   6  -1   16.08    0.33
  -1  -6   1   15.21    0.37
  -1  -6   1   15.66    1.14
  -1  -6   1   18.85    0.72
   1   6   0  118.20    2.12
   1   6   0  127.62    2.99
  -1  -6   0  130.30    3.00
  -1  -6   0  118.76    2.05
   1   6   1    9.55    0.37
   1   6   1    8.45    0.40
  -1  -6  -1   11.58    0.59
   1   6   2  143.43    3.68
   1   6   2  149.51    2.95
   1   6   2  147.95    3.14
   1   6   2  141.33    2.96
  -1  -6  -2  143.80    3.43
   1   6   3  675.44   20.62
   1   6   3  687.35   20.31
   1   6   3  686.60   20.42
   1   6   3  676.78   19.46
   1   6   4  442.46   11.55
   1   6   4  428.64   10.75
   1   6   4  461.50   11.70
   1   6   4  440.84   12.68
  -1  -6  -4  433.07   12.22
   1   6   5   85.71    1.73
   1   6   5   76.35    2.44
   1   6   5   78.98    1.65
  -1  -6  -5   80.29    2.49
  -1  -6  -5   72.83    1.58
  -1  -6  -5   83.56    1.70
   1   6   6 3851.69  232.05
   1   6   6 4084.59  244.02
  -1  -6  -6 4097.50  245.35
  -1  -6  -6 4031.71  262.58
  -1  -6  -6 3731.30  228.16
   1   6   7  745.50   21.89
  -1  -6  -7  719.09   22.46
  -1  -6  -7  712.56   26.50
  -1  -6  -7  749.26   22.04
   1   6   8  794.19   24.66
  -1  -6  -8  794.63   29.95
  -1  -6  -8  793.48   26.28
  -1  -6  -8  816.20   25.54
   1   6   9   84.17    1.85
  -1  -6  -9   81.02    2.34
  -1  -6  -9   82.52    1.84
  -1  -6  -9   88.38    3.72
   1   6  10  352.04   13.35
   1   6  10  309.04    7.85
  -1  -6 -10  310.15    9.37
  -1  -6 -10  345.81   13.06
   1   6  11 1728.33   91.83
   1   6  11 1594.24   69.02
  -1  -6 -11 1697.00   90.41
  -1  -6 -11 1587.57   74.94
   1   6  12   65.71    4.09
  -1  -6 -12   70.40    3.07
  -1  -6 -12   52.58    2.58
   1   6  13   25.55    0.97
   1   6  13   25.91    2.15
  -1  -6 -13   27.71    1.77
   1   6  14   32.20    3.18
   1   6  14   23.77    1.07
  -1  -6 -14   24.85    2.00
   1   6  15  161.14    5.75
   1   6  15  217.40   11.97
  -1  -6 -15  184.41    8.21
   1   6  16   48.54    4.92
   1   6  16   38.11    1.86
  -1  -6 -16   41.64    3.34
  -1  -6 -16   48.95    3.74
   1   6  17   89.56    6.48
  -1  -6 -17   81.11    7.72
   1   6  18   36.14    5.15
  -1  -6 -18   26.64    4.82
   1   6  19   65.03    6.15
  -1  -6 -19   47.81    7.17
   1   7 -13   37.36    4.27
   1   7 -13   29.27    2.82
   1   7 -12   11.52    3.13
  -1  -7  12   11.00    3.07
   1   7 -11  384.51   20.79
  -1  -7  11  379.14   23.96
   1   7 -10  122.24    7.05
  -1  -7  10  121.22    8.76
  -1  -7  10  117.98    7.24
   1   7  -9   64.68    5.02
  -1  -7   9   54.89    4.23
  -1  -7   9   74.70    5.33
   1   7  -8   94.19    5.62
  -1  -7   8   85.26    4.68
   1   7  -7   90.55    4.25
   1   7  -7   75.83    2.38
  -1  -7   7   93.66    3.85
   1   7  -6  162.77    4.27
   1   7  -6  195.54    8.27
  -1  -7   6  185.20    6.91
  -1  -7   5   35.49    2.03
  -1  -7   5   40.64    2.79
  -1  -7   4   26.28    1.65
  -1  -7   4   25.01    1.49
  -1  -7   3   82.46    3.78
  -1  -7   3   81.93    2.77
  -1  -7   3   79.29    1.67
   1   7  -2 1390.49   48.60
  -1  -7   2 1357.55   49.39
  -1  -7   2 1413.01   59.33
  -1  -7   2 1436.94   65.96
   1   7  -1  191.92    3.47
   1   7  -1  195.53    5.34
  -1  -7   1  193.77    5.18
  -1  -7   1  173.34    3.32
  -1  -7   1  200.14    6.36
   1   7   0   48.77    1.01
   1   7   0   43.18    1.76
  -1  -7   0   44.68    1.48
   1   7   1  228.73    5.95
   1   7   1  238.10    5.09
   1   7   1  241.53    5.46
  -1  -7  -1  228.21    6.15
   1   7   2 3911.01  239.65
   1   7   2 3866.53  243.07
   1   7   2 3543.93  213.52
   1   7   2 3571.56  210.59
  -1  -7  -2 3773.81  232.42
   1   7   3  706.45   23.35
   1   7   3  704.53   23.16
   1   7   3  758.27   23.53
   1   7   3  665.59   21.45
   1   7   4 2650.82  136.82
   1   7   4 2678.37  140.15
   1   7   4 2600.93  137.35
   1   7   4 2519.67  128.23
   1   7   5 3163.54  175.84
   1   7   5 3083.40  180.17
   1   7   5 3181.20  176.06
   1   7   5 3096.14  179.27
   1   7   6 1749.59   75.19
   1   7   6 1797.88   85.11
  -1  -7  -6 1799.90   85.45
  -1  -7  -6 1751.76   76.38
   1   7   7   23.93    0.65
   1   7   7   23.67    1.46
  -1  -7  -7   25.35    1.19
  -1  -7  -7   19.01    0.77
  -1  -7  -7   21.39    0.69
   1   7   8  846.80   25.42
  -1  -7  -8  665.55   20.04
  -1  -7  -8  834.51   30.94
  -1  -7  -8  810.50   26.39
   1   7   9    5.46    0.31
  -1  -7  -9    5.02    1.03
  -1  -7  -9    3.95    0.48
  -1  -7 -10   40.22    1.68
  -1  -7 -10   53.54    2.21
   1   7  11    2.28    0.28
  -1  -7 -11    3.12    0.59
  -1  -7 -11    3.86    0.80
   1   7  12    3.66    0.35
   1   7  12    4.29    1.00
  -1  -7 -12    5.85    0.98
  -1  -7 -12    4.26    0.65
   1   7  13   56.28    3.41
  -1  -7 -13   67.51    4.61
  -1  -7 -13   52.55    2.61
   1   7  14  592.68   27.02
   1   7  14  477.25   16.29
  -1  -7 -14  599.37   27.92
  -1  -7 -14  547.08   22.01
   1   7  15    6.06    1.32
   1   7  15    2.53    0.47
  -1  -7 -15    5.14    1.02
   1   7  16   19.43    2.59
   1   7  17  169.62   13.12
  -1  -7 -17  164.52   12.43
   1   7  18   50.73    4.90
  -1  -7 -18   40.34    4.52
   1   7  19   26.90    5.06
  -1  -7 -19   20.22    4.65
   1   7  20   12.02    3.14
  -1  -7 -20    9.53    3.94
   1   8 -12   66.41    6.41
   1   8 -12   65.79    8.02
   1   8 -11   51.55    4.65
   1   8 -10   90.58    7.51
  -1  -8  10   80.16    6.14
   1   8  -9   22.74    2.57
  -1  -8   9   25.37    3.57
   1   8  -8    8.69    1.96
  -1  -8   8    5.88    1.43
   1   8  -7    6.45    0.45
   1   8  -7   10.02    1.39
  -1  -8   7    9.39    1.28
  -1  -8   6   84.26    4.16
  -1  -8   6  101.05    5.98
  -1  -8   5  265.77    9.86
  -1  -8   5  297.81   13.63
   1   8  -4  267.35    6.02
  -1  -8   4  317.12   12.98
  -1  -8   4  301.83    9.97
  -1  -8   3  290.62    9.44
  -1  -8   3  306.54   12.43
   1   8  -2  435.11   10.14
   1   8  -2  474.56   17.10
  -1  -8   2  448.93   14.28
  -1  -8   2  450.56   15.77
   1   8  -1  612.01   16.20
   1   8  -1  677.27   24.44
  -1  -8   1  634.38   21.07
  -1  -8   1  660.75   25.37
   1   8   0  495.30   17.05
   1   8   0  491.38   12.62
  -1  -8   0  490.93   15.22
   1   8   1  210.90    5.14
   1   8   1  244.63    7.29
   1   8   1  206.35    4.73
   1   8   1  230.24    7.59
  -1  -8  -1  219.50    6.14
   1   8   2 1290.96   54.93
   1   8   2 1241.45   47.47
   1   8   2 1254.64   51.83
  -1  -8  -2 1233.43   50.07
   1   8   3    6.29    0.52
   1   8   3    7.56    0.75
   1   8   3    6.32    0.57
   1   8   3    6.38    0.65
   1   8   4  163.54    4.37
   1   8   4  173.86    4.82
   1   8   4  170.34    4.94
   1   8   4  177.75    4.95
   1   8   5  179.90    4.67
   1   8   5  174.70    4.60
   1   8   5  187.00    5.52
   1   8   5  175.99    5.35
   1   8   6  119.78    2.93
   1   8   6  116.04    3.89
   1   8   6  118.00    3.08
   1   8   6  122.92    3.63
   1   8   7  188.67    6.37
   1   8   7  192.97    4.59
  -1  -8  -7  183.79    4.85
   1   8   8 2021.43   92.66
   1   8   8 1982.49  105.13
  -1  -8  -8 1957.58   93.14
  -1  -8  -8 1971.99  102.27
   1   8   9  114.60    2.84
   1   8   9  127.39    4.94
  -1  -8  -9  114.08    3.20
  -1  -8  -9  117.65    4.31
   1   8  10  538.93   15.51
   1   8  10  553.18   23.31
  -1  -8 -10  539.27   21.00
  -1  -8 -10  551.70   17.78
   1   8  11  117.62    2.84
  -1  -8 -11  121.43    3.75
  -1  -8 -11  132.77    6.20
   1   8  12    1.44    0.24
  -1  -8 -12    1.32    0.79
  -1  -8 -12    1.76    0.54
   1   8  13  263.21    7.44
  -1  -8 -13  319.33   13.60
  -1  -8 -13  297.52   10.61
  -1  -8 -14  281.59   11.00
  -1  -8 -14  331.16   17.36
   1   8  15   19.04    2.39
  -1  -8 -15   21.65    2.44
   1   8  16    4.63    2.08
   1   8  17  282.22   19.39
   1   8  18  105.32    7.75
   1   8  19    3.39    2.73
  -1  -8 -19    5.40    2.69
   1   8  20    3.85    2.24
  -1  -8 -20    3.58    2.14
   1   9 -11   23.75    4.14
   1   9 -11   30.17    3.66
   1   9 -10   89.07    5.01
   1   9 -10  102.00    8.68
   1   9  -9   94.04    6.06
   1   9  -8    2.46    1.61
  -1  -9   7   14.76    2.18
  -1  -9   6   99.71    6.20
  -1  -9   6   73.83    4.09
  -1  -9   5   66.64    3.42
  -1  -9   5   85.45    5.23
  -1  -9   4  135.46    7.30
  -1  -9   4  131.97    5.12
   1   9  -3    4.57    1.20
  -1  -9   3    5.50    0.72
  -1  -9   3    5.24    1.01
   1   9  -2  186.07    6.69
  -1  -9   2  194.46    8.21
  -1  -9   2  185.63    5.77
   1   9  -1   18.26    1.42
  -1  -9   1   13.55    0.92
   1   9   0   49.18    1.15
   1   9   0   46.77    1.23
   1   9   0   50.58    2.38
  -1  -9   0   51.04    1.68
   1   9   1  339.14   11.30
   1   9   1  313.38   10.99
   1   9   1  361.16    9.32
  -1  -9  -1  332.25   10.16
   1   9   2  114.46    4.21
   1   9   2  117.54    3.81
   1   9   2  103.22    2.68
  -1  -9  -2  109.88    3.28
   1   9   3    1.82    0.64
   1   9   3    2.17    0.52
   1   9   3    2.71    0.41
   1   9   3    2.50    0.56
   1   9   4   11.86    0.87
   1   9   4   11.39    0.81
   1   9   4   10.38    0.98
   1   9   4   12.72    0.95
   1   9   5  247.14    7.88
   1   9   5  237.53    6.86
   1   9   5  249.15    7.74
   1   9   5  240.82    6.90
   1   9   6   45.35    1.64
   1   9   6   42.01    1.46
   1   9   6   46.02    2.04
   1   9   6   45.96    2.18
   1   9   7 3186.38  187.83
   1   9   7 3230.82  205.65
   1   9   7 3175.62  189.99
   1   9   7 3253.43  205.49
   1   9   8  226.97    7.94
   1   9   8  228.45    8.27
   1   9   8  222.38    5.68
  -1  -9  -8  210.99    6.12
   1   9   9  404.23   11.58
   1   9   9  417.52   16.37
  -1  -9  -9  403.21   12.20
   1   9  10  131.20    3.36
   1   9  10  147.57    6.34
  -1  -9 -10  138.73    4.24
  -1  -9 -10  139.31    5.36
   1   9  11  323.13   12.23
   1   9  11  290.99    7.27
  -1  -9 -11  325.53   12.58
  -1  -9 -11  313.72    9.71
   1   9  12  116.67    6.21
  -1  -9 -12  101.42    3.93
  -1  -9 -12  112.70    6.46
  -1  -9 -13  112.63    4.57
  -1  -9 -13  121.80    5.94
   1   9  14    2.05    0.25
  -1  -9 -14    3.33    1.09
  -1  -9 -15    5.24    2.00
  -1  -9 -16   51.98    5.61
  -1  -9 -17  227.31   16.36
   1   9  18  110.34    7.80
   1   9  19    6.58    3.03
   1   9  20  268.91   20.18
   1   9  20  255.51   19.90
   1  10 -10   12.03    2.70
   1  10 -10    9.06    2.88
   1  10  -9   25.17    3.53
   1  10  -9   21.27    4.03
   1  10  -8   89.40    6.52
   1  10  -7   11.47    1.46
   1  10  -4   59.46    3.14
   1  10  -3  243.73    9.85
  -1 -10   3  237.10    8.16
   1  10  -2   48.23    3.05
  -1 -10   2   46.02    1.97
   1  10  -1   17.02    1.50
   1  10  -1   13.05    0.43
   1  10  -1   11.75    0.49
  -1 -10   1   13.47    1.04
   1  10   0  195.19    5.07
   1  10   0  208.80    8.12
   1  10   0  209.76    4.83
   1  10   0  209.72    7.69
  -1 -10   0  205.57    6.59
   1  10   1 1885.93   99.39
   1  10   1 1832.08   82.22
   1  10   1 1836.71   93.32
  -1 -10  -1 1810.12   89.24
   1  10   2 1853.39   88.76
   1  10   2 2003.37  104.43
   1  10   2 1907.02  104.02
   1  10   3    3.29    0.82
   1  10   3    2.63    0.48
   1  10   3    3.86    0.68
   1  10   3    3.26    0.60
   1  10   4  512.32   18.68
   1  10   4  501.62   17.60
   1  10   4  492.90   16.88
   1  10   4  535.03   18.14
   1  10   5  153.24    5.17
   1  10   5  152.50    5.15
   1  10   5  157.44    5.31
   1  10   5  151.96    4.89
   1  10   6  235.33    7.31
   1  10   6  248.93    8.43
   1  10   6  249.32    7.68
   1  10   6  250.42    9.03
   1  10   7    6.78    1.00
   1  10   7    6.28    0.60
   1  10   7    6.11    1.10
   1  10   7    7.40    0.62
   1  10   8   44.57    2.06
   1  10   8   40.30    2.30
   1  10   8   35.67    1.26
   1  10   8   38.56    1.48
   1  10   9    4.39    0.94
   1  10   9    3.69    1.05
   1  10   9    2.11    0.38
  -1 -10  -9    3.35    0.55
   1  10  10  322.54    8.82
   1  10  10  386.79   16.25
   1  10  10  356.20   14.62
  -1 -10 -10  326.74   10.23
   1  10  11    4.20    1.01
   1  10  11    5.38    1.21
   1  10  11    3.16    0.29
  -1 -10 -11    3.14    0.67
   1  10  12   77.40    3.90
  -1 -10 -12   65.26    2.59
   1  10  13   37.18    3.40
  -1 -10 -13   32.85    2.69
   1  10  14   26.98    3.20
  -1 -10 -14   24.42    2.55
   1  10  15   88.45    6.49
  -1 -10 -15   82.53    5.52
  -1 -10 -16  105.59    6.99
   1  10  18    2.40    1.10
   1  10  19   26.64    4.27
   1  10  20   44.76    6.12
   1  11  -9   39.14    5.06
   1  11  -8   21.86    4.51
   1  11  -7   38.34    5.37
   1  11  -6    8.98    2.51
   1  11  -6    6.12    1.64
   1  11  -5  762.65   41.62
   1  11  -5  792.60   42.69
   1  11  -4  120.66    7.35
   1  11  -3  134.84    7.43
   1  11  -2   12.54    1.81
   1  11  -1   19.33    2.01
   1  11  -1   21.95    1.83
  -1 -11   1   15.34    1.30
   1  11   0  141.75    6.88
   1  11   0  135.31    5.81
   1  11   0  125.15    2.93
  -1 -11   0  122.22    4.11
   1  11   1   46.85    3.18
   1  11   1   40.05    1.20
   1  11   1   46.40    2.76
  -1 -11  -1   45.16    1.97
   1  11   2    8.09    0.82
   1  11   2    7.66    0.82
   1  11   2    7.23    1.37
   1  11   2    7.64    0.72
   1  11   3   23.39    1.15
   1  11   3   28.77    1.48
   1  11   3   27.62    1.75
   1  11   3   28.24    2.07
   1  11   4  265.58    8.37
   1  11   4  244.68    8.49
   1  11   4  249.62    8.78
   1  11   4  266.45    9.89
   1  11   5   68.29    2.71
   1  11   5   65.79    2.78
   1  11   5   61.39    2.52
   1  11   5   67.27    2.97
   1  11   6  254.24    8.58
   1  11   6  259.96    8.93
   1  11   6  245.64    8.55
   1  11   6  257.51    9.83
   1  11   7   35.55    1.68
   1  11   7   39.50    2.37
   1  11   7   39.14    2.09
   1  11   8   78.64    2.94
   1  11   8   81.52    3.79
   1  11   8   85.93    4.31
   1  11   8   74.56    2.37
   1  11   9    2.27    0.41
   1  11   9    2.30    0.58
   1  11   9    1.58    0.77
   1  11   9    2.61    0.90
   1  11  10   45.88    3.35
   1  11  10   42.95    2.97
   1  11  11    4.63    1.36
   1  11  11    2.86    0.42
   1  11  11    4.50    1.19
  -1 -11 -11    3.34    0.59
   1  11  12   59.58    4.40
   1  11  12   47.63    3.96
   1  11  13   51.15    4.83
   1  11  13   51.79    3.33
   1  11  14   25.06    2.44
   1  11  15   96.96    6.09
   1  11  16    4.75    2.11
   1  11  17    1.81    1.71
   1  11  17    0.71    1.42
   1  11  18    9.76    2.73
   1  11  18   13.27    2.71
   1  11  19   17.51    3.54
   1  12  -7   74.26    7.51
   1  12  -7   71.34    8.39
   1  12  -6   93.51    7.43
   1  12  -6   51.15    5.42
   1  12  -5   62.58    5.66
   1  12  -4    4.26    1.78
   1  12  -3    6.42    1.36
   1  12  -2   60.10    3.55
   1  12  -2   64.86    4.15
   1  12  -1   84.32    4.51
   1  12  -1  120.94    6.69
   1  12   0    7.43    1.11
   1  12   0    9.41    1.37
   1  12   1  152.19    7.05
   1  12   1  175.83    8.78
   1  12   1  169.26    4.48
   1  12   2  634.39   27.17
   1  12   2  645.16   21.81
   1  12   2  569.42   21.70
   1  12   2  676.64   31.13
   1  12   3    2.65    1.06
   1  12   3    2.60    0.49
   1  12   3    3.08    0.88
   1  12   3    2.27    0.69
   1  12   4  548.76   19.73
   1  12   4  542.49   21.86
   1  12   4  558.74   23.49
   1  12   4  511.58   18.95
   1  12   5  996.21   45.04
   1  12   5 1023.95   47.72
   1  12   5 1001.26   44.77
   1  12   5 1078.21   47.68
   1  12   6   94.64    4.09
   1  12   6   97.26    3.49
   1  12   6   87.99    4.20
   1  12   6   99.46    4.05
   1  12   7   57.74    2.66
   1  12   7   59.03    3.03
   1  12   7   59.04    2.75
   1  12   7   79.46    3.46
   1  12   8  446.96   18.38
   1  12   8  392.02   14.07
   1  12   8  423.90   15.56
   1  12   8  448.10   19.54
   1  12   9 1186.22   53.13
   1  12   9 1239.39   57.46
   1  12   9 1246.37   64.34
   1  12   9 1318.71   70.67
   1  12  10  566.79   25.01
   1  12  10  497.28   18.30
   1  12  10  473.93   16.35
   1  12  10  523.33   22.00
   1  12  11   61.00    4.89
   1  12  11   63.22    2.64
   1  12  11   68.40    4.39
   1  12  12    8.22    1.50
   1  12  12    7.23    1.76
   1  12  13   42.40    3.37
   1  12  13   41.53    3.05
   1  12  14    6.76    1.65
   1  12  14    4.78    1.49
   1  12  15   12.31    2.92
   1  12  15    9.74    2.61
   1  12  16   14.37    3.20
   1  12  17   20.43    3.05
   1  12  18  112.79   10.61
   1  12  19    3.63    2.81
   1  12  19    4.63    2.28
   1  13  -6   58.34    6.29
   1  13  -6   96.60    8.91
   1  13  -5   59.25    6.13
   1  13  -4   96.93    7.80
   1  13  -3   26.12    3.93
   1  13  -3   20.83    2.48
   1  13  -2  414.95   24.78
   1  13  -2  390.03   21.56
   1  13  -1    9.01    2.23
   1  13  -1    7.39    1.87
   1  13   0    8.80    2.11
   1  13   0    8.06    1.65
   1  13   1   26.66    1.46
   1  13   1   31.12    2.46
   1  13   1   34.05    2.55
   1  13   2  677.06   30.55
   1  13   2  602.61   23.96
   1  13   2  638.16   22.24
   1  13   2  717.26   34.94
   1  13   3  378.40   13.97
   1  13   3  431.57   20.02
   1  13   3  379.87   13.12
   1  13   3  397.54   15.46
   1  13   4  332.04   12.56
   1  13   4  354.05   15.83
   1  13   4  362.07   12.88
   1  13   4  334.42   14.01
   1  13   5   32.07    2.14
   1  13   5   33.57    2.39
   1  13   5   34.33    1.92
   1  13   5   24.72    1.88
   1  13   6   11.25    1.16
   1  13   6   13.45    1.45
   1  13   6   14.28    1.41
   1  13   6   12.85    1.13
   1  13   7    4.55    0.80
   1  13   7    4.03    0.86
   1  13   7    1.68    0.98
   1  13   7    4.19    1.07
   1  13   8   79.91    4.48
   1  13   8   71.49    3.24
   1  13   8   72.66    3.16
   1  13   8   75.53    3.88
   1  13   9  169.82    6.06
   1  13   9  163.22    5.96
   1  13   9  193.75    9.25
   1  13   9  178.07    8.06
   1  13  10   28.49    2.51
   1  13  10   27.15    1.83
   1  13  10   20.93    1.31
   1  13  10   32.92    3.01
   1  13  11   58.87    3.24
   1  13  11   49.46    1.85
   1  13  11   52.97    2.43
   1  13  11   72.65    3.70
   1  13  12   64.64    4.40
   1  13  12   59.30    4.13
   1  13  12   55.94    2.79
   1  13  13    8.36    2.37
   1  13  13   10.54    2.13
   1  13  14  175.18   12.10
   1  13  14  156.69   10.51
   1  13  15   88.14    7.90
   1  13  15   83.14    5.77
   1  13  16   67.54    5.84
   1  13  16   64.57    6.47
   1  13  17   35.40    4.37
   1  13  17   32.85    5.03
   1  13  18   26.13    3.67
   1  13  19   55.89    7.90
   1  14  -5   28.54    4.77
   1  14  -4    5.26    2.14
   1  14  -4    4.64    1.71
   1  14  -3    9.83    2.39
   1  14  -3    7.45    2.47
   1  14  -2  151.94   10.68
   1  14  -2  172.85   12.92
   1  14  -1  212.97   11.14
   1  14  -1  222.26   14.82
   1  14   0  249.84   13.26
   1  14   0  242.04   13.39
   1  14   1   15.34    2.56
   1  14   1   14.35    2.03
   1  14   1   10.70    1.23
   1  14   2   87.03    5.21
   1  14   2  104.88    5.23
   1  14   3   20.64    1.78
   1  14   3   28.34    2.55
   1  14   3   33.06    2.98
   1  14   4   40.26    1.98
   1  14   4   44.40    2.90
   1  14   4   46.20    3.41
   1  14   4   44.03    2.08
   1  14   5  589.83   24.16
   1  14   5  614.54   28.35
   1  14   5  520.62   21.23
   1  14   5  611.07   24.02
   1  14   6  101.21    4.89
   1  14   6   97.01    4.62
   1  14   6  101.81    5.28
   1  14   6  104.92    4.96
   1  14   7   93.40    4.21
   1  14   7   94.36    4.03
   1  14   7  101.21    5.16
   1  14   7   91.05    4.48
   1  14   8   44.15    3.26
   1  14   8   37.71    2.37
   1  14   8   40.48    2.51
   1  14   8   48.54    2.22
   1  14   9   50.40    2.54
   1  14   9   43.71    2.11
   1  14   9   49.93    3.64
   1  14   9   44.15    3.15
   1  14  10  197.93    7.96
   1  14  10  195.58    7.47
   1  14  10  202.68    9.94
   1  14  10  224.47   11.80
   1  14  11   78.95    3.14
   1  14  11  112.81    6.50
   1  14  11   85.99    4.35
   1  14  11   74.94    3.62
   1  14  12   95.68    5.20
   1  14  12  100.67    6.09
   1  14  12   87.02    3.91
   1  14  13   23.94    1.57
   1  14  13   29.08    3.74
   1  14  13   23.85    2.49
   1  14  14  168.24   11.06
   1  14  14  140.41    6.65
   1  14  14  183.44   10.50
   1  14  15    5.12    1.97
   1  14  15    2.99    1.72
   1  14  16    3.33    1.95
   1  14  16    5.63    1.69
   1  14  17   29.93    4.73
   1  14  17   30.75    5.37
   1  14  18   17.27    4.70
   1  14  18   17.72    3.20
   1  15  -3   74.55    5.81
   1  15  -3   28.58    4.76
   1  15  -2   20.60    3.61
   1  15  -2   22.59    4.63
   1  15  -1   57.19    5.47
   1  15  -1   55.69    5.25
   1  15   0  322.05   18.26
   1  15   0  298.20   17.72
   1  15   1  181.74   10.42
   1  15   1  174.36   10.68
   1  15   2   16.24    2.50
   1  15   2    7.72    1.99
   1  15   3  102.24    5.04
   1  15   3  121.77    7.42
   1  15   3   93.87    4.31
   1  15   4   26.60    3.20
   1  15   4   30.24    1.93
   1  15   4   29.71    2.06
   1  15   5   52.08    3.59
   1  15   5   36.73    2.55
   1  15   5   41.14    2.48
   1  15   5   45.70    2.55
   1  15   6   57.87    3.76
   1  15   6   55.82    2.76
   1  15   6   59.66    3.43
   1  15   6   54.12    3.56
   1  15   7    1.74    0.93
   1  15   7    1.64    0.80
   1  15   7    0.81    0.84
   1  15   7    1.80    0.83
   1  15   8   86.21    4.11
   1  15   8   78.56    4.15
   1  15   8   82.40    4.07
   1  15   8   98.40    5.37
   1  15   9   16.19    2.10
   1  15   9   13.31    1.25
   1  15   9   10.55    1.79
   1  15   9   13.54    1.25
   1  15  10    7.59    1.73
   1  15  10    5.87    1.50
   1  15  10    6.68    1.10
   1  15  10    6.59    1.00
   1  15  11    3.46    0.76
   1  15  11    4.53    1.38
   1  15  11    2.88    1.66
   1  15  12   48.27    4.03
   1  15  12   58.48    4.67
   1  15  12   34.27    2.37
   1  15  13    2.68    1.37
   1  15  13   -0.54    0.88
   1  15  14   79.77    6.69
   1  15  14   91.88    8.01
   1  15  15   86.53    7.58
   1  15  15   87.65    8.93
   1  15  16   29.26    5.55
   1  15  16   34.83    4.68
   1  15  17   64.48    7.40
   1  15  17   80.04    8.91
   1  15  18   30.80    5.61
   1  15  18   37.03    5.09
   1  16  -1    4.66    1.87
   1  16  -1    1.49    1.89
   1  16   0   59.54    6.29
   1  16   0   47.11    4.03
   1  16   1   46.60    5.58
   1  16   1   45.11    4.49
   1  16   2    4.95    1.25
   1  16   2    4.91    2.16
   1  16   3   18.47    2.40
   1  16   3   20.48    2.60
   1  16   4    3.99    1.44
   1  16   4    5.80    1.79
   1  16   5    3.61    1.37
   1  16   5    1.64    1.13
   1  16   6   13.20    1.60
   1  16   6    9.81    1.23
   1  16   6    5.78    1.14
   1  16   6   10.44    1.84
   1  16   7    0.80    0.74
   1  16   7    0.19    0.68
   1  16   7   -0.13    0.68
   1  16   7   -0.11    0.83
   1  16   8    9.11    1.48
   1  16   8    9.48    1.41
   1  16   8    6.17    1.44
   1  16   8   11.42    1.55
   1  16   9   58.33    3.57
   1  16   9   71.66    4.76
   1  16   9   58.09    3.87
   1  16   9   53.39    3.24
   1  16  10   20.91    1.67
   1  16  10   22.87    2.90
   1  16  10   25.25    2.41
   1  16  10   16.80    1.80
   1  16  11   18.44    2.31
   1  16  11   13.90    1.37
   1  16  11   15.42    2.75
   1  16  12   21.33    3.66
   1  16  12   29.84    3.09
   1  16  13   36.01    4.60
   1  16  13   33.66    3.88
   1  16  14    2.91    1.66
   1  16  14    1.61    2.05
   1  16  15   87.28    8.19
   1  16  15   95.17    9.15
   1  16  16   43.68    5.52
   1  16  16   50.68    6.81
   1  16  17    6.90    2.18
   1  16  17   10.60    3.53
   1  17   1    4.85    2.54
   1  17   1    4.98    2.07
   1  17   2    3.42    1.63
   1  17   2    3.19    1.69
   1  17   3    8.49    2.09
   1  17   3    9.40    2.63
   1  17   4   23.24    3.79
   1  17   4   28.88    3.06
   1  17   5   43.39    3.77
   1  17   5   41.17    4.40
   1  17   6   18.22    2.32
   1  17   6   17.99    2.74
   1  17   7    6.62    1.45
   1  17   7    6.26    1.73
   1  17   8   61.44    3.88
   1  17   8   31.29    3.59
   1  17   8   55.86    4.12
   1  17   9   78.03    4.99
   1  17   9   68.46    3.81
   1  17   9   58.27    3.63
   1  17   9   63.36    4.33
   1  17  10   42.02    3.81
   1  17  10   48.48    3.54
   1  17  10   35.58    2.94
   1  17  11  163.68    8.93
   1  17  11  208.18   12.71
   1  17  12  253.78   15.44
   1  17  12  323.02   19.25
   1  17  13   63.16    5.27
   1  17  13   52.48    6.54
   1  17  14   22.50    3.56
   1  17  14   24.13    4.22
   1  17  15    7.92    2.52
   1  17  15    9.23    3.06
   1  18   4   32.28    3.49
   1  18   4   29.55    3.71
   1  18   5   48.61    5.02
   1  18   5   40.77    4.24
   1  18   6    9.75    2.05
   1  18   6   11.94    2.58
   1  18   7   14.76    2.79
   1  18   7   19.51    2.35
   1  18   8   26.20    2.68
   1  18   8   27.58    2.71
   1  18  10    3.63    1.67
   1  18  11    5.84    2.11
   1  18  12  187.29   12.22
   1  18  12  251.92   16.40
   1  18  13    9.97    2.36
   1  18  13   10.31    2.96
  -2  17  13   59.42    6.81
  -2  17  13   41.43    4.45
  -2  17  12    0.44    1.97
  -2  17  12    2.08    1.37
  -2  17  11   72.45    7.20
  -2  17  11   52.52    5.44
  -2  17  10    5.18    1.69
  -2  17  10    4.54    1.83
  -2  17   9    4.21    1.86
  -2  17   9    2.96    1.72
  -2  17   8    1.50    1.54
  -2  17   8    2.37    1.54
  -2  17   7    8.64    1.81
  -2  17   6    3.79    2.13
  -2  17   6    5.89    1.49
  -2  17   5   26.34    3.65
  -2  17   5   29.79    4.17
  -2  17   4   15.66    3.13
  -2  16  15    3.53    1.80
  -2  16  15    2.64    1.69
  -2  16  15    9.44    2.97
  -2  16  14    6.90    2.05
  -2  16  14    9.65    2.60
  -2  16  14    8.54    2.04
  -2  16  13   10.01    3.23
  -2  16  12   50.69    5.52
  -2  16  12   30.74    3.70
  -2  16  11   47.54    4.63
  -2  16  11   75.86    6.62
  -2  16  10   32.81    3.50
  -2  16  10   36.60    4.58
  -2  16   9  151.14   10.52
  -2  16   9  142.06    9.46
  -2  16   8   41.11    4.23
  -2  16   8   42.00    4.07
  -2  16   7    6.89    1.51
  -2  16   7    9.03    2.02
  -2  16   7    8.00    1.95
  -2  16   6   32.09    3.50
  -2  16   6   43.31    4.25
  -2  16   6   45.21    3.87
  -2  16   5   84.51    6.58
  -2  16   5  102.74    7.71
  -2  16   4  145.87   10.39
  -2  16   4  133.86    9.37
  -2  16   3   85.03    6.95
  -2  16   3   81.25    5.96
  -2  16   2   32.91    4.54
  -2  16   2   34.01    4.50
  -2  16   1   36.23    5.04
  -2  16   1   33.50    3.70
  -2  15  16    8.01    2.23
  -2  15  16    4.08    3.44
  -2  15  15   24.24    2.71
  -2  15  15   40.67    4.80
  -2  15  15   37.49    4.04
  -2  15  14   24.98    5.24
  -2  15  14   30.57    3.30
  -2  15  14   22.64    3.22
  -2  15  13   12.08    3.05
  -2  15  13    6.92    1.78
  -2  15  13    7.73    1.89
  -2  15  12    6.65    1.50
  -2  15  12    6.80    1.99
  -2  15  12    6.25    1.76
  -2  15  11    9.86    2.15
  -2  15  11   20.50    3.01
  -2  15  11   11.96    1.72
  -2  15  10  115.63    7.27
  -2  15  10  108.65    7.49
  -2  15   9  302.02   17.61
  -2  15   9  278.82   13.83
  -2  15   8  157.46    9.29
  -2  15   8  147.56    8.60
  -2  15   8  120.38    5.87
  -2  15   7    6.81    1.35
  -2  15   7   11.33    1.97
  -2  15   7    8.61    1.93
  -2  15   6    5.87    1.60
  -2  15   6    5.17    1.37
  -2  15   6    6.01    1.73
  -2  15   5   87.01    5.45
  -2  15   5  101.44    5.89
  -2  15   5   88.92    5.64
  -2  15   4   94.48    6.71
  -2  15   4   92.57    6.08
  -2  15   4   82.33    4.70
  -2  15   3   95.84    7.11
  -2  15   3   82.29    6.88
  -2  15   2    3.83    1.61
  -2  15   2    0.50    1.58
  -2  15   1   32.05    4.13
  -2  15   1   27.27    3.30
  -2  15   0    7.90    2.58
  -2  15   0    6.66    2.49
  -2  15  -1   17.68    3.60
  -2  15  -1   14.81    2.91
  -2  14  17    2.44    1.98
  -2  14  17    2.91    2.09
  -2  14  16   94.13    7.93
  -2  14  16   85.49    8.78
  -2  14  15  206.86   13.88
  -2  14  15  172.17   12.09
  -2  14  14  190.25   13.85
  -2  14  14  141.45    9.07
  -2  14  13    5.53    2.20
  -2  14  13    1.24    1.08
  -2  14  13    4.97    1.37
  -2  14  12   89.87    7.58
  -2  14  12   65.83    5.63
  -2  14  11    4.80    1.53
  -2  14  11    6.98    1.63
  -2  14  11    4.46    1.23
  -2  14  10   17.98    2.60
  -2  14  10   24.69    3.28
  -2  14   9   41.13    2.20
  -2  14   9   61.03    4.59
  -2  14   9   54.81    3.92
  -2  14   8  161.30    6.22
  -2  14   8  196.82    9.88
  -2  14   8  218.11   11.14
  -2  14   8  163.69    6.14
  -2  14   7    1.37    1.37
  -2  14   7    2.97    1.30
  -2  14   7    2.90    0.74
  -2  14   6   41.19    3.10
  -2  14   6   56.31    3.38
  -2  14   6   47.53    3.85
  -2  14   5   86.58    5.31
  -2  14   5  109.14    6.61
  -2  14   5   97.11    5.83
  -2  14   4   67.44    4.05
  -2  14   4   63.32    3.82
  -2  14   4   56.21    4.26
  -2  14   3  121.80    5.98
  -2  14   3  121.36    8.17
  -2  14   3  123.18    7.47
  -2  14   2    4.14    1.06
  -2  14   2    5.35    1.71
  -2  14   2    5.18    1.80
  -2  14   1  137.26    8.11
  -2  14   1  159.71    8.72
  -2  14   0   16.39    2.32
  -2  14  -1   60.92    4.68
   2 -14   2   -0.05    1.13
  -2  14  -2    0.40    1.07
   2 -14   3   14.58    3.05
  -2  14  -3   16.72    2.81
  -2  13  18   89.81    9.32
  -2  13  17   32.27    4.71
  -2  13  16   11.45    2.70
  -2  13  16    9.25    3.67
  -2  13  15    3.09    1.55
  -2  13  15    0.72    2.24
  -2  13  14   42.73    4.33
  -2  13  14   51.45    6.01
   2 -13 -13    6.61    1.66
  -2  13  13    6.16    1.65
  -2  13  13    5.47    1.94
   2 -13 -12   95.32    5.91
  -2  13  12  102.88    6.61
  -2  13  12   93.46    5.72
  -2  13  11   23.65    2.13
  -2  13  11   28.12    3.71
  -2  13  10   41.03    4.22
  -2  13  10   35.06    2.44
  -2  13  10   37.23    3.38
  -2  13   9   72.71    4.89
  -2  13   9   92.16    6.13
  -2  13   8    7.55    0.74
  -2  13   8    8.72    1.61
  -2  13   8    9.04    1.84
  -2  13   8    6.38    0.84
  -2  13   7   51.08    2.12
  -2  13   7   53.81    2.51
  -2  13   7   77.41    3.32
  -2  13   7   69.00    4.61
  -2  13   6   88.48    5.15
  -2  13   6   87.75    4.36
  -2  13   6   68.40    2.35
  -2  13   5  231.81   10.29
  -2  13   5  265.51   12.03
  -2  13   5  249.35   12.66
  -2  13   4  145.37    7.97
  -2  13   4  125.56    6.69
  -2  13   4  131.63    6.64
  -2  13   3   28.92    2.30
  -2  13   3   32.69    2.04
  -2  13   3   21.09    2.07
  -2  13   2   21.73    1.91
  -2  13   2   24.85    2.87
   2 -13  -1    2.23    1.08
  -2  13   1    3.26    0.71
  -2  13   1    2.94    1.11
   2 -13   0    8.59    1.59
  -2  13   0   10.07    2.06
  -2  13   0    6.86    0.95
   2 -13   1   25.87    3.83
  -2  13  -1   30.97    2.78
   2 -13   2   12.31    3.20
  -2  13  -2   17.20    2.33
   2 -13   3  126.56    9.92
  -2  13  -3  106.20    7.33
   2 -13   4  117.12   10.80
  -2  13  -4  111.67    9.87
   2 -13   5  140.72   11.07
  -2  12  19   66.79    9.20
  -2  12  19   89.86    8.88
  -2  12  18   43.29    7.33
  -2  12  18   82.42    7.21
  -2  12  17   18.12    2.78
  -2  12  17   18.18    3.50
  -2  12  16    3.49    1.50
  -2  12  15    2.27    1.55
   2 -12 -14   27.98    3.16
  -2  12  14   35.68    4.84
  -2  12  14   34.22    3.54
   2 -12 -13   18.48    2.43
  -2  12  13   25.26    2.62
  -2  12  13   18.89    2.90
   2 -12 -12   75.73    4.96
  -2  12  12   87.10    5.31
  -2  12  12   69.81    4.83
   2 -12 -11  490.50   22.98
  -2  12  11  523.84   25.93
  -2  12  11  463.88   20.92
  -2  12  10  219.28   12.08
  -2  12  10  184.27    8.31
  -2  12   9    0.87    0.35
  -2  12   9    0.89    0.68
  -2  12   9    1.65    0.90
  -2  12   9    1.93    0.73
  -2  12   8    7.84    1.38
  -2  12   8    6.30    0.85
  -2  12   8    9.56    1.69
  -2  12   8    4.62    0.56
  -2  12   7   42.46    2.98
  -2  12   7   35.16    1.79
  -2  12   7   47.39    2.54
  -2  12   7   34.00    1.53
  -2  12   6  110.89    3.57
  -2  12   6  137.64    5.71
  -2  12   6  135.66    6.58
  -2  12   6  128.33    4.96
  -2  12   5  144.23    7.25
  -2  12   5  129.92    5.58
  -2  12   5  141.34    6.83
  -2  12   5  118.83    3.81
  -2  12   4   39.85    2.71
  -2  12   4   38.64    3.13
  -2  12   4   31.74    1.95
   2 -12  -3    4.35    1.11
  -2  12   3    4.07    1.32
  -2  12   3    2.94    1.01
   2 -12  -2   24.75    2.46
  -2  12   2   32.03    2.76
  -2  12   2   27.42    1.92
   2 -12  -1   19.54    2.48
  -2  12   1   25.40    2.60
  -2  12   1   21.10    1.41
   2 -12   0   59.92    4.70
  -2  12   0   61.66    3.88
  -2  12   0   56.98    2.63
   2 -12   1   21.47    2.12
  -2  12  -1   14.71    1.11
  -2  12  -1   19.59    2.53
   2 -12   2   30.12    3.95
  -2  12  -2   32.53    2.83
   2 -12   3   61.80    6.27
   2 -12   4  278.76   16.83
   2 -12   5    4.51    2.52
   2 -12   6    8.01    2.53
  -2  11  19    2.36    1.91
  -2  11  19    0.14    2.21
  -2  11  18  261.16   20.23
  -2  11  18  271.25   19.47
  -2  11  17  130.90   11.26
  -2  11  17  146.02   10.93
  -2  11  16   30.68    4.20
  -2  11  16   32.60    5.27
   2 -11 -15   20.83    2.60
  -2  11  15   18.93    2.26
   2 -11 -14  202.62   10.83
  -2  11  14  209.63   10.39
   2 -11 -13   72.87    5.08
  -2  11  13   87.60    5.47
   2 -11 -12   71.94    4.63
  -2  11  12  101.50    6.59
  -2  11  12   76.80    4.88
   2 -11 -11  122.92    6.46
  -2  11  11  127.33    8.15
  -2  11  11  112.82    5.92
   2 -11 -10    7.21    1.10
  -2  11  10    7.57    1.21
  -2  11  10    6.45    1.86
   2 -11  -9  629.12   28.95
  -2  11   9  618.06   26.54
  -2  11   9  667.68   33.78
  -2  11   8  197.08    9.26
  -2  11   8  189.56   10.10
  -2  11   8  181.25    7.18
  -2  11   7  104.21    5.01
  -2  11   7   81.69    4.04
  -2  11   7   78.87    2.67
  -2  11   7   88.71    3.30
  -2  11   6   37.88    1.84
  -2  11   6   43.54    2.92
  -2  11   6   51.42    3.15
  -2  11   5   32.93    2.39
  -2  11   5   29.19    2.40
  -2  11   5   27.39    0.94
  -2  11   5   26.56    1.70
   2 -11  -4  166.32    6.48
  -2  11   4  173.13    7.17
  -2  11   4  169.45    6.86
  -2  11   4  143.86    4.00
   2 -11  -3  230.04    8.16
  -2  11   3  204.73    5.25
  -2  11   3  235.22    9.28
  -2  11   3  268.86   11.29
   2 -11  -2   57.24    2.91
  -2  11   2   66.00    4.05
  -2  11   2   70.18    3.05
   2 -11  -1   49.56    3.60
  -2  11   1   52.71    2.58
  -2  11   1   63.82    3.74
   2 -11   0   47.98    4.09
  -2  11   0   51.37    2.39
  -2  11   0   52.30    4.00
   2 -11   1  777.56   36.66
  -2  11  -1  720.82   27.82
  -2  11  -1  788.94   38.94
   2 -11   2    2.22    1.07
  -2  11  -2    1.86    0.57
   2 -11   3   86.58    4.42
  -2  11  -3   56.86    2.22
   2 -11   4    2.26    1.27
   2 -11   5  190.85   13.61
   2 -11   6   25.86    3.34
  -2  11  -6   22.65    2.93
   2 -11   7   20.63    3.53
  -2  11  -7   25.05    4.15
  -2  10  19   17.19    4.11
  -2  10  19   10.06    3.35
  -2  10  18   44.17    6.19
  -2  10  18   43.13    5.40
  -2  10  17    6.33    2.17
  -2  10  17    5.20    2.50
   2 -10 -16   16.71    2.66
  -2  10  16   15.13    2.93
  -2  10  16   16.50    3.17
   2 -10 -15   12.25    2.43
  -2  10  15   17.85    3.51
  -2  10  15   18.70    2.19
   2 -10 -14   37.81    3.45
  -2  10  14   38.33    2.98
  -2  10  14   46.69    5.02
   2 -10 -13  261.26   12.53
  -2  10  13  273.56   12.17
   2 -10 -12  319.56   14.76
  -2  10  12  309.05   13.40
   2 -10 -11   26.78    2.36
  -2  10  11   24.68    2.27
   2 -10 -10   53.03    3.11
  -2  10  10   48.53    3.24
  -2  10  10   49.14    2.79
   2 -10  -9   52.68    2.70
  -2  10   9   34.61    0.67
   2 -10  -8  667.93   28.39
  -2  10   8  567.87   17.89
  -2  10   8  692.18   29.23
  -2  10   8  650.32   24.38
  -2  10   7   15.31    1.34
  -2  10   7   14.19    0.67
  -2  10   7   12.39    0.97
  -2  10   7   19.03    1.48
  -2  10   6  165.60    6.94
  -2  10   6  151.95    4.67
  -2  10   6  152.68    4.77
  -2  10   6  176.39    7.46
  -2  10   5  171.75    7.45
  -2  10   5  184.80    7.58
  -2  10   5  161.80    4.42
   2 -10  -4   12.12    1.05
  -2  10   4    6.65    1.48
  -2  10   4   10.20    1.37
   2 -10  -3   37.02    2.01
  -2  10   3   35.65    2.55
  -2  10   3   41.08    2.27
   2 -10  -2  166.50    6.85
  -2  10   2  166.54    7.47
  -2  10   2  170.48    6.37
   2 -10  -1    8.76    1.41
  -2  10   1   10.08    1.54
  -2  10   1    9.18    1.07
   2 -10   0   92.26    5.03
  -2  10   0   88.93    3.52
  -2  10   0   84.99    4.14
   2 -10   1  863.75   39.51
  -2  10  -1  822.91   31.73
   2 -10   2  133.11    6.21
  -2  10  -2  127.92    4.25
   2 -10   3   54.80    3.31
  -2  10  -3   42.21    1.69
   2 -10   4   31.50    3.64
  -2  10  -4   29.09    1.30
   2 -10   5  130.85    7.16
  -2  10  -5  122.04    7.55
  -2  10  -5   98.36    3.75
   2 -10   6    4.24    2.22
  -2  10  -6    5.69    1.56
   2 -10   7  134.44   10.63
  -2  10  -7  116.28    8.02
   2 -10   8   10.84    3.57
  -2  10  -8   14.27    2.48
   2 -10   9   15.78    3.87
  -2  10  -9   11.12    2.66
  -2   9  19    1.98    3.24
  -2   9  19    7.22    2.33
  -2   9  18   14.95    4.53
  -2   9  18   18.92    3.15
   2  -9 -17    7.77    2.22
  -2   9  17    8.59    2.12
  -2   9  17    9.12    2.48
   2  -9 -16  159.28    9.76
  -2   9  16  170.65   11.01
  -2   9  16  165.89    9.94
   2  -9 -15   15.02    2.42
  -2   9  15   18.68    3.35
  -2   9  15   19.02    2.25
   2  -9 -14   70.98    4.76
  -2   9  14   80.37    5.26
  -2   9  14   77.40    5.49
   2  -9 -13  328.25   15.48
  -2   9  13  358.20   20.15
  -2   9  13  326.00   16.57
   2  -9 -12    1.41    0.96
  -2   9  12    1.68    0.97
  -2   9  12    0.75    1.03
   2  -9 -11   80.42    4.35
  -2   9  11   81.80    4.53
   2  -9 -10  573.67   24.36
  -2   9  10  543.24   23.36
   2  -9  -9    2.15    0.96
  -2   9   9    2.85    0.77
   2  -9  -8   41.01    1.98
  -2   9   8   47.62    3.07
  -2   9   8   35.09    1.71
   2  -9  -7   44.57    2.68
  -2   9   7   40.09    1.26
  -2   9   7   45.75    1.94
  -2   9   7   52.54    2.29
  -2   9   6  800.89   28.93
  -2   9   6  859.80   37.54
  -2   9   6  759.47   26.83
  -2   9   5  686.14   28.09
  -2   9   5  674.64   27.68
  -2   9   5  635.78   21.04
   2  -9  -4 1276.21   55.52
  -2   9   4 1365.93   63.96
  -2   9   4 1242.41   49.12
  -2   9   4 1305.48   60.76
   2  -9  -3    1.81    0.55
  -2   9   3    0.67    0.22
  -2   9   3    0.88    0.24
  -2   9   3    0.85    0.64
  -2   9   3    2.53    0.75
   2  -9  -2 1936.45   99.07
  -2   9   2 1840.13   93.99
  -2   9   2 1952.48  103.70
  -2   9   2 1621.40   68.17
   2  -9  -1  560.46   22.55
  -2   9   1  557.68   23.10
  -2   9   1  552.34   20.05
   2  -9   0  211.14    8.78
  -2   9   0  205.22    6.42
   2  -9   1  509.59   20.00
  -2   9  -1  481.25   16.07
   2  -9   2  745.66   32.16
  -2   9  -2  690.00   24.71
   2  -9   3  207.57    8.76
  -2   9  -3  189.75    6.04
   2  -9   4    0.87    1.40
  -2   9  -4    2.51    0.57
  -2   9  -4    3.04    1.25
   2  -9   5    9.99    1.65
  -2   9  -5    7.98    0.71
  -2   9  -5    8.61    1.81
   2  -9   6  363.77   20.71
  -2   9  -6  337.02   18.74
   2  -9   7   35.87    4.63
  -2   9  -7   33.48    3.02
   2  -9   8   31.11    4.35
  -2   9  -8   22.85    2.95
   2  -9   9   56.76    5.32
  -2   9  -9   44.92    5.79
  -2   9 -10    2.83    2.21
  -2   8  19   38.58    7.03
  -2   8  18  110.68   10.61
  -2   8  18   96.06   10.60
   2  -8 -17   44.72    4.66
  -2   8  17   49.00    6.20
  -2   8  17   46.16    6.04
   2  -8 -16  307.99   17.56
  -2   8  16  327.03   19.07
  -2   8  16  336.17   20.86
   2  -8 -15  697.65   37.24
  -2   8  15  776.46   43.70
  -2   8  15  764.08   42.90
   2  -8 -14   56.37    4.36
  -2   8  14   66.05    5.70
  -2   8  14   69.10    5.14
   2  -8 -13   32.24    2.84
  -2   8  13   30.15    3.36
  -2   8  13   40.25    3.01
   2  -8 -12  242.91   10.94
  -2   8  12  268.80   12.35
  -2   8  12  259.65   12.04
   2  -8 -11  487.60   20.86
  -2   8  11  504.02   24.52
  -2   8  11  492.71   21.57
   2  -8 -10  113.74    5.19
  -2   8  10  109.27    5.00
   2  -8  -9  387.06   15.59
  -2   8   9  415.55   15.48
   2  -8  -8    2.03    0.80
  -2   8   8    2.48    0.66
   2  -8  -7  421.33   15.46
  -2   8   7  389.46    9.72
  -2   8   7  432.31   16.88
  -2   8   7  417.62   13.54
   2  -8  -6 1390.75   64.20
  -2   8   6 1308.63   54.66
  -2   8   6 1217.39   46.93
  -2   8   6 1345.82   64.12
   2  -8  -5  396.22   11.03
  -2   8   5  395.78   11.19
  -2   8   5  384.70   14.93
   2  -8  -4  156.13    4.44
  -2   8   4  158.14    3.62
  -2   8   4  153.83    5.99
  -2   8   4  173.77    6.31
   2  -8  -3   73.58    2.57
  -2   8   3   84.11    3.51
  -2   8   3   69.26    3.05
  -2   8   3   71.74    1.64
   2  -8  -2  769.20   27.73
  -2   8   2  727.63   20.94
  -2   8   2  833.68   33.42
  -2   8   2  713.24   20.47
  -2   8   2  785.92   29.93
   2  -8  -1 1226.11   53.97
  -2   8   1 1235.51   51.26
  -2   8   1 1041.26   34.23
   2  -8   0   45.03    2.37
  -2   8   0   43.82    1.82
   2  -8   1  777.67   32.89
  -2   8  -1  740.24   26.95
   2  -8   2  624.72   26.21
  -2   8  -2  598.59   19.84
  -2   8  -2  531.52   15.06
   2  -8   3   63.96    3.16
  -2   8  -3   57.89    2.78
  -2   8  -3   55.84    2.06
   2  -8   4   80.60    4.97
  -2   8  -4   79.35    4.40
   2  -8   5  191.36    8.41
  -2   8  -5  183.56    8.02
  -2   8  -5  158.96    5.42
   2  -8   6   37.81    2.78
  -2   8  -6   31.88    3.21
  -2   8  -6   27.18    1.36
   2  -8   7    3.77    1.31
  -2   8  -7    3.44    1.11
  -2   8  -7    2.31    0.67
   2  -8   8  150.87    8.35
  -2   8  -8  117.98    4.94
  -2   8  -8  144.27    8.95
  -2   8  -9  104.51    7.75
  -2   8 -10   15.56    3.38
  -2   8 -11  115.56   10.46
  -2   7  19   -0.27    1.46
   2  -7 -18   10.93    2.73
  -2   7  18   11.40    3.50
   2  -7 -17  356.55   21.55
  -2   7  17  399.14   23.52
   2  -7 -16   33.16    3.71
  -2   7  16   32.60    4.65
   2  -7 -15  135.33    8.17
  -2   7  15  142.51    9.77
  -2   7  15  146.87   10.30
   2  -7 -14   98.94    6.08
  -2   7  14  109.03    7.45
  -2   7  14  117.83    7.52
   2  -7 -13   79.67    4.38
  -2   7  13   91.04    4.73
  -2   7  13   65.12    5.36
   2  -7 -12   96.01    4.24
  -2   7  12  106.14    5.72
  -2   7  12  105.25    6.40
   2  -7 -11   86.97    3.67
  -2   7  11   99.29    4.92
  -2   7  11   95.10    5.51
   2  -7 -10   75.44    3.70
  -2   7  10   74.59    3.83
  -2   7  10   79.42    4.57
   2  -7  -9  573.84   23.37
  -2   7   9  613.59   24.10
  -2   7   9  618.50   27.02
   2  -7  -8   59.92    2.64
  -2   7   8   49.38    2.41
   2  -7  -7  212.69    7.39
  -2   7   7  197.53    6.22
   2  -7  -6   57.55    2.56
  -2   7   6   55.59    1.18
  -2   7   6   52.72    1.73
   2  -7  -5 1147.27   40.92
   2  -7  -5 1128.04   49.07
  -2   7   5 1190.63   52.02
  -2   7   5 1173.83   44.34
   2  -7  -4  424.94   11.11
   2  -7  -4  414.45   11.46
  -2   7   4  395.02   10.45
  -2   7   4  410.23   14.45
   2  -7  -3  105.17    3.14
  -2   7   3  118.41    4.39
  -2   7   3  112.48    2.39
  -2   7   3  100.03    2.25
   2  -7  -2  978.55   37.31
  -2   7   2  887.87   27.19
  -2   7   2  988.83   38.69
   2  -7  -1 1178.46   48.09
  -2   7   1 1054.74   32.60
  -2   7   1 1179.74   46.98
  -2   7   1 1035.94   32.28
   2  -7   0  229.19    7.42
  -2   7   0  209.53    3.62
  -2   7   0  191.74    3.45
  -2   7   0  221.93    6.30
   2  -7   1   36.16    0.69
  -2   7  -1   42.94    1.58
   2  -7   2  469.45   11.92
   2  -7   2  542.41   19.70
  -2   7  -2  552.97   17.09
  -2   7  -2  511.52   13.34
  -2   7  -2  559.69   20.05
   2  -7   3  254.24   10.25
   2  -7   3  237.55    5.78
  -2   7  -3  237.00    6.62
  -2   7  -3  238.15    9.55
   2  -7   4   63.63    3.03
  -2   7  -4   57.26    2.78
  -2   7  -4   59.05    2.08
   2  -7   5  155.56    6.66
  -2   7  -5  147.95    4.50
  -2   7  -5  154.54    6.24
   2  -7   6    5.58    1.06
  -2   7  -6    3.57    0.88
  -2   7  -6    1.04    0.51
   2  -7   7  119.02    6.12
  -2   7  -7  128.35    6.99
  -2   7  -7  101.80    3.68
   2  -7   8  404.18   18.71
  -2   7  -8  311.95   11.44
  -2   7  -8  413.56   18.19
  -2   7  -9  172.20    8.33
  -2   7  -9  141.50    5.85
  -2   7 -10  112.34    7.87
  -2   7 -10   76.27    3.91
   2  -7  11   30.42    4.85
  -2   7 -11   23.14    4.09
   2  -7  12    2.66    1.92
  -2   7 -12    3.14    2.21
   2  -6 -19    1.84    1.38
  -2   6  19    2.31    1.83
  -2   6  19    1.42    1.75
   2  -6 -18    5.89    2.55
  -2   6  18    9.56    3.27
  -2   6  18   13.25    2.55
   2  -6 -17   29.80    3.66
  -2   6  17   25.44    4.50
  -2   6  17   29.09    3.67
   2  -6 -16   90.64    5.48
  -2   6  16  107.22    6.68
   2  -6 -15  212.90   11.59
  -2   6  15  221.48   13.91
   2  -6 -14 1488.39   85.27
  -2   6  14 1576.25   97.08
   2  -6 -13   11.58    1.81
  -2   6  13   13.07    2.23
   2  -6 -12  263.91   11.35
  -2   6  12  270.98   11.73
  -2   6  12  279.75   11.55
   2  -6 -11  314.04   12.60
  -2   6  11  323.97   12.87
  -2   6  11  316.32   12.07
   2  -6 -10    7.55    1.26
  -2   6  10    9.38    1.01
  -2   6  10    8.99    1.48
   2  -6  -9  273.02    9.95
  -2   6   9  263.41    8.89
  -2   6   9  269.47    9.78
   2  -6  -8  683.30   26.55
  -2   6   8  700.56   25.26
  -2   6   8  713.33   29.51
   2  -6  -7  717.20   27.17
  -2   6   7  689.45   25.16
  -2   6   7  721.27   27.26
   2  -6  -6   15.94    1.14
  -2   6   6   12.38    0.90
  -2   6   6   12.59    0.31
   2  -6  -5 1219.43   42.67
   2  -6  -5 1257.07   54.24
  -2   6   5 1296.93   45.32
  -2   6   5 1230.12   47.72
   2  -6  -4 4336.37  273.70
   2  -6  -4 4300.91  296.44
   2  -6  -4 4360.44  277.47
  -2   6   4 4335.26  300.11
  -2   6   4 4168.32  265.42
  -2   6   4 4267.21  266.70
   2  -6  -3  505.23   14.52
  -2   6   3  477.69   12.05
  -2   6   3  528.44   17.66
   2  -6  -2 1483.71   60.58
  -2   6   2 1246.52   43.66
  -2   6   2 1405.97   49.20
  -2   6   2 1420.32   59.86
   2  -6  -1 1449.99   60.53
  -2   6   1 1337.51   44.19
  -2   6   1 1440.31   60.56
  -2   6   1 1282.04   42.36
   2  -6   0   12.91    1.10
  -2   6   0    9.96    0.91
  -2   6   0   16.27    0.93
   2  -6   1   22.02    0.44
   2  -6   1   24.90    1.16
  -2   6  -1   21.45    1.07
   2  -6   2 2028.49   90.37
   2  -6   2 2410.93  129.96
  -2   6  -2 2398.30  125.87
  -2   6  -2 2316.83  115.16
  -2   6  -2 2197.55   98.47
   2  -6   3    7.10    0.36
   2  -6   3    7.23    0.93
  -2   6  -3    7.37    0.57
  -2   6  -3   10.75    0.85
  -2   6  -3    7.59    0.35
   2  -6   4  159.09    4.29
   2  -6   4  176.28    7.52
  -2   6  -4  168.83    4.91
  -2   6  -4  187.03    6.32
   2  -6   5 1262.36   62.57
   2  -6   5 1126.81   45.66
  -2   6  -5 1255.04   57.79
  -2   6  -5 1177.06   48.59
   2  -6   6   17.01    0.95
   2  -6   6   16.84    2.19
  -2   6  -6   14.59    0.99
  -2   6  -6   15.78    1.49
   2  -6   7   88.93    4.47
  -2   6  -7   86.10    3.99
  -2   6  -7   76.06    2.96
  -2   6  -8  170.85    6.37
  -2   6  -8  202.16    9.86
  -2   6  -9   29.89    2.45
  -2   6  -9   26.98    1.56
  -2   6 -10   88.21    4.72
  -2   6 -10   59.22    2.96
   2  -6  11  333.53   16.95
  -2   6 -11  305.09   14.96
  -2   6 -11  226.57   11.03
   2  -6  12  151.62   12.20
  -2   6 -12  138.91    8.90
   2  -6  13   22.44    4.90
  -2   6 -13   24.31    3.47
   2  -5 -19   19.32    2.95
  -2   5  19   19.58    4.55
  -2   5  19   20.49    3.80
   2  -5 -18  180.93   13.36
  -2   5  18  201.02   13.71
  -2   5  18  183.43   14.92
   2  -5 -17    2.87    1.37
  -2   5  17    4.41    2.13
  -2   5  17    5.23    2.31
   2  -5 -16   13.31    1.97
  -2   5  16   17.04    3.09
  -2   5  16   14.59    3.04
   2  -5 -15   29.66    3.11
  -2   5  15   28.59    2.82
  -2   5  15   28.55    3.73
   2  -5 -14  529.18   25.93
  -2   5  14  567.53   29.60
   2  -5 -13  348.36   15.81
  -2   5  13  366.43   18.27
   2  -5 -12    9.32    1.14
  -2   5  12   11.39    1.40
   2  -5 -11   49.13    2.38
  -2   5  11   64.75    3.66
   2  -5 -10   28.63    1.93
  -2   5  10   24.20    2.29
   2  -5  -9  261.43    8.35
  -2   5   9  265.84    9.27
  -2   5   9  264.09    8.64
   2  -5  -8 1527.71   71.47
  -2   5   8 1511.47   74.30
  -2   5   8 1490.42   68.03
   2  -5  -7   24.03    1.10
  -2   5   7   20.74    1.67
  -2   5   7   21.15    1.35
   2  -5  -6  409.71   13.57
  -2   5   6  392.06   12.79
  -2   5   6  389.01   12.10
   2  -5  -5 1446.25   63.10
  -2   5   5 1450.19   58.55
  -2   5   5 1449.54   50.05
   2  -5  -4 1134.60   45.04
   2  -5  -4 1055.09   34.14
   2  -5  -4 1213.90   41.97
  -2   5   4 1152.75   37.56
  -2   5   4 1121.02   39.17
   2  -5  -3 1394.06   51.83
   2  -5  -3 1316.03   54.59
   2  -5  -3 1421.28   51.14
  -2   5   3 1428.26   51.89
  -2   5   3 1295.58   46.69
   2  -5  -2  131.99    3.27
  -2   5   2  128.21    3.91
  -2   5   2  141.00    2.33
   2  -5  -1  345.22    9.43
  -2   5   1  351.50    9.38
  -2   5   1  330.64    5.85
  -2   5   1  342.40   10.28
   2  -5   0   38.02    1.47
  -2   5   0   34.53    1.36
  -2   5   0   34.96    1.64
   2  -5   1   14.38    1.19
  -2   5  -1   17.76    0.89
  -2   5  -1   15.83    1.15
   2  -5   2 2862.52  163.94
   2  -5   2 2838.08  140.69
  -2   5  -2 2944.79  167.39
  -2   5  -2 2800.94  138.86
  -2   5  -2 2855.05  155.50
   2  -5   3  161.08    3.44
   2  -5   3  173.82    5.50
  -2   5  -3  172.09    4.63
  -2   5  -3  189.57    6.27
  -2   5  -3  171.36    3.89
   2  -5   4    5.67    0.87
   2  -5   4    6.87    0.43
  -2   5  -4    5.58    0.77
  -2   5  -4    7.34    0.63
   2  -5   5   71.55    2.99
   2  -5   5   66.59    1.88
  -2   5  -5   61.97    1.93
  -2   5  -5   67.96    3.28
   2  -5   6   14.57    1.71
   2  -5   6    8.48    0.77
  -2   5  -6   10.43    1.50
  -2   5  -6   11.10    0.93
   2  -5   7   67.49    3.81
   2  -5   7   50.57    2.02
  -2   5  -7   49.09    2.18
  -2   5  -7   60.37    3.52
   2  -5   8   21.70    1.59
  -2   5  -8   19.59    1.44
  -2   5  -8   25.60    2.34
   2  -5   9    2.30    0.76
  -2   5  -9    2.98    0.95
  -2   5  -9    2.55    0.80
   2  -5  10   10.34    1.89
  -2   5 -10    3.57    0.87
  -2   5 -10    5.68    1.26
   2  -5  11  123.31    8.27
  -2   5 -11  116.24    7.54
  -2   5 -11   84.06    4.69
   2  -5  12    4.95    1.69
  -2   5 -12    6.97    2.01
  -2   5 -12    4.00    1.25
   2  -5  13   46.21    4.56
  -2   5 -13   51.67    5.29
  -2   5 -13   36.35    3.29
   2  -5  14   15.28    3.52
  -2   5 -14   25.44    3.28
   2  -4 -19    3.37    2.27
  -2   4  19    3.51    2.39
  -2   4  19    2.32    2.79
   2  -4 -18    1.47    1.78
  -2   4  18    0.62    2.20
  -2   4  18    2.87    1.92
   2  -4 -17  149.67    9.02
  -2   4  17  163.03   12.73
  -2   4  17  154.31   11.97
   2  -4 -16  134.26    8.92
  -2   4  16  139.33    8.80
  -2   4  16  133.91    9.96
   2  -4 -15  265.80   14.14
  -2   4  15  264.97   13.34
  -2   4  15  279.58   14.42
   2  -4 -14  364.80   17.88
  -2   4  14  382.26   20.02
  -2   4  14  378.28   20.43
   2  -4 -13  135.50    6.91
  -2   4  13  146.21    8.24
  -2   4  13  138.27    6.75
   2  -4 -12   22.59    2.06
  -2   4  12   19.64    1.81
  -2   4  12   21.00    1.82
   2  -4 -11  655.61   19.91
   2  -4 -11  692.49   27.34
  -2   4  11  750.65   32.65
   2  -4 -10 1340.52   63.11
  -2   4  10 1313.12   62.68
   2  -4  -9   14.68    1.31
  -2   4   9   14.60    1.48
   2  -4  -8  479.97   15.70
  -2   4   8  485.12   16.87
   2  -4  -7   37.04    1.74
  -2   4   7   32.17    1.90
   2  -4  -6  658.83   21.63
  -2   4   6  651.11   23.21
  -2   4   6  644.63   21.50
  -2   4   5   37.60    1.34
  -2   4   5   35.45    1.27
   2  -4  -4  285.25    6.53
   2  -4  -4  273.46    7.59
   2  -4  -4  262.06    4.80
  -2   4   4  276.44    5.04
  -2   4   4  271.31    6.21
  -2   4   4  264.74    7.66
   2  -4  -3  184.95    3.39
   2  -4  -3  201.62    3.90
   2  -4  -3  195.43    5.37
  -2   4   3  197.21    3.84
  -2   4   3  209.21    3.81
   2  -4  -2   12.93    0.44
   2  -4  -2   13.28    0.31
   2  -4  -2    9.36    0.62
  -2   4   2   13.77    0.49
  -2   4   2   10.83    0.31
   2  -4  -1  792.82   24.76
  -2   4   1  826.07   28.02
  -2   4   1  755.88   18.22
   2  -4   0 1270.83   48.44
  -2   4   0 1302.82   50.42
  -2   4   0 1230.36   47.13
   2  -4   1   75.04    2.06
  -2   4  -1   74.12    2.07
  -2   4  -1   85.68    2.54
  -2   4  -1   75.29    1.01
   2  -4   2 1191.61   39.40
   2  -4   2 1197.76   47.84
  -2   4  -2 1206.29   48.10
  -2   4  -2 1210.75   40.16
  -2   4  -2 1232.69   46.47
   2  -4   3  184.82    5.57
   2  -4   3  186.64    4.04
  -2   4  -3  184.94    4.72
  -2   4  -3  173.99    5.74
  -2   4  -3  183.00    3.77
   2  -4   4  178.17    4.06
   2  -4   4  193.57    6.73
  -2   4  -4  176.55    4.64
  -2   4  -4  170.01    5.03
   2  -4   5  641.85   20.42
   2  -4   5  673.54   24.79
  -2   4  -5  641.13   22.98
  -2   4  -5  651.16   21.55
   2  -4   6 2365.39  125.82
   2  -4   6 2595.95  151.72
  -2   4  -6 2381.72  126.74
  -2   4  -6 2507.83  143.68
   2  -4   7    2.90    0.56
  -2   4  -7    2.40    0.69
  -2   4  -7    1.81    0.59
   2  -4   8   59.18    2.59
  -2   4  -8   56.55    2.33
  -2   4  -8   62.43    3.41
   2  -4   9  784.12   35.53
   2  -4   9  748.44   31.93
  -2   4  -9  706.98   28.74
  -2   4  -9  763.76   35.96
   2  -4  10   37.56    3.25
   2  -4  10   25.72    2.01
  -2   4 -10   36.15    2.93
  -2   4 -10   24.08    1.97
   2  -4  11  122.21    6.38
   2  -4  11  134.23    8.65
  -2   4 -11  131.34    7.76
  -2   4 -11  112.00    5.48
   2  -4  12    4.05    1.92
  -2   4 -12    3.69    1.16
  -2   4 -12    5.51    1.75
   2  -4  13  202.51   13.18
  -2   4 -13  193.11   11.95
  -2   4 -13  153.19    8.53
   2  -4  14    7.62    2.14
  -2   4 -14    1.93    1.19
  -2   4 -14    2.37    2.06
   2  -3 -19    0.01    2.05
  -2   3  19    1.87    2.58
  -2   3  19    3.28    2.06
   2  -3 -18  196.64   12.39
  -2   3  18  200.58   14.66
  -2   3  18  196.97   15.13
   2  -3 -17   92.37    7.88
  -2   3  17   85.17    7.78
  -2   3  17   99.29    7.19
   2  -3 -16   15.48    2.82
  -2   3  16   17.50    2.95
  -2   3  16   14.81    3.48
   2  -3 -15   46.85    3.48
  -2   3  15   51.67    4.56
  -2   3  15   52.39    5.22
   2  -3 -14   70.69    4.94
  -2   3  14   72.97    4.04
  -2   3  14   77.84    4.53
   2  -3 -13  519.95   23.95
  -2   3  13  498.27   22.05
  -2   3  13  548.49   27.04
   2  -3 -12    2.87    0.49
   2  -3 -12    5.54    1.13
  -2   3  12    4.46    1.06
  -2   3  12    3.70    0.92
   2  -3 -11    7.36    1.08
   2  -3 -11    4.05    0.44
  -2   3  11    5.59    0.91
  -2   3  11    6.79    1.31
   2  -3 -10  156.75    3.56
   2  -3 -10  162.57    6.14
  -2   3  10  162.65    5.85
  -2   3  10  163.55    6.05
   2  -3  -9   99.23    2.14
   2  -3  -9   94.83    2.07
   2  -3  -9   93.30    3.84
  -2   3   9  104.87    4.42
  -2   3   9   99.63    4.32
   2  -3  -8   44.28    0.85
   2  -3  -8   43.95    1.73
  -2   3   8   44.60    1.91
   2  -3  -7 2819.54  136.73
   2  -3  -7 2958.88  170.97
  -2   3   7 3033.54  178.27
   2  -3  -6  878.40   30.87
   2  -3  -6  796.65   19.25
  -2   3   6  877.01   31.71
   2  -3  -5  528.36   15.87
  -2   3   5  499.18   15.04
   2  -3  -4 2035.62   79.59
   2  -3  -4 2094.66   99.31
  -2   3   4 2103.00   94.61
  -2   3   4 2115.91  100.78
   2  -3  -3  940.45   31.71
   2  -3  -3  971.71   29.47
   2  -3  -3  927.29   26.29
  -2   3   3  899.42   27.83
  -2   3   3  957.49   27.08
  -2   3   3  890.78   31.31
   2  -3  -2 1305.44   44.45
   2  -3  -2 1314.40   50.41
   2  -3  -2 1297.14   42.82
  -2   3   2 1322.56   44.71
  -2   3   2 1251.82   41.27
  -2   3   2 1264.14   47.66
   2  -3   0   28.10    0.93
  -2   3   0   29.06    1.06
   2  -3   1  941.72   25.39
   2  -3   1  998.02   34.04
  -2   3  -1  973.73   26.14
  -2   3  -1 1051.27   35.82
  -2   3  -1  971.68   32.93
   2  -3   2 2815.69  136.05
   2  -3   2 2893.28  157.36
  -2   3  -2 2907.95  157.10
  -2   3  -2 2966.55  156.14
  -2   3  -2 2840.72  137.05
   2  -3   3  374.11   11.01
   2  -3   3  373.19    9.07
  -2   3  -3  405.14   11.87
  -2   3  -3  388.73    9.34
  -2   3  -3  380.68   10.20
   2  -3   4  299.56    7.27
   2  -3   4  303.67    9.95
  -2   3  -4  297.69    7.95
  -2   3  -4  290.88    8.97
   2  -3   5  577.63   21.28
   2  -3   5  572.67   17.32
  -2   3  -5  550.30   19.51
  -2   3  -5  572.24   17.98
   2  -3   6 1096.82   43.64
  -2   3  -6 1131.13   46.94
  -2   3  -6 1144.94   45.42
   2  -3   7   28.06    1.40
  -2   3  -7   33.68    2.08
  -2   3  -7   27.59    1.52
   2  -3   8   87.66    3.44
  -2   3  -8   85.33    3.19
  -2   3  -8   87.11    4.13
   2  -3   9  267.83   12.20
   2  -3   9  251.82    9.79
  -2   3  -9  250.97    9.16
  -2   3  -9  257.55    9.75
   2  -3  10   13.29    2.06
   2  -3  10    7.97    1.52
  -2   3 -10   17.12    1.86
  -2   3 -10    9.36    1.32
   2  -3  11   77.59    4.52
   2  -3  11   89.64    4.24
  -2   3 -11   78.56    4.89
  -2   3 -11   65.16    3.80
   2  -3  12   27.98    2.58
   2  -3  12   29.60    2.73
  -2   3 -12   23.53    2.38
  -2   3 -12   29.93    3.10
   2  -3  13   78.93    5.27
   2  -3  13   70.08    5.49
  -2   3 -13   80.30    6.06
  -2   3 -13   73.80    4.62
   2  -3  14   42.23    5.02
  -2   3 -14   43.91    4.83
  -2   3 -14   38.75    3.59
   2  -3  15  154.76   11.22
  -2   3 -15  133.65    8.61
  -2   3 -15  109.27    7.89
   2  -2 -18   38.04    4.21
  -2   2  18   44.49    6.14
  -2   2  18   31.23    3.91
   2  -2 -17  396.33   25.08
  -2   2  17  397.70   24.82
  -2   2  17  436.49   29.13
   2  -2 -16  471.75   26.91
  -2   2  16  465.98   27.09
  -2   2  16  478.78   27.21
   2  -2 -15    8.59    1.58
  -2   2  15    5.84    2.47
  -2   2  15    8.68    1.57
   2  -2 -14  486.71   24.51
  -2   2  14  510.47   24.55
   2  -2 -13  143.34    7.61
  -2   2  13  154.29    8.82
   2  -2 -12  429.68   18.38
   2  -2 -12  410.28   18.04
  -2   2  12  390.13   12.85
  -2   2  12  444.46   18.59
   2  -2 -11  433.93   17.60
   2  -2 -11  432.98   17.49
  -2   2  11  408.20   12.72
  -2   2  11  455.14   19.43
   2  -2 -10   78.90    2.90
   2  -2 -10   74.75    3.51
  -2   2  10   71.32    2.04
  -2   2  10   78.49    3.30
   2  -2  -9    4.14    0.65
   2  -2  -9    4.02    0.66
  -2   2   9    2.94    0.76
  -2   2   9    3.89    0.33
   2  -2  -8  253.17    5.37
   2  -2  -8  236.83    5.46
   2  -2  -8  258.83    8.33
  -2   2   8  255.58    7.96
  -2   2   8  230.06    7.25
   2  -2  -7  313.23    6.94
   2  -2  -7  336.52    9.57
   2  -2  -7  324.94    7.05
  -2   2   7  342.23   10.80
  -2   2   7  324.91    9.88
   2  -2  -6 1399.22   49.19
   2  -2  -6 1429.65   60.42
   2  -2  -6 1491.38   52.79
  -2   2   6 1447.35   60.62
   2  -2  -5  166.54    2.52
   2  -2  -5  162.51    4.00
   2  -2  -5  170.24    2.64
  -2   2   5  181.40    4.89
   2  -2  -4  162.19    4.00
   2  -2  -4  163.52    2.32
  -2   2   4  160.08    2.24
  -2   2   4  168.62    4.21
   2  -2  -3  145.73    2.86
   2  -2  -3  131.80    1.90
   2  -2  -3  132.77    2.93
  -2   2   3  141.93    1.98
  -2   2   3  135.70    3.33
   2  -2  -2  850.19   26.33
   2  -2  -2  838.37   23.20
   2  -2  -2  782.66   24.33
   2  -2  -2  761.44   20.54
  -2   2   2  802.31   21.36
  -2   2   2  788.19   25.20
  -2   2   2  798.87   22.14
  -2   2   2  859.10   26.12
  -2   2   0 9999.00  960.33
   2  -2   1 1058.26   30.12
   2  -2   1 1083.15   37.01
   2  -2   1 1172.99   39.31
  -2   2  -1 1094.23   38.38
  -2   2  -1 1120.33   31.84
   2  -2   3   31.54    1.31
   2  -2   3   28.37    0.64
  -2   2  -3   29.74    0.77
  -2   2  -3   32.11    1.15
  -2   2  -3   27.39    0.62
   2  -2   4 1545.28   67.41
   2  -2   4 1548.19   62.49
  -2   2  -4 1586.33   65.56
  -2   2  -4 1641.69   68.41
   2  -2   5  631.00   19.79
   2  -2   5  632.71   22.74
  -2   2  -5  651.59   20.54
  -2   2  -5  644.00   20.66
   2  -2   6  711.54   24.41
  -2   2  -6  716.62   24.36
  -2   2  -6  708.42   24.54
   2  -2   7 3240.70  196.84
  -2   2  -7 3226.00  193.53
  -2   2  -7 3329.16  205.66
   2  -2   8  554.17   20.63
   2  -2   8  550.42   20.27
  -2   2  -8  564.00   21.20
  -2   2  -8  553.96   19.83
   2  -2   9  481.27   20.72
   2  -2   9  467.48   18.19
  -2   2  -9  492.62   19.58
  -2   2  -9  487.22   17.95
   2  -2  10  194.94    8.09
   2  -2  10  202.42    9.36
  -2   2 -10  201.15    8.44
  -2   2 -10  182.66    7.23
   2  -2  11   30.68    2.59
   2  -2  11   34.51    2.37
  -2   2 -11   29.59    2.25
  -2   2 -11   34.38    2.17
   2  -2  12   91.81    5.53
   2  -2  12   83.66    4.79
  -2   2 -12   66.05    3.42
  -2   2 -12   81.38    4.95
   2  -2  13  123.96    7.60
   2  -2  13  128.03    8.17
  -2   2 -13  127.44    7.61
  -2   2 -13  111.75    6.46
   2  -2  14   28.11    3.53
   2  -2  14   31.19    2.91
  -2   2 -14   26.76    3.01
  -2   2 -14   32.83    3.71
   2  -2  15   41.60    5.22
   2  -2  15   37.70    4.97
  -2   2 -15   38.61    3.97
  -2   2 -15   59.61    5.14
   2  -2  16    4.30    2.37
  -2   2 -16    4.50    1.47
  -2   2 -16    5.75    1.79
   2  -1 -18   11.35    3.45
  -2   1  18   11.55    3.87
   2  -1 -17  238.17   14.42
  -2   1  17  226.27   15.88
  -2   1  17  252.40   19.07
   2  -1 -16   85.33    7.14
  -2   1  16   90.76    6.52
  -2   1  16   75.34    5.22
   2  -1 -15  115.47    7.90
  -2   1  15  129.51    9.13
  -2   1  15  106.96    6.10
   2  -1 -14  271.75   13.99
  -2   1  14  260.98   13.16
   2  -1 -13   17.73    2.11
   2  -1 -13   22.69    2.42
  -2   1  13   15.37    1.39
  -2   1  13   22.69    2.79
   2  -1 -12  140.39    6.00
   2  -1 -12  143.96    6.58
  -2   1  12  148.38    6.70
  -2   1  12  138.17    5.00
   2  -1 -11  104.03    4.99
   2  -1 -11   96.44    3.76
  -2   1  11   97.25    3.10
  -2   1  11  104.40    4.56
   2  -1 -10  388.57   14.84
   2  -1 -10  409.56   15.60
  -2   1  10  385.25   11.94
  -2   1  10  408.81   15.23
   2  -1  -9    8.44    1.15
   2  -1  -9    7.72    0.80
  -2   1   9    9.52    0.99
  -2   1   9    9.04    0.64
   2  -1  -8   47.26    1.99
   2  -1  -8   46.39    1.66
  -2   1   8   40.16    1.93
   2  -1  -7 2369.42  124.85
  -2   1   7 2333.60  125.77
   2  -1  -6  176.49    3.48
   2  -1  -6  162.62    3.26
   2  -1  -6  163.76    4.71
  -2   1   6  162.72    5.09
  -2   1   6  164.47    4.70
   2  -1  -5 1062.98   32.49
   2  -1  -5  993.93   30.66
   2  -1  -5  986.59   34.63
  -2   1   5 1002.86   35.87
  -2   1   5  981.80   34.94
   2  -1  -4  895.88   25.31
   2  -1  -4  907.50   30.50
   2  -1  -4  964.47   27.13
  -2   1   4  936.07   31.34
  -2   1   4  903.28   29.73
   2  -1  -3  656.34   15.81
   2  -1  -3  620.00   17.98
   2  -1  -3  701.40   19.05
  -2   1   3  639.58   18.93
  -2   1   3  678.04   16.25
  -2   1   3  743.02   20.71
   2  -1  -2   21.79    0.70
   2  -1  -2   21.06    0.68
  -2   1   2   19.73    0.73
  -2   1   2   20.81    0.66
   2  -1  -1  230.82    3.90
   2  -1  -1  218.99    4.01
   2  -1  -1  218.68    4.48
   2  -1  -1  230.18    4.87
  -2   1   1  214.61    4.49
  -2   1   1  235.51    4.93
   2  -1   0    3.68    0.30
   2  -1   0    2.23    0.11
   2  -1   0    2.43    0.26
   2  -1   0    3.22    0.23
  -2   1   0    2.15    0.23
  -2   1   0    2.52    0.29
   2  -1   1 1281.32   39.98
   2  -1   1 1216.10   37.99
   2  -1   1 1330.70   46.81
   2  -1   1 1262.91   44.19
  -2   1  -1 1273.22   44.92
  -2   1  -1 1331.02   46.64
  -2   1  -1 1278.56   44.58
  -2   1  -1 1221.26   43.23
   2  -1   2   94.26    1.43
   2  -1   2   95.91    1.97
  -2   1  -2   93.76    2.01
  -2   1  -2   94.64    1.40
   2  -1   3 3328.48  191.16
  -2   1  -3 3520.33  191.75
  -2   1  -3 3430.87  193.21
   2  -1   4 1590.19   67.57
   2  -1   4 1524.15   60.52
  -2   1  -4 1565.67   63.64
  -2   1  -4 1607.47   63.32
   2  -1   5 1790.49   78.06
  -2   1  -5 1810.77   79.88
  -2   1  -5 1757.93   77.15
   2  -1   6  109.14    3.25
  -2   1  -6  107.63    2.77
  -2   1  -6  107.12    3.15
   2  -1   7  453.71   14.77
  -2   1  -7  444.34   14.17
  -2   1  -7  445.01   14.61
   2  -1   8   20.41    1.16
   2  -1   8   15.18    1.31
  -2   1  -8   17.21    1.28
  -2   1  -8   17.01    1.20
   2  -1   9  439.34   17.13
   2  -1   9  426.54   16.06
  -2   1  -9  421.83   15.21
  -2   1  -9  435.71   15.84
   2  -1  10   39.75    2.76
   2  -1  10   37.77    2.55
  -2   1 -10   39.94    2.22
  -2   1 -10   37.84    2.46
   2  -1  11  107.25    4.76
   2  -1  11  106.08    5.45
  -2   1 -11  104.19    4.11
  -2   1 -11  108.15    5.10
   2  -1  12  305.59   14.57
   2  -1  12  307.25   14.44
  -2   1 -12  303.71   14.04
  -2   1 -12  291.99   12.77
   2  -1  13  242.58   10.91
   2  -1  13  246.86   12.35
  -2   1 -13  220.44   10.90
  -2   1 -13  248.44   12.03
   2  -1  14   39.21    4.05
   2  -1  14   38.68    3.96
  -2   1 -14   39.65    3.00
  -2   1 -14   36.90    3.47
   2  -1  15   16.84    2.26
   2  -1  15   18.86    3.10
  -2   1 -15   16.61    2.65
  -2   1 -15   16.76    2.90
   2  -1  16  288.37   19.01
   2  -1  16  297.63   17.26
  -2   1 -16  278.07   17.54
  -2   1 -16  295.09   18.68
   2   0 -17   34.03    5.08
  -2   0  17   33.10    5.56
   2   0 -16   33.08    3.53
  -2   0  16   31.63    3.78
   2   0 -15   30.60    3.72
  -2   0  15   31.09    4.13
  -2   0  15   22.33    2.34
   2   0 -14  134.63    8.06
   2   0 -14  115.29    6.74
  -2   0  14  122.80    7.13
   2   0 -13   63.94    3.30
   2   0 -13   52.32    3.46
  -2   0  13   60.11    3.85
  -2   0  13   40.40    2.88
   2   0 -12  204.59    8.94
   2   0 -12  214.23    8.70
  -2   0  12  199.55    7.81
  -2   0  12  224.96   11.26
   2   0 -11    2.91    0.91
   2   0 -11    3.21    0.79
  -2   0  11    1.74    1.21
  -2   0  11    2.03    0.70
   2   0 -10  152.40    5.92
   2   0 -10  162.33    6.60
  -2   0  10  152.55    4.98
  -2   0  10  161.03    7.32
   2   0  -9  360.31   12.33
   2   0  -9  362.37   12.49
  -2   0   9  379.21   13.45
  -2   0   9  367.54   11.34
   2   0  -8  344.22   11.09
   2   0  -8  348.27   11.19
  -2   0   8  356.24   10.08
  -2   0   8  356.70   13.32
   2   0  -7  103.34    3.12
   2   0  -7   96.04    3.10
  -2   0   7   98.62    2.49
  -2   0   7  100.55    4.00
   2   0  -6 3860.06  240.10
  -2   0   6 3610.54  215.84
  -2   0   6 3725.24  238.44
   2   0  -5  746.25   21.02
   2   0  -5  653.79   18.88
   2   0  -5  659.12   21.40
  -2   0   5  657.89   22.04
  -2   0   5  665.66   20.68
   2   0  -4  126.96    3.08
   2   0  -4  128.81    2.31
   2   0  -4  120.10    2.18
  -2   0   4  127.35    2.68
  -2   0   4  116.57    2.69
  -2   0   4  118.26    3.11
   2   0  -3    6.30    0.34
  -2   0   3    5.17    0.48
  -2   0   3    4.98    0.27
   2   0  -2 1204.18   38.24
   2   0  -2 1122.91   38.24
   2   0  -2 1254.58   41.72
  -2   0   2 1117.06   38.17
  -2   0   2 1305.70   43.71
  -2   0   2 1153.10   39.58
  -2   0   1 2448.66  115.50
  -2   0   1 2758.85  128.01
   2   0   0  264.27    5.22
   2   0   0  256.85    4.49
   2   0   0  240.43    4.47
  -2   0   0  239.27    4.64
  -2   0   0  253.33    4.91
  -2   0   0  251.82    4.61
   2   0   1 2069.46   87.53
  -2   0  -1 2084.81   88.81
  -2   0  -1 1963.89   82.86
  -2   0  -1 2080.06   86.72
   2   0   2   15.66    0.55
   2   0   2   16.61    0.42
  -2   0  -2   16.72    0.60
  -2   0  -2   18.07    0.45
   2   0   3   43.90    0.97
   2   0   3   45.82    1.28
  -2   0  -3   41.58    0.95
  -2   0  -3   44.13    0.92
  -2   0  -3   44.78    0.94
   2   0   5   16.38    0.80
  -2   0  -5   19.31    0.73
   2   0   6 4513.98  301.77
  -2   0  -6 4659.77  310.74
  -2   0  -6 4665.46  306.07
   2   0   7   37.16    1.40
   2   0   7   36.36    1.48
  -2   0  -7   36.17    1.31
  -2   0  -7   39.09    1.55
   2   0   8   11.32    1.14
   2   0   8    6.65    1.12
  -2   0  -8   13.11    1.05
  -2   0  -8   12.04    0.97
   2   0   9  195.88    7.11
   2   0   9  187.96    6.99
  -2   0  -9  194.78    6.69
  -2   0  -9  184.77    5.60
   2   0  10  654.60   27.17
   2   0  10  644.27   26.74
  -2   0 -10  662.51   25.56
  -2   0 -10  642.68   25.50
   2   0  11   55.99    2.78
   2   0  11   62.44    3.35
  -2   0 -11   54.17    2.46
  -2   0 -11   54.63    2.49
   2   0  12   81.42    4.56
   2   0  12   81.10    4.92
  -2   0 -12   78.99    4.18
   2   0  13  187.38    9.50
   2   0  13  188.31   10.16
  -2   0 -13  183.23    8.02
  -2   0 -13  189.97    9.12
   2   0  14  386.47   20.09
   2   0  14  351.62   16.13
  -2   0 -14  351.99   15.64
  -2   0 -14  351.33   18.04
   2   0  15   59.75    5.34
   2   0  15   50.89    4.60
  -2   0 -15   56.63    4.78
  -2   0 -15   51.29    4.61
   2   0  16   17.69    3.33
   2   0  16   17.07    2.82
  -2   0 -16   13.24    2.99
  -2   0 -16   17.61    2.29
   2   0  17   55.63    4.95
   2   0  17   42.35    5.25
  -2   0 -17   53.16    5.76
  -2   0 -17   49.17    5.61
   2   1 -17  198.81   15.75
  -2  -1  17  190.74   16.61
   2   1 -16  926.38   57.76
  -2  -1  16  883.89   59.38
   2   1 -15   58.25    4.30
  -2  -1  15   51.05    4.59
   2   1 -14  240.41   13.20
   2   1 -14  192.68   10.16
  -2  -1  14  228.24   14.03
   2   1 -13   13.79    1.85
   2   1 -13   19.46    1.93
  -2  -1  13   13.23    1.75
  -2  -1  13   14.49    2.67
   2   1 -12   21.39    2.36
   2   1 -12   14.80    1.74
  -2  -1  12   19.98    2.53
  -2  -1  12   16.35    1.67
   2   1 -11   94.19    4.44
   2   1 -11  112.76    5.77
  -2  -1  11   99.91    4.37
  -2  -1  11   97.49    6.00
   2   1 -10 1292.07   61.05
   2   1 -10 1396.86   69.85
  -2  -1  10 1305.08   60.52
  -2  -1  10 1384.91   71.00
   2   1  -9  706.73   27.29
   2   1  -9  804.92   32.47
  -2  -1   9  731.83   29.79
  -2  -1   9  717.82   27.42
   2   1  -8  371.71   11.84
   2   1  -8  367.98   13.25
  -2  -1   8  368.68   11.66
  -2  -1   8  377.09   12.92
   2   1  -7 2817.48  159.73
   2   1  -7 2732.64  151.45
  -2  -1   7 2805.44  162.37
  -2  -1   7 2767.19  153.18
   2   1  -6 3399.50  204.18
  -2  -1   6 3549.31  212.94
  -2  -1   6 3569.11  225.47
   2   1  -5   12.34    0.61
   2   1  -5   13.77    0.66
  -2  -1   5   13.28    0.65
  -2  -1   5   11.58    0.73
   2   1  -4   62.05    1.65
   2   1  -4   66.50    1.70
  -2  -1   4   65.02    1.45
  -2  -1   4   74.21    2.25
   2   1  -3 2672.74  125.24
  -2  -1   3 2359.59  116.17
  -2  -1   3 2377.85  111.52
  -2  -1   3 2584.41  118.88
   2   1  -2   99.81    1.90
   2   1  -2  101.53    1.70
   2   1  -2  102.78    2.18
   2   1  -2  105.31    1.99
  -2  -1   2  109.98    2.05
  -2  -1   2   98.66    1.67
  -2  -1   2   97.09    1.99
  -2  -1   0 3285.61  169.50
   2   1   1  505.70   11.58
   2   1   1  474.01   11.15
   2   1   1  492.08   11.24
  -2  -1  -1  514.81   12.15
  -2  -1  -1  496.09   10.62
  -2  -1  -1  482.24   11.02
  -2  -1  -1  485.60   11.27
   2   1   2  170.72    2.89
   2   1   2  156.42    2.94
   2   1   2  161.30    3.04
  -2  -1  -2  167.06    3.04
  -2  -1  -2  158.42    2.41
  -2  -1  -2  161.92    3.03
   2   1   3 2864.92  140.00
   2   1   3 2651.20  125.17
  -2  -1  -3 2845.15  140.72
  -2  -1  -3 2615.76  127.78
   2   1   4   85.77    1.50
   2   1   4   79.76    1.69
  -2  -1  -4   81.18    1.91
  -2  -1  -4   81.49    1.48
   2   1   5  936.71   31.46
  -2  -1  -5  967.31   30.43
   2   1   6    7.74    0.57
   2   1   6    7.10    0.53
  -2  -1  -6    7.22    0.52
   2   1   7 1668.54   73.28
   2   1   7 1584.53   71.08
  -2  -1  -7 1700.22   72.67
   2   1   8   37.48    1.79
   2   1   8   35.98    1.52
  -2  -1  -8   39.84    1.50
   2   1   9  538.57   19.53
   2   1   9  540.86   20.39
  -2  -1  -9  533.25   17.00
  -2  -1  -9  556.53   19.95
   2   1  10  354.23   12.99
   2   1  10  359.38   13.26
  -2  -1 -10  385.94   14.07
  -2  -1 -10  374.24   12.80
   2   1  11   96.12    4.29
   2   1  11   94.51    4.20
  -2  -1 -11  102.34    4.05
  -2  -1 -11   97.97    4.57
   2   1  12    6.66    1.59
   2   1  12    8.31    1.34
  -2  -1 -12    9.20    0.97
  -2  -1 -12    6.62    1.08
   2   1  13   65.34    3.86
   2   1  13   71.07    4.56
  -2  -1 -13   53.06    4.23
  -2  -1 -13   60.60    3.78
   2   1  14  203.13   10.14
   2   1  14  194.26    9.96
  -2  -1 -14  211.00   10.17
  -2  -1 -14  197.15   10.65
   2   1  15    3.70    1.36
   2   1  15    2.95    1.75
  -2  -1 -15    2.37    1.15
  -2  -1 -15    3.51    1.07
   2   1  16   51.35    4.89
   2   1  16   71.13    6.32
  -2  -1 -16   64.54    5.27
  -2  -1 -16   57.49    5.51
   2   1  17   51.64    6.26
   2   1  17   49.26    4.79
  -2  -1 -17   54.76    5.37
  -2  -1 -17   50.74    4.41
   2   1  18   38.53    5.44
   2   1  18   30.69    4.09
  -2  -1 -18   25.17    3.61
  -2  -1 -18   34.87    4.73
   2   2 -16   85.03    8.30
  -2  -2  16   78.89    8.60
   2   2 -15  111.07    7.19
   2   2 -15   86.58    6.78
  -2  -2  15  100.78    9.15
   2   2 -14    1.30    1.58
  -2  -2  14    2.05    1.25
   2   2 -13   23.70    2.21
   2   2 -13   28.58    3.36
  -2  -2  13   24.84    2.69
  -2  -2  13   26.61    2.55
   2   2 -12    7.86    1.36
   2   2 -12   14.10    1.60
  -2  -2  12    8.50    1.16
  -2  -2  12    9.93    1.64
   2   2 -11   44.05    3.13
   2   2 -11   38.00    2.20
  -2  -2  11   33.87    3.30
  -2  -2  11   30.42    1.95
   2   2 -10   62.33    3.09
   2   2 -10   57.12    2.79
  -2  -2  10   73.19    3.97
  -2  -2  10   61.52    3.18
   2   2  -9   91.61    4.28
   2   2  -9   80.61    3.12
  -2  -2   9   89.95    4.36
  -2  -2   9   85.57    3.71
   2   2  -8  199.55    6.07
   2   2  -8  220.92    7.99
  -2  -2   8  198.12    6.75
  -2  -2   8  200.36    7.91
   2   2  -7  185.35    5.13
   2   2  -7  187.90    5.72
  -2  -2   7  186.26    5.97
  -2  -2   7  188.56    5.91
   2   2  -6   89.91    2.75
   2   2  -6   86.36    2.21
  -2  -2   6   91.10    2.93
  -2  -2   6   89.30    3.58
   2   2  -5  115.64    2.53
   2   2  -5  114.98    3.62
  -2  -2   5  122.03    3.99
  -2  -2   5  113.36    2.86
  -2  -2   5  119.80    2.44
   2   2  -4 1246.26   48.02
  -2  -2   4 1270.67   50.94
  -2  -2   4 1338.22   45.56
   2   2  -3  346.57    8.53
   2   2  -3  356.49    8.69
  -2  -2   3  362.62    9.23
  -2  -2   3  349.19    7.30
  -2  -2   3  388.46    7.99
   2   2  -2  213.52    4.44
   2   2  -2  220.87    4.98
   2   2  -2  242.07    5.05
  -2  -2   2  221.49    3.87
  -2  -2   2  232.76    4.83
  -2  -2   2  224.13    3.77
  -2  -2   2  218.01    4.85
   2   2  -1  143.95    2.73
   2   2  -1  143.30    2.12
   2   2  -1  155.39    2.91
  -2  -2   1  161.26    2.87
  -2  -2   1  137.04    2.06
  -2  -2   1  145.14    2.84
   2   2   0  317.16    7.08
   2   2   0  341.10    7.19
  -2  -2   0  344.14    7.15
  -2  -2   0  318.36    5.72
  -2  -2   0  331.35    6.27
  -2  -2   0  316.14    7.19
   2   2   1 2614.40  121.67
  -2  -2  -1 2512.59  115.99
  -2  -2  -1 2438.82  114.53
   2   2   2 1663.22   62.53
   2   2   2 1548.55   59.32
   2   2   2 1549.48   58.65
  -2  -2  -2 1601.16   59.00
  -2  -2  -2 1642.91   61.91
  -2  -2  -4 5040.56  345.86
   2   2   5  207.25    3.84
   2   2   5  202.42    4.72
  -2  -2  -5  207.82    3.91
  -2  -2  -5  202.29    4.54
   2   2   6   85.07    2.35
   2   2   6   87.74    2.34
  -2  -2  -6   91.05    2.55
  -2  -2  -6   88.28    1.87
   2   2   7 1190.26   48.98
   2   2   7 1160.88   45.04
  -2  -2  -7 1157.90   42.31
   2   2   8  293.24    9.94
   2   2   8  294.23    8.88
  -2  -2  -8  294.18    7.82
   2   2   9  426.70   14.18
   2   2   9  423.79   15.52
  -2  -2  -9  425.46   13.10
   2   2  10  225.31    8.03
   2   2  10  238.93    8.26
  -2  -2 -10  252.83    9.18
  -2  -2 -10  249.91    7.97
   2   2  11  759.53   31.04
   2   2  11  783.57   34.93
  -2  -2 -11  747.64   29.79
  -2  -2 -11  792.85   32.08
   2   2  12   29.88    2.10
   2   2  12   24.58    2.75
  -2  -2 -12   35.00    2.01
  -2  -2 -12   28.99    2.46
   2   2  13   99.37    5.07
   2   2  13  104.92    5.27
  -2  -2 -13  107.61    4.27
  -2  -2 -13  106.42    5.93
   2   2  14   82.60    4.84
   2   2  14   88.23    5.11
  -2  -2 -14   79.95    3.93
  -2  -2 -14  109.73    5.73
   2   2  15  175.83    9.41
   2   2  15  221.22   12.88
  -2  -2 -15  199.05   10.22
  -2  -2 -15  200.38   11.54
   2   2  16   37.79    3.83
   2   2  16   37.93    3.40
  -2  -2 -16   43.75    3.75
  -2  -2 -16   40.63    3.52
   2   2  17    1.04    1.93
   2   2  17    3.04    1.29
  -2  -2 -17   -0.06    1.47
  -2  -2 -17    2.52    1.77
   2   2  18    2.41    1.80
   2   2  18    2.40    1.61
  -2  -2 -18    5.80    2.16
   2   3 -16    7.94    2.49
  -2  -3  16    9.26    3.23
   2   3 -15    9.03    2.81
   2   3 -15    6.01    2.14
  -2  -3  15    6.63    2.10
   2   3 -14   69.49    6.25
   2   3 -14   53.48    4.02
  -2  -3  14   60.52    6.12
   2   3 -13  413.83   22.14
   2   3 -13  321.90   15.22
  -2  -3  13  380.16   18.57
  -2  -3  13  341.62   15.74
   2   3 -12   26.38    2.04
   2   3 -12   33.77    3.37
  -2  -3  12   31.37    2.72
  -2  -3  12   26.34    2.59
   2   3 -11   51.34    2.46
   2   3 -11   78.64    3.42
  -2  -3  11   46.32    3.61
  -2  -3  11   66.36    4.50
   2   3 -10  691.94   28.35
   2   3 -10  841.01   38.42
  -2  -3  10  740.86   33.11
  -2  -3  10  717.12   30.39
   2   3  -9 1161.27   55.57
   2   3  -9 1083.44   45.93
  -2  -3   9 1122.92   51.78
  -2  -3   9 1129.33   52.64
   2   3  -8    8.02    0.81
   2   3  -8   11.75    1.03
  -2  -3   8   12.15    0.94
  -2  -3   8    8.85    1.07
   2   3  -7   26.26    1.01
   2   3  -7   31.00    1.88
  -2  -3   7   29.81    1.34
  -2  -3   7   30.65    1.92
   2   3  -6 1198.68   50.79
   2   3  -6 1123.13   41.53
  -2  -3   6 1147.59   47.85
  -2  -3   6 1148.86   47.95
   2   3  -5  357.63   11.20
   2   3  -5  315.58    8.02
  -2  -3   5  313.33    9.65
  -2  -3   5  340.58    7.96
   2   3  -4  169.91    4.45
   2   3  -4  169.41    3.33
  -2  -3   4  178.47    3.27
  -2  -3   4  183.04    4.76
   2   3  -3  491.40   13.86
   2   3  -3  479.98   14.06
  -2  -3   3  451.02   10.12
  -2  -3   3  499.83   10.70
  -2  -3   3  467.59   13.86
   2   3  -2 3637.03  213.59
  -2  -3   2 3671.99  216.94
   2   3  -1  125.72    2.90
  -2  -3   1  112.98    1.27
  -2  -3   1  118.53    2.08
  -2  -3   1  113.61    2.39
  -2  -3   0 4922.73  317.93
  -2  -3   0 5161.71  343.33
   2   3   1 1401.46   46.94
   2   3   1 1478.91   49.35
   2   3   1 1413.13   52.27
   2   3   1 1549.05   57.64
  -2  -3  -1 1550.83   56.99
  -2  -3  -1 1469.11   48.94
  -2  -3  -1 1389.54   46.57
  -2  -3  -1 1407.76   52.60
   2   3   2    4.82    0.10
  -2  -3  -2    4.42    0.33
  -2  -3  -2    3.45    0.40
  -2  -3  -2    5.51    0.26
   2   3   5   21.45    0.76
   2   3   5   20.13    0.77
  -2  -3  -5   21.69    0.67
   2   3   6    3.96    0.22
   2   3   6    3.68    0.46
   2   3   6    3.90    0.63
  -2  -3  -6    6.14    0.57
  -2  -3  -6    5.48    0.26
   2   3   7  511.75   15.50
   2   3   7  524.56   18.03
  -2  -3  -7  519.49   14.17
  -2  -3  -7  535.09   17.32
   2   3   8   12.23    0.87
   2   3   8   15.08    0.97
  -2  -3  -8   12.46    0.71
  -2  -3  -8   17.04    0.87
   2   3   9  261.43    9.77
   2   3   9  260.27    7.99
  -2  -3  -9  267.91    7.50
   2   3  10  110.06    3.83
   2   3  10  111.44    4.90
  -2  -3 -10  108.19    3.44
   2   3  11   20.10    1.38
   2   3  11   18.12    1.51
  -2  -3 -11   19.48    1.30
  -2  -3 -11   18.39    1.44
   2   3  12   91.36    3.86
   2   3  12   92.25    4.41
  -2  -3 -12   90.72    4.04
  -2  -3 -12   94.85    3.96
   2   3  13  501.80   20.79
   2   3  13  543.57   26.45
  -2  -3 -13  546.42   25.42
  -2  -3 -13  517.72   21.56
   2   3  14    5.07    1.30
   2   3  14    5.67    1.11
  -2  -3 -14    3.37    1.51
  -2  -3 -14    3.55    1.12
   2   3  15  283.16   14.26
   2   3  15  251.41   11.93
  -2  -3 -15  273.55   12.75
  -2  -3 -15  286.09   15.77
   2   3  16  366.80   18.43
   2   3  16  421.25   25.26
  -2  -3 -16  395.17   19.71
  -2  -3 -16  411.15   23.95
   2   3  17   43.86    4.41
   2   3  17   37.79    3.55
  -2  -3 -17   45.87    4.16
  -2  -3 -17   42.77    5.05
   2   3  18    9.59    2.24
   2   3  18   15.78    3.78
  -2  -3 -18   16.00    2.50
   2   4 -15  142.14    9.25
   2   4 -15  155.93   10.69
  -2  -4  15  153.69   12.72
   2   4 -14   30.22    4.32
   2   4 -14   44.51    4.06
  -2  -4  14   38.65    5.02
   2   4 -13  105.80    6.64
   2   4 -13   87.95    5.64
  -2  -4  13  127.78    8.14
   2   4 -12    5.39    1.35
   2   4 -12    2.60    0.92
  -2  -4  12    3.15    1.33
  -2  -4  12    7.33    1.57
   2   4 -11    9.24    1.51
   2   4 -11    6.55    0.87
  -2  -4  11    8.85    1.89
  -2  -4  11    6.23    1.67
   2   4 -10  116.99    5.26
   2   4 -10   96.45    3.55
  -2  -4  10  107.33    6.21
  -2  -4  10  110.22    5.83
   2   4  -9  372.26   15.92
   2   4  -9  306.16   10.36
  -2  -4   9  335.00   14.83
  -2  -4   9  346.87   14.50
   2   4  -8  310.43    9.43
   2   4  -8  359.83   14.29
  -2  -4   8  329.05   13.45
  -2  -4   8  339.83   13.19
   2   4  -7  678.97   26.71
   2   4  -7  578.44   18.49
  -2  -4   7  626.99   24.69
  -2  -4   7  618.61   24.96
   2   4  -6   22.66    0.74
   2   4  -6   29.35    1.74
  -2  -4   6   26.55    1.33
  -2  -4   6   25.34    1.29
   2   4  -5  271.74    6.65
   2   4  -5  323.26   10.42
  -2  -4   5  312.27    6.85
  -2  -4   5  274.22    8.65
   2   4  -4  310.03    9.50
   2   4  -4  277.17    6.08
  -2  -4   4  313.12    6.24
  -2  -4   4  295.57    9.29
  -2  -4   3 3995.65  253.90
  -2  -4   3 3796.06  210.47
   2   4  -2 1095.73   40.74
  -2  -4   2 1069.80   39.27
   2   4  -1 2323.31  113.41
  -2  -4   1 2342.61  112.65
   2   4   0  187.30    2.40
   2   4   0  184.74    4.05
  -2  -4   0  194.99    3.70
  -2  -4   0  184.39    2.49
  -2  -4   0  185.45    3.97
   2   4   1   26.97    0.73
   2   4   1   25.47    0.52
   2   4   1   27.41    0.36
  -2  -4  -1   26.11    0.46
  -2  -4  -1   26.55    0.71
  -2  -4  -1   26.28    0.38
   2   4   2  160.05    2.60
   2   4   2  153.61    2.33
  -2  -4  -2  158.75    2.46
  -2  -4  -2  146.17    3.13
  -2  -4  -2  149.25    2.58
  -2  -4  -2  167.28    3.45
   2   4   3 1204.19   40.20
   2   4   3 1167.76   43.08
   2   4   3 1088.05   31.32
   2   4   3 1193.95   34.79
  -2  -4  -3 1268.41   43.38
  -2  -4  -3 1159.98   39.97
   2   4   4 1932.89   70.20
   2   4   4 1881.08   83.03
   2   4   4 1842.60   78.68
  -2  -4  -4 1966.11   84.84
  -2  -4  -4 1769.04   65.54
  -2  -4  -4 1954.41   82.41
   2   4   5   26.35    0.87
   2   4   5   24.36    0.75
  -2  -4  -5   24.81    0.70
  -2  -4  -5   23.36    0.42
  -2  -4  -5   23.94    0.81
   2   4   6  206.08    3.77
   2   4   6  197.43    4.47
   2   4   6  203.77    5.34
  -2  -4  -6  198.69    4.94
  -2  -4  -6  192.38    3.49
   2   4   7  125.43    3.18
   2   4   7  120.65    2.31
   2   4   7  123.98    4.28
  -2  -4  -7  119.41    2.42
  -2  -4  -7  117.19    3.89
   2   4   8   71.26    2.51
   2   4   8   64.62    1.89
  -2  -4  -8   74.65    2.85
  -2  -4  -8   67.83    1.64
   2   4   9   51.30    2.10
  -2  -4  -9   51.30    1.88
   2   4  10   60.57    2.68
   2   4  10   64.05    2.05
  -2  -4 -10   61.25    2.15
   2   4  11   18.95    1.62
   2   4  11   19.75    1.28
  -2  -4 -11   21.72    1.24
   2   4  12  722.64   33.39
   2   4  12  688.67   26.66
  -2  -4 -12  678.05   26.38
   2   4  13    8.88    0.99
   2   4  13   11.70    1.99
  -2  -4 -13   11.00    1.18
  -2  -4 -13    8.18    1.40
   2   4  14   41.87    2.69
   2   4  14   53.05    4.42
  -2  -4 -14   45.73    2.75
  -2  -4 -14   48.44    3.05
   2   4  15   37.18    2.57
   2   4  15   43.05    4.40
  -2  -4 -15   44.40    4.16
  -2  -4 -15   36.40    2.90
   2   4  16   91.38    4.78
   2   4  16  107.04    8.12
  -2  -4 -16   97.15    5.70
  -2  -4 -16  115.35    7.98
   2   4  17   49.16    3.77
   2   4  17   68.47    5.24
  -2  -4 -17   60.31    6.18
   2   4  18    1.49    1.80
   2   4  18    0.53    0.95
  -2  -4 -18    0.09    1.59
   2   4  19   42.54    5.35
  -2  -4 -19   42.91    6.01
   2   5 -14   10.50    2.97
   2   5 -14   13.81    3.24
  -2  -5  14    7.92    2.98
   2   5 -13   61.21    6.06
   2   5 -13   72.65    6.63
  -2  -5  13   63.61    6.28
   2   5 -12  299.54   17.81
  -2  -5  12  277.66   16.36
   2   5 -11   63.24    5.61
  -2  -5  11   78.83    5.34
  -2  -5  11   70.00    5.17
   2   5 -10  509.46   24.30
   2   5 -10  390.23   14.21
  -2  -5  10  456.00   21.80
  -2  -5  10  461.55   20.14
   2   5  -9  165.29    8.11
   2   5  -9  134.43    4.54
  -2  -5   9  161.10    7.86
  -2  -5   9  161.92    7.77
   2   5  -8  128.47    3.62
   2   5  -8  138.58    6.60
  -2  -5   8  134.64    5.49
  -2  -5   8  138.81    6.52
   2   5  -7    3.52    0.39
   2   5  -7    4.80    1.12
  -2  -5   7    5.16    1.10
  -2  -5   7    4.76    1.04
   2   5  -6  761.01   24.65
   2   5  -6  928.81   35.85
  -2  -5   6  841.72   32.95
   2   5  -5  371.79    9.37
   2   5  -5  426.63   13.81
  -2  -5   5  409.14   14.48
  -2  -5   5  427.12    9.99
   2   5  -4  223.12    4.33
  -2  -5   4  218.78    3.92
  -2  -5   4  248.48    7.60
   2   5  -3    7.63    0.54
  -2  -5   3    9.39    0.84
   2   5  -2 3837.03  242.58
  -2  -5   2 3658.19  227.12
   2   5  -1 1740.58   77.03
  -2  -5   1 1776.98   77.63
   2   5   0   36.19    1.12
   2   5   0   39.74    1.03
  -2  -5   0   36.76    1.24
   2   5   1   77.91    1.08
   2   5   1   72.58    1.41
  -2  -5  -1   80.14    1.57
  -2  -5  -1   78.40    1.22
  -2  -5  -1   76.69    2.04
   2   5   2 1200.97   38.42
   2   5   2 1119.93   35.54
  -2  -5  -2 1075.35   35.70
  -2  -5  -2 1198.09   39.13
  -2  -5  -2 1107.11   40.77
   2   5   3 1546.16   56.17
   2   5   3 1733.66   67.46
   2   5   3 1595.44   58.83
  -2  -5  -3 1549.00   61.93
   2   5   4   38.02    0.56
   2   5   4   39.63    1.11
   2   5   4   37.25    0.58
  -2  -5  -4   40.89    1.17
   2   5   5  204.10    5.85
   2   5   5  211.90    4.83
   2   5   5  206.83    3.44
  -2  -5  -5  200.59    5.24
  -2  -5  -5  211.40    3.59
   2   5   6  246.96    5.99
   2   5   6  255.08    7.59
   2   5   6  262.92    4.91
  -2  -5  -6  249.37    5.02
  -2  -5  -6  247.97    6.52
   2   5   7   29.33    0.70
   2   5   7   29.38    1.36
   2   5   7   29.72    0.98
  -2  -5  -7   32.19    1.65
   2   5   8  336.76    8.88
   2   5   8  326.07   10.65
  -2  -5  -8  327.11   10.16
  -2  -5  -8  330.64    7.98
   2   5   9   55.47    2.04
   2   5   9   43.81    1.51
  -2  -5  -9   42.01    1.24
  -2  -5  -9   42.20    1.87
   2   5  10 1033.95   44.05
   2   5  10  975.65   36.57
  -2  -5 -10 1016.92   42.58
  -2  -5 -10  943.58   35.04
   2   5  11  989.08   38.63
   2   5  11 1026.99   46.08
  -2  -5 -11  969.69   38.09
  -2  -5 -11 1035.66   45.22
   2   5  12  336.20   10.89
   2   5  12  352.43   14.04
  -2  -5 -12  334.81   11.25
   2   5  13  800.55   32.35
   2   5  13  850.23   39.09
  -2  -5 -13  791.14   32.45
   2   5  14  826.63   35.91
   2   5  14  963.42   50.44
  -2  -5 -14  838.78   36.40
   2   5  15    7.94    2.34
   2   5  15    7.72    1.19
  -2  -5 -15    8.48    1.38
  -2  -5 -15    9.90    1.63
   2   5  16  114.20    8.41
   2   5  16   90.73    4.79
  -2  -5 -16   96.39    5.46
  -2  -5 -16  110.49    6.72
   2   5  17  104.08    5.90
   2   5  17  124.82    8.35
  -2  -5 -17  131.61    9.51
   2   5  18  191.73   15.61
  -2  -5 -18  191.73   14.88
   2   5  19    0.17    2.34
  -2  -5 -19    3.63    2.27
   2   6 -14   83.33    6.86
   2   6 -14   70.86    6.29
  -2  -6  14   63.44    7.42
   2   6 -13  285.16   19.61
   2   6 -13  307.86   21.35
  -2  -6  13  263.22   15.57
   2   6 -12  393.74   24.17
   2   6 -12  397.99   24.39
  -2  -6  12  371.72   22.36
   2   6 -11  123.45    8.16
   2   6 -11   92.65    6.18
  -2  -6  11  133.26    7.48
   2   6 -10   45.43    4.46
  -2  -6  10   55.27    4.14
   2   6  -9  488.20   20.70
   2   6  -9  367.45   12.35
  -2  -6   9  466.33   22.15
  -2  -6   9  457.15   20.71
   2   6  -8  243.03    7.59
   2   6  -8  308.64   12.19
  -2  -6   8  278.54   11.31
  -2  -6   8  273.16   12.07
   2   6  -7   66.84    1.74
   2   6  -7   81.80    4.29
  -2  -6   7   77.89    3.92
   2   6  -6 2050.90  110.75
   2   6  -6 1765.91   78.89
  -2  -6   6 1975.10  105.22
   2   6  -5  208.12    4.51
  -2  -6   5  245.75    8.34
  -2  -6   4   29.17    1.55
  -2  -6   4   29.43    1.64
   2   6  -3 1815.98   89.66
  -2  -6   3 1861.73   89.31
   2   6  -2 2589.12  143.88
  -2  -6   2 2524.65  135.08
   2   6  -1   60.46    2.07
  -2  -6   1   63.70    2.13
   2   6   0  709.88   16.76
   2   6   0  802.75   24.77
   2   6   0  648.01   14.76
  -2  -6   0  769.05   24.89
   2   6   1  528.45   12.11
   2   6   1  511.50   14.16
   2   6   1  518.44   12.13
  -2  -6  -1  517.74   15.59
   2   6   2   51.08    1.16
   2   6   2   52.50    0.88
  -2  -6  -2   52.19    1.25
  -2  -6  -2   51.27    1.70
   2   6   3  278.38    5.73
   2   6   3  274.74    7.21
   2   6   3  292.59    6.25
  -2  -6  -3  262.58    6.20
   2   6   4 6976.43  575.91
   2   6   5   34.68    0.72
   2   6   5   34.06    1.12
  -2  -6  -5   35.00    1.38
   2   6   6  224.40    4.32
   2   6   6  214.82    5.32
  -2  -6  -6  219.60    4.38
  -2  -6  -6  214.22    6.38
   2   6   7   81.22    3.27
   2   6   7   83.74    1.58
   2   6   7   78.05    1.95
  -2  -6  -7   78.35    1.69
  -2  -6  -7   79.72    2.46
   2   6   8  160.78    5.04
   2   6   8  157.98    3.76
   2   6   8  160.15    3.27
  -2  -6  -8  156.31    5.53
  -2  -6  -8  149.14    3.30
   2   6   9  715.87   22.96
   2   6   9  737.35   29.75
  -2  -6  -9  702.83   26.39
  -2  -6  -9  673.80   21.10
   2   6  10 1194.71   46.40
   2   6  10 1210.57   54.91
  -2  -6 -10 1140.16   44.64
  -2  -6 -10 1189.35   55.63
   2   6  11  225.15    6.42
   2   6  11  239.47    9.13
  -2  -6 -11  237.79    8.98
  -2  -6 -11  226.90    6.60
   2   6  12   11.62    1.85
   2   6  12   10.41    0.77
  -2  -6 -12   11.68    1.39
  -2  -6 -12   10.65    0.85
   2   6  13  276.96    9.42
   2   6  13  303.78   13.00
  -2  -6 -13  275.35    9.75
  -2  -6 -13  314.28   14.70
   2   6  14   59.09    4.38
   2   6  14   54.64    2.05
  -2  -6 -14   47.72    2.34
   2   6  15    2.84    1.83
   2   6  15    3.51    0.72
  -2  -6 -15    4.84    0.86
   2   6  16   40.55    2.31
   2   6  16   47.73    4.99
  -2  -6 -16   46.17    4.91
   2   6  17   65.16    7.09
  -2  -6 -17   69.12    5.35
   2   6  18   30.54    5.01
  -2  -6 -18   71.55    6.03
   2   6  19    3.18    2.12
  -2  -6 -19   -0.93    2.06
   2   7 -13   96.76    7.85
   2   7 -13  100.43    8.22
   2   7 -12   75.27    7.50
   2   7 -12   76.46    5.88
  -2  -7  12   65.91    6.52
   2   7 -11  162.95   11.80
   2   7 -11  166.61   11.64
  -2  -7  11  145.18   10.08
   2   7 -10   55.86    4.32
   2   7 -10   58.00    5.44
  -2  -7  10   62.12    4.76
   2   7  -9  336.55   17.49
  -2  -7   9  289.63   14.69
   2   7  -8    7.87    1.38
  -2  -7   8    6.10    1.49
   2   7  -7  204.34    9.85
  -2  -7   7  191.54    8.43
   2   7  -6  231.88    5.48
  -2  -7   6  282.63   10.54
   2   7  -5  262.82    5.37
  -2  -7   5  447.98   13.69
  -2  -7   4   10.72    1.12
   2   7  -3 1354.88   62.72
  -2  -7   3 1363.08   60.56
   2   7  -2   49.56    2.13
   2   7  -2   48.55    2.62
  -2  -7   2   46.07    1.97
   2   7  -1   50.08    1.90
   2   7  -1   56.30    2.16
  -2  -7   1   44.58    1.88
   2   7   0   54.33    1.91
  -2  -7   0   51.04    1.94
   2   7   1 1132.94   42.83
   2   7   1 1154.57   37.36
   2   7   1 1059.74   35.58
  -2  -7  -1 1082.68   41.85
   2   7   2   70.09    2.38
   2   7   2   58.07    1.61
   2   7   2   62.66    1.20
   2   7   2   67.22    1.38
  -2  -7  -2   63.64    2.11
   2   7   3   69.41    2.17
   2   7   3   65.06    1.68
   2   7   3   64.28    1.48
   2   7   4  641.86   20.43
   2   7   4  632.27   20.71
   2   7   4  653.75   18.88
   2   7   4  628.11   17.56
  -2  -7  -4  647.17   20.22
   2   7   5  202.00    5.05
   2   7   5  196.83    5.51
   2   7   5  218.41    4.78
   2   7   5  184.39    3.75
  -2  -7  -5  202.28    5.59
   2   7   6 1113.06   38.33
   2   7   6 1117.52   37.74
   2   7   6 1128.07   42.26
  -2  -7  -6 1157.92   46.76
   2   7   7 1249.81   48.47
   2   7   7 1280.29   45.98
  -2  -7  -7 1281.86   55.49
  -2  -7  -7 1245.00   45.04
   2   7   8  196.21    4.21
   2   7   8  212.39    5.13
  -2  -7  -8  200.03    4.50
  -2  -7  -8  215.22    7.60
   2   7   9  451.16   12.84
  -2  -7  -9  447.40   15.74
  -2  -7  -9  444.77   12.22
   2   7  10  156.39    5.65
   2   7  10  147.60    3.78
  -2  -7 -10  153.13    5.60
  -2  -7 -10  147.07    3.76
   2   7  11  180.90    4.80
   2   7  11  185.55    7.02
  -2  -7 -11  168.28    4.77
  -2  -7 -11  188.78    8.27
   2   7  12  140.33    4.19
   2   7  12  147.76    6.23
  -2  -7 -12  146.98    6.22
  -2  -7 -12  135.20    4.45
   2   7  13  150.52    8.10
   2   7  13  128.01    4.06
  -2  -7 -13  144.00    6.57
  -2  -7 -13  136.09    4.55
   2   7  14    3.00    0.54
   2   7  14    2.95    1.57
  -2  -7 -14    2.73    0.81
  -2  -7 -14    5.45    1.10
   2   7  15  320.19   11.19
   2   7  15  390.31   18.25
   2   7  16  284.22   14.59
   2   7  16  226.45    9.03
   2   7  17  134.77   10.84
   2   7  18   97.20    9.11
  -2  -7 -18   85.41    7.00
   2   7  19    8.53    3.18
  -2  -7 -19    4.60    3.08
   2   8 -12   15.91    3.42
   2   8 -12   24.86    4.37
   2   8 -11    5.15    2.03
   2   8 -11    8.34    2.56
   2   8 -10    9.53    1.86
   2   8 -10    6.40    1.98
  -2  -8  10    7.02    2.01
   2   8  -9  128.20    9.28
   2   8  -9  123.27    8.83
  -2  -8   9  121.69    7.56
   2   8  -8   96.60    5.57
  -2  -8   8   83.75    5.33
   2   8  -7  487.02   22.55
  -2  -8   7  455.30   20.54
   2   8  -6   82.72    4.17
  -2  -8   6   80.42    4.13
   2   8  -5  420.45   17.50
  -2  -8   5  412.92   16.29
   2   8  -4   88.85    4.35
   2   8  -4   80.49    3.92
  -2  -8   4   81.22    3.62
   2   8  -3  224.03    8.36
   2   8  -3  213.10    7.94
  -2  -8   3  217.12    7.44
   2   8  -2  243.85    7.78
   2   8  -2  247.21    9.61
  -2  -8   2  234.53    7.78
   2   8  -1   22.16    1.36
  -2  -8   1   19.40    1.29
   2   8   0   55.34    0.82
   2   8   0   61.89    2.26
  -2  -8   0   62.91    2.19
   2   8   1   56.87    1.95
   2   8   1   51.70    1.01
  -2  -8  -1   55.14    2.06
   2   8   2  140.26    3.94
   2   8   2  158.21    3.61
   2   8   2  146.65    2.97
   2   8   2  159.58    5.16
  -2  -8  -2  148.39    4.58
   2   8   3 2110.02   99.64
   2   8   3 2100.06   99.91
   2   8   3 2042.53  101.38
   2   8   4  175.93    5.16
   2   8   4  175.71    4.13
   2   8   4  175.91    4.65
   2   8   4  176.86    5.46
   2   8   5   22.07    1.27
   2   8   5   31.52    1.64
  -2  -8  -5   27.50    1.35
   2   8   6  236.14    5.79
   2   8   6  246.36    5.90
   2   8   6  253.31    7.54
   2   8   6  239.45    6.62
  -2  -8  -6  247.05    7.76
   2   8   7  642.65   19.01
   2   8   7  672.31   25.42
   2   8   7  639.52   18.27
   2   8   7  671.74   21.71
  -2  -8  -7  675.73   25.22
   2   8   8 2482.88  129.42
   2   8   8 2573.31  129.64
  -2  -8  -8 2444.86  122.29
  -2  -8  -8 2524.71  145.38
   2   8   9    4.38    0.43
  -2  -8  -9    4.00    0.45
  -2  -8  -9    5.00    1.01
   2   8  10  259.93    7.07
  -2  -8 -10  268.04    9.83
  -2  -8 -10  273.87    7.30
   2   8  11 1232.61   48.77
  -2  -8 -11 1251.34   59.94
  -2  -8 -11 1168.36   47.62
   2   8  12  199.34    5.66
  -2  -8 -12  213.36    6.30
  -2  -8 -12  211.95    8.85
   2   8  13   91.91    4.56
  -2  -8 -13   95.35    5.65
   2   8  14  316.85   10.06
   2   8  14  398.47   19.74
  -2  -8 -14  384.31   18.92
   2   8  15    0.24    1.42
   2   8  15    1.18    0.42
  -2  -8 -15    1.96    1.08
   2   8  16  228.96   14.48
  -2  -8 -16  217.06   12.19
   2   8  17  127.18   10.45
   2   8  18    4.88    2.54
   2   8  19    9.74    2.71
  -2  -8 -19   15.01    3.80
   2   8  20    3.67    2.82
  -2  -8 -20    3.36    2.17
   2   9 -11  124.55    9.19
   2   9 -11  129.24   12.19
   2   9 -10    3.44    1.71
   2   9 -10    4.33    2.36
   2   9  -9   29.72    3.45
   2   9  -8  128.11    9.41
  -2  -9   8  114.59    6.89
   2   9  -7  272.14   13.73
  -2  -9   7  255.94   12.05
   2   9  -6   89.88    5.24
  -2  -9   6   87.45    4.72
   2   9  -5   75.21    3.53
   2   9  -5   79.11    4.06
  -2  -9   5   64.32    3.65
   2   9  -4  262.93   11.76
   2   9  -4  292.56   13.58
  -2  -9   4  258.92   10.16
   2   9  -3  315.12   12.78
   2   9  -3  316.62   12.96
  -2  -9   3  308.12   11.25
   2   9  -2  107.93    4.52
  -2  -9   2  107.66    3.79
   2   9  -1  185.02    6.79
  -2  -9   1  178.67    6.16
   2   9   0    0.78    0.12
   2   9   0    0.25    0.55
   2   9   0    0.82    0.10
  -2  -9   0    1.24    0.52
   2   9   1  686.31   19.92
   2   9   1  794.82   31.82
   2   9   1  775.08   28.45
   2   9   1  733.09   21.38
  -2  -9  -1  763.77   28.45
   2   9   2  333.10    8.95
   2   9   2  361.98   12.65
   2   9   2  357.09   11.09
   2   9   2  337.13    8.42
  -2  -9  -2  349.36   11.37
   2   9   3   27.34    1.22
   2   9   3   22.84    0.97
   2   9   3   25.90    0.86
   2   9   4  298.23    9.72
   2   9   4  299.46    8.69
   2   9   4  308.63    8.59
   2   9   4  303.40   10.03
   2   9   5  197.66    6.08
   2   9   5  188.30    4.66
   2   9   5  194.95    5.80
   2   9   5  190.68    6.41
   2   9   6  154.30    5.44
   2   9   6  142.66    3.40
   2   9   6  139.75    4.18
   2   9   7  113.58    4.45
   2   9   7  108.20    2.94
   2   9   7  104.49    2.48
  -2  -9  -7  115.49    4.18
   2   9   8   92.25    2.29
   2   9   8   97.98    2.71
   2   9   8  102.24    3.67
  -2  -9  -8  102.75    4.10
   2   9   9 1143.68   44.96
   2   9   9 1168.12   52.35
  -2  -9  -9 1212.15   56.51
  -2  -9  -9 1102.15   42.71
   2   9  10   16.96    0.80
   2   9  10   20.55    1.93
  -2  -9 -10   28.02    1.90
  -2  -9 -10   16.46    0.76
   2   9  11  677.00   22.97
  -2  -9 -11  755.02   32.13
  -2  -9 -11  682.12   23.46
   2   9  12    3.44    0.44
  -2  -9 -12    3.10    1.38
  -2  -9 -12    4.38    0.54
   2   9  13  150.64    4.08
  -2  -9 -13  188.80    9.39
   2   9  14  126.93    3.73
  -2  -9 -14  156.81    7.36
   2   9  15   30.33    3.77
  -2  -9 -15   26.84    3.75
   2   9  16  138.80   10.20
  -2  -9 -16  135.20    9.91
   2   9  17  241.35   16.81
  -2  -9 -17  229.15   13.87
   2   9  18   15.53    3.83
   2   9  19    3.22    1.90
   2   9  20   48.55    7.69
   2  10 -10   50.16    7.32
   2  10  -9   34.12    5.47
   2  10  -8   17.52    2.73
   2  10  -7   48.47    5.39
   2  10  -6   55.69    4.65
   2  10  -6   57.73    5.31
   2  10  -5  592.23   27.16
   2  10  -5  606.99   32.43
  -2 -10   5  543.02   24.34
   2  10  -4  204.16   10.86
   2  10  -4  190.66    9.52
  -2 -10   4  187.32    7.79
   2  10  -3    1.53    1.36
   2  10  -3    4.05    1.12
  -2 -10   3    2.79    0.84
   2  10  -2  204.97    7.68
  -2 -10   2  199.66    7.36
   2  10  -1  172.99    6.14
  -2 -10   1  180.75    6.39
   2  10   0   10.28    1.55
   2  10   0    8.26    0.86
  -2 -10   0    8.65    1.00
   2  10   1  124.48    4.55
   2  10   1  127.31    4.62
   2  10   1  115.23    2.48
  -2 -10  -1  119.59    4.23
   2  10   2  142.67    4.93
   2  10   2  141.61    4.73
   2  10   2  141.99    3.35
  -2 -10  -2  142.11    4.56
   2  10   3   29.24    1.36
   2  10   3   27.36    1.01
   2  10   3   33.13    1.95
   2  10   3   30.20    1.22
   2  10   4  686.41   26.94
   2  10   4  663.50   22.98
   2  10   4  667.43   25.76
   2  10   4  698.09   24.49
   2  10   5   91.24    3.43
   2  10   5   91.60    3.23
   2  10   5   86.90    2.43
   2  10   5   89.92    3.55
   2  10   6   29.00    1.66
   2  10   6   35.46    1.12
   2  10   6   31.35    1.86
   2  10   6   33.28    1.68
   2  10   7   31.56    1.03
   2  10   7   24.59    1.30
   2  10   7   31.49    2.00
   2  10   7   32.46    2.00
   2  10   8  215.31    6.72
   2  10   8  217.99    6.17
   2  10   8  231.24    8.95
   2  10   9   42.78    1.62
   2  10   9   39.02    1.25
   2  10   9   49.11    2.88
  -2 -10  -9   52.54    2.78
   2  10  10  301.73   12.71
   2  10  10  274.57    8.15
  -2 -10 -10  300.65   12.70
  -2 -10 -10  272.90    8.06
   2  10  11   58.64    3.09
  -2 -10 -11   61.52    3.94
   2  10  12    5.04    0.49
   2  10  12    7.64    1.58
  -2 -10 -12    7.65    1.25
   2  10  13   46.28    3.07
  -2 -10 -13   45.63    3.12
   2  10  14  891.75   34.08
  -2 -10 -14 1159.28   57.46
  -2 -10 -15   21.93    2.56
  -2 -10 -16    4.44    2.13
  -2 -10 -17   39.25    5.39
   2  10  18  103.68   10.04
  -2 -10 -18   90.31    7.21
   2  10  19    9.28    3.56
  -2 -10 -19    9.29    2.69
   2  10  20   22.01    4.07
   2  11  -9   13.07    4.07
   2  11  -8    9.13    2.83
   2  11  -8   10.21    3.21
   2  11  -7   11.42    2.20
   2  11  -7   14.40    2.51
   2  11  -6  283.11   16.60
   2  11  -6  290.46   15.79
   2  11  -5   15.45    2.27
   2  11  -5   17.01    2.63
   2  11  -4  133.22    7.71
   2  11  -4  136.96    6.90
   2  11  -3   32.82    2.91
  -2 -11   3   31.37    2.23
   2  11  -2  382.65   17.34
  -2 -11   2  370.34   14.49
   2  11  -1    4.23    1.03
  -2 -11   1    2.78    0.73
   2  11   0   19.95    2.12
   2  11   0   16.41    1.57
  -2 -11   0   16.06    1.21
   2  11   1  149.17    5.83
   2  11   1  139.59    3.04
   2  11   1  163.82    7.26
  -2 -11  -1  142.16    5.20
   2  11   2  192.29    6.95
   2  11   2  179.94    6.46
   2  11   2  183.59    4.81
  -2 -11  -2  183.11    6.49
   2  11   3  161.39    6.79
   2  11   3  149.57    5.71
   2  11   3  144.23    5.31
   2  11   3  164.68    4.43
   2  11   4  853.13   36.60
   2  11   4  819.17   32.74
   2  11   4  816.00   30.82
   2  11   4  826.87   34.71
   2  11   5   14.60    0.93
   2  11   5   14.87    1.18
   2  11   5   20.52    1.43
   2  11   5   18.93    1.41
   2  11   6   22.06    1.62
   2  11   6   17.95    0.93
   2  11   6   16.56    1.44
   2  11   6   20.13    1.41
   2  11   7  276.85    8.35
   2  11   7  290.68   10.40
   2  11   7  300.38   11.39
   2  11   7  279.87    9.67
   2  11   8 1217.76   53.89
   2  11   8 1262.62   62.85
   2  11   8 1337.91   65.79
   2  11   8 1199.93   51.00
   2  11   9  688.71   30.39
   2  11   9  640.58   23.14
   2  11   9  668.24   29.27
   2  11   9  582.83   20.18
   2  11  10   37.25    2.69
   2  11  10   37.35    2.22
   2  11  10   28.63    1.10
   2  11  10   30.80    1.43
   2  11  11   42.23    3.30
   2  11  11   32.87    1.24
  -2 -11 -11   42.85    2.52
   2  11  12  231.82   11.14
   2  11  12  191.14    5.53
  -2 -11 -12  222.89    9.37
   2  11  13  238.80   13.01
  -2 -11 -13  234.61   12.79
   2  11  14   17.97    2.22
  -2 -11 -14   16.36    2.12
   2  11  15   18.38    2.52
  -2 -11 -15   20.94    2.55
   2  11  16    4.28    2.14
  -2 -11 -16    4.63    1.63
  -2 -11 -17   20.93    4.03
  -2 -11 -18   15.73    3.00
  -2 -11 -19   77.87    7.40
   2  12  -8    2.04    1.66
   2  12  -8    2.97    2.48
   2  12  -7   29.76    4.10
   2  12  -7   34.55    4.76
   2  12  -6    8.48    2.66
   2  12  -6    4.14    2.26
   2  12  -5  114.21    9.48
   2  12  -5  107.41    6.69
   2  12  -4  178.90   11.16
   2  12  -3  106.15    5.63
   2  12  -2   37.79    3.17
   2  12  -1  102.34    5.48
   2  12  -1   96.56    5.64
   2  12   0   12.99    1.69
   2  12   0   20.49    2.30
  -2 -12   0   13.54    1.39
   2  12   1   31.03    2.29
   2  12   1   32.17    2.18
  -2 -12  -1   28.46    1.91
   2  12   2  593.79   26.45
   2  12   2  536.36   16.34
   2  12   2  549.63   22.72
  -2 -12  -2  529.28   21.06
   2  12   3  528.04   20.72
   2  12   3  502.64   16.84
   2  12   3  525.59   20.71
   2  12   3  579.10   25.07
   2  12   4  246.32    9.24
   2  12   4  228.50    8.29
   2  12   4  260.88    9.49
   2  12   4  239.96    7.42
   2  12   5 1082.20   47.18
   2  12   5 1140.89   50.17
   2  12   5 1105.34   52.36
   2  12   5 1151.27   55.30
   2  12   6   11.15    1.18
   2  12   6    9.91    0.83
   2  12   6   13.30    1.32
   2  12   6   10.73    1.25
   2  12   7   59.24    2.96
   2  12   7   63.71    2.44
   2  12   7   55.80    3.37
   2  12   7   62.53    2.88
   2  12   8  196.34    6.80
   2  12   8  190.87    5.84
   2  12   8  217.80    9.33
   2  12   8  208.37    8.72
   2  12   9  271.00    8.39
   2  12   9  283.48    9.88
   2  12   9  295.37   12.98
   2  12   9  315.96   13.50
   2  12  10  166.67    5.07
   2  12  10  170.44    5.58
   2  12  10  202.85    8.27
   2  12  10  191.75    8.89
   2  12  11   11.99    0.76
   2  12  11   14.09    1.94
   2  12  11   12.81    2.13
   2  12  12    8.20    1.81
   2  12  12    9.55    1.73
   2  12  12    6.28    0.69
   2  12  12    6.21    0.56
   2  12  13   22.76    2.47
   2  12  13   21.50    2.98
   2  12  14   44.18    3.86
   2  12  14   53.80    3.77
   2  12  15   30.56    2.32
   2  12  15    6.20    1.59
   2  12  16  374.85   20.71
   2  12  17   29.15    3.63
   2  12  18   47.79    6.57
   2  12  19   43.58    5.53
   2  12  19   39.98    6.81
   2  13  -6   23.64    5.09
   2  13  -6   26.03    3.27
   2  13  -5   41.90    4.96
   2  13  -5   43.13    5.94
   2  13  -4   48.12    4.86
   2  13  -3   15.79    2.07
   2  13  -2   38.87    4.28
   2  13  -2   29.50    3.33
   2  13  -1   66.56    4.53
   2  13  -1   75.70    6.05
   2  13   0   66.01    5.53
   2  13   0   68.48    3.40
   2  13   1    4.07    1.19
   2  13   1    6.56    1.29
   2  13   2    2.30    0.96
   2  13   2    2.48    0.38
   2  13   2    3.36    1.03
   2  13   2    4.88    0.84
   2  13   3   40.82    1.45
   2  13   3   37.35    3.32
   2  13   3   42.44    2.50
   2  13   3   41.23    2.51
   2  13   4    2.10    0.50
   2  13   4    1.29    0.74
   2  13   4    1.47    0.81
   2  13   4    2.84    1.02
   2  13   5  210.36    9.08
   2  13   5  207.34    8.26
   2  13   5  194.95    7.44
   2  13   5  208.97    7.10
   2  13   6   15.81    1.72
   2  13   6   18.27    1.61
   2  13   6   13.76    1.20
   2  13   6   15.58    1.40
   2  13   7  161.51    6.70
   2  13   7  141.92    5.18
   2  13   7  158.84    7.04
   2  13   7  166.46    6.93
   2  13   8   30.71    1.32
   2  13   8   29.75    1.97
   2  13   8   34.40    2.48
   2  13   8   31.22    2.36
   2  13   9  125.16    5.00
   2  13   9  137.98    6.96
   2  13   9  135.37    6.72
   2  13   9  126.08    4.50
   2  13  10  213.00    7.02
   2  13  10  217.38    8.00
   2  13  10  233.93   10.99
   2  13  10  244.18   11.91
   2  13  11  262.98    8.62
   2  13  11  260.67    9.02
   2  13  11  308.34   14.63
   2  13  11  314.15   15.27
   2  13  12   23.43    2.33
   2  13  12   21.86    2.80
   2  13  13   48.72    4.73
   2  13  13   49.14    3.52
   2  13  14    4.28    1.33
   2  13  14    1.49    1.95
   2  13  15  203.96   11.68
   2  13  15  212.90   12.80
   2  13  16  121.81    8.32
   2  13  16   98.65    7.53
   2  13  17    1.66    1.71
   2  13  17    7.61    2.44
   2  13  18    6.35    2.87
   2  13  19    7.96    3.43
   2  14  -5   19.18    3.86
   2  14  -4   56.07    6.11
   2  14  -3    4.38    1.50
   2  14  -3    8.12    2.59
   2  14  -2   11.25    2.35
   2  14  -2   10.41    2.39
   2  14  -1   35.39    4.60
   2  14  -1   34.74    2.84
   2  14   0  262.02   15.83
   2  14   0  230.98   12.17
   2  14   1    8.65    2.18
   2  14   1    8.26    1.22
   2  14   2   17.41    2.18
   2  14   2   18.51    1.76
   2  14   2   16.79    2.09
   2  14   3   35.99    3.18
   2  14   3   26.92    1.91
   2  14   3   28.48    2.36
   2  14   4   41.49    1.73
   2  14   4   51.99    3.64
   2  14   4   39.76    2.62
   2  14   4   34.24    2.66
   2  14   5  260.29   12.26
   2  14   5  246.06   10.05
   2  14   5  249.77    9.40
   2  14   5  252.33   10.56
   2  14   6  203.80    9.39
   2  14   6  174.00    7.01
   2  14   6  190.50    7.95
   2  14   6  191.68    8.40
   2  14   7  159.30    6.27
   2  14   7  180.62    7.80
   2  14   7  171.95    7.49
   2  14   7  171.88    7.80
   2  14   8    1.64    1.01
   2  14   8    3.39    0.68
   2  14   8    2.48    1.04
   2  14   8    1.94    0.90
   2  14   9   44.37    2.63
   2  14   9   47.31    2.21
   2  14   9   44.92    3.58
   2  14   9   45.89    3.49
   2  14  10  568.74   22.72
   2  14  10  690.73   33.68
   2  14  10  640.40   30.95
   2  14  10  605.31   25.44
   2  14  11   26.21    1.66
   2  14  11   25.61    1.25
   2  14  11   33.77    3.19
   2  14  12    4.46    0.59
   2  14  12    9.08    1.36
   2  14  12    3.40    0.60
   2  14  12    7.75    1.67
   2  14  13   22.73    3.41
   2  14  13   24.55    3.22
   2  14  14    1.85    1.98
   2  14  14    4.04    1.72
   2  14  15   35.71    4.97
   2  14  15   37.88    4.71
   2  14  16   40.30    4.37
   2  14  16   35.40    5.32
   2  14  17  122.43   11.31
   2  14  17  114.13    8.22
   2  14  18    2.06    1.82
   2  14  18    4.08    2.60
   2  15  -3   18.32    3.48
   2  15  -3   19.67    3.64
   2  15  -2  113.58    7.72
   2  15  -2   36.34    4.70
   2  15  -1   99.00    8.89
   2  15  -1   89.21    6.86
   2  15   0    7.26    2.37
   2  15   0    4.27    1.35
   2  15   1   89.33    5.82
   2  15   1   71.46    4.14
   2  15   1   98.90    7.50
   2  15   2  235.33   10.63
   2  15   2  271.07   15.51
   2  15   2  198.60    8.74
   2  15   3  271.96   12.81
   2  15   3  308.55   15.86
   2  15   3  250.10   10.36
   2  15   4  156.18    8.65
   2  15   4  126.56    6.24
   2  15   4  129.89    6.60
   2  15   5    3.63    0.85
   2  15   5    2.83    0.66
   2  15   5    3.52    1.36
   2  15   5    3.88    1.04
   2  15   6    9.58    1.29
   2  15   6   10.18    1.76
   2  15   6   12.83    1.49
   2  15   6    8.43    1.09
   2  15   7    4.24    1.31
   2  15   7    5.30    0.79
   2  15   7    4.38    1.23
   2  15   7    5.37    1.04
   2  15   8    8.00    1.35
   2  15   8    6.51    1.24
   2  15   8    5.76    0.84
   2  15   8    4.50    1.18
   2  15   9    3.15    0.88
   2  15   9    2.19    0.61
   2  15   9    1.03    1.18
   2  15   9    3.23    1.19
   2  15  10  260.06   10.85
   2  15  10  230.02    9.03
   2  15  10  264.05   13.29
   2  15  10  283.35   14.06
   2  15  11  206.70   11.07
   2  15  11  163.07    6.41
   2  15  11  188.11   10.05
   2  15  11  154.01    5.70
   2  15  12   75.36    6.34
   2  15  12   83.61    5.88
   2  15  13    5.94    2.20
   2  15  13    5.83    2.04
   2  15  14   80.97    5.95
   2  15  14   81.30    6.80
   2  15  15    6.73    2.31
   2  15  15    5.17    1.94
   2  15  16   20.12    2.90
   2  15  16   15.99    3.18
   2  15  17   91.45    9.72
   2  15  17   89.57    8.89
   2  15  18  117.14   12.24
   2  15  18  109.78   11.09
   2  16  -1   64.08    5.77
   2  16  -1  118.81    7.71
   2  16   0   36.84    4.86
   2  16   0   24.84    3.64
   2  16   1   71.20    5.46
   2  16   1   70.91    5.67
   2  16   2    3.36    1.83
   2  16   2    2.35    1.04
   2  16   3   10.58    1.91
   2  16   3   11.15    2.61
   2  16   4   16.94    2.48
   2  16   4    9.70    1.56
   2  16   4   11.95    1.75
   2  16   5  115.67    5.50
   2  16   5  143.65    8.43
   2  16   5  129.26    6.51
   2  16   6   10.71    1.97
   2  16   6    8.87    1.41
   2  16   6   10.44    1.56
   2  16   7   16.08    1.75
   2  16   7   19.83    2.18
   2  16   7   15.17    1.59
   2  16   7   16.38    1.74
   2  16   8    4.73    1.16
   2  16   8    5.87    0.96
   2  16   8    4.44    1.37
   2  16   8    5.05    1.31
   2  16   9   24.74    1.89
   2  16   9   29.39    2.86
   2  16   9   28.64    2.43
   2  16   9   31.07    2.79
   2  16  10   43.40    3.50
   2  16  10   31.74    2.58
   2  16  10   35.47    3.35
   2  16  11    3.54    1.51
   2  16  11    3.47    1.61
   2  16  12   79.91    5.59
   2  16  12   98.08    6.49
   2  16  13   10.81    2.58
   2  16  13   14.28    2.95
   2  16  14    4.29    1.63
   2  16  14    2.60    1.92
   2  16  15    1.38    1.80
   2  16  15    1.94    1.97
   2  16  16   12.37    3.41
   2  16  16    8.85    3.06
   2  16  17   17.47    4.49
   2  16  17   15.78    3.88
   2  17   1   12.60    2.74
   2  17   1   16.26    3.56
   2  17   2   12.14    1.92
   2  17   2   17.21    3.32
   2  17   3    3.66    1.53
   2  17   3    4.05    2.04
   2  17   4    0.49    1.39
   2  17   4    0.93    1.00
   2  17   5   18.00    2.95
   2  17   5   14.82    2.01
   2  17   6  179.51   10.89
   2  17   6  149.25    8.01
   2  17   7  111.35    7.15
   2  17   7   96.46    5.22
   2  17   7  101.34    5.45
   2  17   8  134.41    7.55
   2  17   8  116.54    6.14
   2  17   8  112.11    5.73
   2  17   9   11.95    1.70
   2  17   9    8.92    1.28
   2  17   9   10.07    1.83
   2  17   9    8.84    1.57
   2  17  10   35.30    3.28
   2  17  10   44.79    3.96
   2  17  10   60.54    4.21
   2  17  11   36.78    3.53
   2  17  11   33.53    3.81
   2  17  12   77.24    6.94
   2  17  12   83.99    6.30
   2  17  13   68.03    7.44
   2  17  13   88.75    6.61
   2  17  14   38.27    4.41
   2  17  14   28.61    3.96
   2  17  15   77.98    7.56
   2  17  15   83.34    8.45
   2  17  16   15.09    3.24
   2  17  16   16.56    2.83
   2  18   4   10.81    2.75
   2  18   4    8.66    2.06
   2  18   5   15.93    2.46
   2  18   5   26.16    3.56
   2  18   6    9.74    1.74
   2  18   6    9.93    2.59
   2  18   7   67.21    4.40
   2  18   7   59.84    5.77
   2  18   8   46.27    4.39
   2  18   9   17.44    2.41
   2  18  10   24.11    2.97
   2  18  11   42.52    4.59
   2  18  11   43.16    4.16
   2  18  12  127.91    9.59
   2  18  12  121.08    8.83
   2  18  13   -0.39    1.51
   2  18  13   -0.64    1.01
   2  18  14   16.82    3.67
   2  18  14   15.85    3.24
  -3  17  11    3.62    1.81
  -3  17  11   -1.20    1.44
  -3  17  10   56.28    6.17
  -3  17  10   48.93    5.38
  -3  17   9   36.21    4.80
  -3  17   9   44.82    5.18
  -3  17   8   10.50    2.62
  -3  17   8    9.20    2.70
  -3  17   7    2.61    1.84
  -3  17   7    4.04    1.95
  -3  16  14    0.08    1.24
  -3  16  14    0.51    1.43
  -3  16  13    1.79    1.52
  -3  16  13    0.96    2.16
  -3  16  12    4.20    1.88
  -3  16  12    4.08    2.57
  -3  16  11   13.16    2.81
  -3  16  11   15.72    3.77
  -3  16  10   78.44    7.54
  -3  16  10   67.93    6.52
  -3  16   9    8.19    2.28
  -3  16   9    7.82    2.53
  -3  16   8    0.90    1.57
  -3  16   8    2.52    1.61
  -3  16   7   11.85    2.79
  -3  16   7   13.38    2.61
  -3  16   6    1.27    1.08
  -3  16   6    0.54    1.50
  -3  16   6    0.94    1.10
  -3  16   5    5.13    1.82
  -3  16   5    7.53    2.32
  -3  16   5    7.14    1.83
  -3  16   4   12.64    2.65
  -3  16   4   13.50    3.11
  -3  16   3    9.90    2.65
  -3  16   3   10.47    3.03
  -3  15  16   56.82    7.53
  -3  15  16   61.81    6.01
  -3  15  15  209.79   17.36
  -3  15  15  143.60    9.48
  -3  15  14    8.04    1.58
  -3  15  14    8.92    2.57
  -3  15  14    3.60    2.19
  -3  15  13   33.60    4.25
  -3  15  13   41.42    4.55
  -3  15  12  226.49   15.92
  -3  15  12  163.06   10.84
  -3  15  11    1.83    1.48
  -3  15  11    2.46    1.51
  -3  15  10   57.75    6.48
  -3  15  10   60.13    5.51
  -3  15   9  160.50   11.43
  -3  15   9  150.53   10.13
  -3  15   8  253.00   15.75
  -3  15   8  274.23   16.59
  -3  15   7   14.01    1.68
  -3  15   7   23.66    3.05
  -3  15   7   24.96    2.95
  -3  15   6   61.92    3.81
  -3  15   6   74.13    5.70
  -3  15   6   65.57    5.21
  -3  15   5  122.17    7.15
  -3  15   5  149.81    8.73
  -3  15   5  151.35    8.57
  -3  15   4   10.50    2.10
  -3  15   4    8.60    1.60
  -3  15   4   11.82    1.94
  -3  15   3   99.43    8.11
  -3  15   3   91.33    5.77
  -3  15   3   96.89    7.24
  -3  15   2   42.81    5.16
  -3  15   2   34.06    4.64
  -3  15   1   52.04    5.35
  -3  15   1   35.43    3.88
  -3  15   0    3.64    2.11
  -3  15   0    2.37    0.97
  -3  14  17   64.64    7.04
  -3  14  17   82.17    8.63
  -3  14  16   37.44    5.29
  -3  14  16   35.91    4.42
  -3  14  15   52.57    7.45
  -3  14  15   47.54    4.74
  -3  14  14   10.74    1.95
  -3  14  14    6.40    2.48
  -3  14  13   13.93    2.75
  -3  14  13   11.69    1.96
  -3  14  12  168.07   10.25
  -3  14  12  121.74    7.24
  -3  14  12  149.75    9.76
  -3  14  11   57.48    5.15
  -3  14  11   50.83    3.60
  -3  14  11   86.88    6.74
  -3  14  10    2.19    0.82
  -3  14  10    3.43    1.48
  -3  14  10    2.86    1.81
  -3  14   9   54.60    4.78
  -3  14   9   53.37    4.26
  -3  14   8    1.06    0.68
  -3  14   8    2.10    1.48
  -3  14   8    3.90    1.30
  -3  14   7  146.06    6.48
  -3  14   7  202.15   11.02
  -3  14   7  171.89   10.32
  -3  14   6   87.35    4.99
  -3  14   6  108.40    6.99
  -3  14   6  108.09    6.05
  -3  14   5    3.67    1.49
  -3  14   5    3.04    1.30
  -3  14   5    0.98    1.08
  -3  14   4   65.94    4.48
  -3  14   4   54.37    4.49
  -3  14   4   68.44    5.85
  -3  14   3    7.87    1.36
  -3  14   3   10.02    1.68
  -3  14   3    5.09    1.38
   3 -14  -2    2.62    1.38
  -3  14   2    1.01    1.00
  -3  14   2    2.44    1.57
   3 -14  -1    4.10    1.40
  -3  14   1    4.28    2.03
   3 -14   0    5.93    2.08
  -3  14   0    4.20    1.61
   3 -14   1   31.35    3.56
  -3  14  -1   35.40    3.56
   3 -14   2  153.81   12.82
  -3  14  -2  174.19   11.54
  -3  13  17    0.60    1.53
  -3  13  16   13.30    2.88
  -3  13  15   20.05    4.54
  -3  13  15   19.97    3.06
   3 -13 -14   68.23    5.56
  -3  13  14   66.20    4.32
  -3  13  14   66.81    6.25
   3 -13 -13   62.03    4.50
  -3  13  13   66.29    4.61
  -3  13  13   73.91    5.94
   3 -13 -12   15.65    1.99
  -3  13  12   18.31    2.03
  -3  13  12   18.70    2.84
  -3  13  11   18.85    1.77
  -3  13  11   24.71    3.58
  -3  13  11   13.60    1.27
  -3  13  10    2.46    0.78
  -3  13  10    4.65    1.51
  -3  13  10    5.01    1.38
  -3  13   9    2.81    1.03
  -3  13   9    4.05    1.64
  -3  13   9    2.55    0.63
  -3  13   8    0.79    0.45
  -3  13   8    2.40    1.32
  -3  13   8    1.36    0.44
  -3  13   8    1.62    1.15
  -3  13   7   49.53    4.59
  -3  13   7   56.38    4.54
  -3  13   6  109.37    5.19
  -3  13   6  128.74    6.60
  -3  13   6  123.36    7.45
  -3  13   5  301.71   16.03
  -3  13   5  323.29   15.42
  -3  13   5  260.59   11.29
  -3  13   4  754.47   41.12
  -3  13   4  771.55   38.73
   3 -13  -3   37.21    3.12
  -3  13   3   34.93    3.02
  -3  13   3   40.17    2.95
   3 -13  -2  146.71    7.25
  -3  13   2  160.56    9.85
  -3  13   2  143.93    7.04
   3 -13  -1   10.54    1.58
  -3  13   1    9.27    1.74
  -3  13   1    8.08    1.37
   3 -13   0   46.56    4.23
  -3  13   0   41.15    4.37
  -3  13   0   32.21    2.38
   3 -13   1   21.23    2.75
  -3  13  -1   26.10    3.62
   3 -13   2    2.77    1.49
  -3  13  -2    2.99    1.44
   3 -13   3   57.82    5.45
   3 -13   4   32.52    5.65
  -3  12  18   51.25    6.98
  -3  12  18   87.86    8.40
  -3  12  17   60.64    7.07
  -3  12  17   79.27    9.42
  -3  12  16   45.78    4.02
   3 -12 -15    2.94    1.13
  -3  12  15   -0.07    1.48
   3 -12 -14    4.38    1.59
  -3  12  14    2.48    1.49
   3 -12 -13   15.16    2.64
  -3  12  13   19.18    2.75
  -3  12  13   17.80    2.33
   3 -12 -12   99.46    6.56
  -3  12  12   94.01    5.56
  -3  12  12  105.06    6.91
   3 -12 -11   31.71    3.14
  -3  12  11   25.80    2.31
  -3  12  11   32.52    3.15
   3 -12 -10    2.14    1.22
  -3  12  10    1.19    0.78
  -3  12  10    3.07    1.54
  -3  12   9   32.55    1.88
  -3  12   9   38.48    3.43
  -3  12   9   44.60    3.05
  -3  12   8   56.10    4.01
  -3  12   8   48.47    3.60
  -3  12   8   35.56    1.98
  -3  12   7   64.94    4.60
  -3  12   7   67.77    4.86
  -3  12   6  131.75    7.59
  -3  12   6  136.37    7.53
  -3  12   6  113.10    4.80
  -3  12   5  502.87   26.00
  -3  12   5  531.43   25.91
   3 -12  -4   15.13    1.74
  -3  12   4   20.29    2.39
  -3  12   4   17.27    2.11
   3 -12  -3  144.81    7.46
  -3  12   3  162.14    8.95
  -3  12   3  157.77    7.52
   3 -12  -2   95.21    4.63
  -3  12   2   97.73    4.60
  -3  12   2  101.48    6.52
   3 -12  -1   31.82    2.37
  -3  12   1   29.86    1.98
  -3  12   1   28.94    2.54
   3 -12   0   30.53    3.48
  -3  12   0   33.88    3.75
  -3  12   0   34.52    1.96
   3 -12   1   32.92    2.88
  -3  12  -1   37.56    3.68
  -3  12  -1   27.88    2.03
   3 -12   2   13.86    1.97
  -3  12  -2    9.58    1.18
   3 -12   3   10.44    2.16
   3 -12   4    5.32    2.48
   3 -12   5   39.95    4.64
  -3  11  18  152.67   11.99
  -3  11  18   91.35   11.05
  -3  11  17   91.49    7.33
  -3  11  17  115.89   10.92
   3 -11 -16    5.45    1.97
  -3  11  16    5.56    2.16
  -3  11  16    5.73    2.16
   3 -11 -15   13.31    2.40
  -3  11  15   10.12    1.93
  -3  11  15   15.76    3.47
   3 -11 -14   14.38    2.52
  -3  11  14   13.84    2.40
   3 -11 -13   33.51    3.40
  -3  11  13   30.17    3.13
   3 -11 -12  103.18    6.35
  -3  11  12  105.67    6.54
  -3  11  12   95.68    5.75
   3 -11 -11  666.02   34.11
  -3  11  11  694.89   35.32
  -3  11  11  626.91   29.83
   3 -11 -10  100.82    6.00
  -3  11  10  128.45    7.16
  -3  11  10   86.75    4.53
   3 -11  -9    1.61    1.10
  -3  11   9    1.49    0.28
  -3  11   9    2.78    0.74
  -3  11   9    3.39    1.34
  -3  11   8  160.95    4.68
  -3  11   8  200.12    8.62
  -3  11   8  179.22    6.05
  -3  11   8  182.31    7.92
  -3  11   7    1.68    0.42
  -3  11   7    1.69    1.14
  -3  11   7    2.34    0.52
  -3  11   7    1.20    1.24
  -3  11   6  379.45   15.74
  -3  11   6  319.52    9.80
  -3  11   6  333.11   11.92
  -3  11   6  390.18   17.43
   3 -11  -5  189.48    7.18
  -3  11   5  208.26   10.13
  -3  11   5  217.88    8.63
   3 -11  -4  110.83    4.84
  -3  11   4  116.04    6.52
  -3  11   4  127.21    6.16
   3 -11  -3  302.53   12.84
  -3  11   3  311.57   13.74
  -3  11   3  315.32   13.43
   3 -11  -2    2.45    0.81
  -3  11   2    3.74    0.95
  -3  11   2    1.85    0.99
   3 -11  -1    9.54    1.75
  -3  11   1   12.60    1.52
  -3  11   1    9.38    1.35
   3 -11   0    9.93    1.75
  -3  11   0    7.24    1.40
  -3  11   0    7.44    1.17
   3 -11   1   19.17    2.07
  -3  11  -1   18.72    1.49
   3 -11   2   17.31    2.10
  -3  11  -2   15.56    1.34
   3 -11   3   10.16    1.72
  -3  11  -3    6.02    0.85
   3 -11   4   85.72    7.90
   3 -11   5   68.95    5.96
  -3  11  -5   91.75    7.10
   3 -11   6    4.76    1.88
  -3  11  -6    3.28    1.63
   3 -11   7   82.78    9.60
  -3  11  -7   77.51    6.57
  -3  10  19    8.08    3.61
  -3  10  19    9.16    4.00
  -3  10  18   16.81    3.95
  -3  10  18   15.36    4.65
   3 -10 -17   98.41    6.69
  -3  10  17  103.15    7.68
  -3  10  17  124.16   11.39
   3 -10 -16   40.95    4.47
  -3  10  16   41.53    4.65
  -3  10  16   42.54    4.93
   3 -10 -15  279.93   15.94
  -3  10  15  294.05   20.20
  -3  10  15  273.79   16.76
   3 -10 -14  109.33    7.50
  -3  10  14  123.31    9.50
  -3  10  14  118.40    7.49
   3 -10 -13   61.92    4.93
  -3  10  13   77.65    4.85
   3 -10 -12    7.82    1.71
  -3  10  12    7.22    1.56
   3 -10 -11 1026.34   53.09
  -3  10  11  931.18   46.53
   3 -10 -10    3.57    1.32
  -3  10  10    3.42    1.64
  -3  10  10    5.03    1.01
   3 -10  -9  360.53   16.49
  -3  10   9  385.85   19.24
  -3  10   9  376.55   14.79
   3 -10  -8  314.31   12.06
  -3  10   8  255.63    7.04
  -3  10   8  291.73    9.87
  -3  10   8  329.91   15.25
  -3  10   7  386.56   11.81
  -3  10   7  428.91   13.92
  -3  10   7  460.97   20.34
  -3  10   6  199.18    8.00
  -3  10   6  173.42    5.08
  -3  10   6  198.12    9.33
   3 -10  -5  176.47    5.83
  -3  10   5  196.16    8.68
  -3  10   5  191.48    8.26
  -3  10   5  156.37    3.97
   3 -10  -4    5.96    0.92
  -3  10   4    6.88    1.42
  -3  10   4    8.19    1.30
   3 -10  -3   38.99    2.21
  -3  10   3   42.47    2.63
  -3  10   3   34.04    2.38
   3 -10  -2  126.11    5.73
  -3  10   2  130.97    6.78
  -3  10   2  126.51    5.59
   3 -10  -1    1.63    0.91
  -3  10   1    0.89    0.73
   3 -10   0   90.95    4.25
  -3  10   0   86.27    3.96
   3 -10   1  687.62   33.56
  -3  10  -1  621.22   25.08
   3 -10   2  473.81   23.28
  -3  10  -2  418.20   15.85
   3 -10   3   86.77    5.05
  -3  10  -3   88.59    4.93
  -3  10  -3   79.21    3.18
   3 -10   4   76.52    5.74
  -3  10  -4   53.89    2.75
  -3  10  -4   74.34    5.25
   3 -10   5  277.11   14.81
  -3  10  -5  246.48   13.15
   3 -10   6   68.71    5.48
  -3  10  -6   70.79    6.28
   3 -10   7   75.19    6.48
  -3  10  -7   76.39    7.08
   3 -10   8  155.32   11.78
  -3  10  -8  143.91   10.24
  -3   9  19  253.81   21.90
  -3   9  19  239.01   19.08
   3  -9 -18  221.39   16.36
  -3   9  18  236.97   18.98
  -3   9  18  246.96   21.18
   3  -9 -17  284.64   18.52
  -3   9  17  300.45   18.19
  -3   9  17  311.26   23.92
   3  -9 -16   30.40    3.75
  -3   9  16   26.52    4.28
  -3   9  16   33.47    3.97
   3  -9 -15  125.09    8.69
  -3   9  15  135.00   10.76
  -3   9  15  130.16    9.08
   3  -9 -14  129.46    6.92
  -3   9  14   95.75    7.08
  -3   9  14  110.60    7.12
   3  -9 -13   60.98    3.60
  -3   9  13   65.58    4.55
  -3   9  13   61.67    4.51
   3  -9 -12    7.45    1.56
  -3   9  12    4.42    2.00
  -3   9  12    5.95    1.50
   3  -9 -11   44.21    3.65
  -3   9  11   55.90    3.24
   3  -9 -10  218.92    8.96
  -3   9  10  212.28    8.69
   3  -9  -9  118.43    5.94
  -3   9   9  111.78    4.57
   3  -9  -8  100.73    5.18
  -3   9   8  104.00    3.93
  -3   9   8  106.85    5.85
   3  -9  -7   45.26    2.85
  -3   9   7   36.84    1.58
  -3   9   7   49.47    3.21
   3  -9  -6    9.18    0.55
   3  -9  -6    7.88    1.39
  -3   9   6    6.86    1.46
  -3   9   6    7.27    0.67
   3  -9  -5   87.77    2.78
  -3   9   5  101.26    4.77
  -3   9   5   85.84    2.18
  -3   9   5   91.74    3.84
   3  -9  -4   35.74    1.70
  -3   9   4   40.38    2.77
  -3   9   4   41.37    2.53
   3  -9  -3   28.59    1.74
  -3   9   3   30.39    1.89
  -3   9   3   26.14    2.15
   3  -9  -2    7.68    1.15
  -3   9   2   10.93    1.24
   3  -9  -1  168.05    6.12
  -3   9   1  177.04    6.71
   3  -9   0   89.19    4.60
  -3   9   0   86.13    3.31
   3  -9   1  105.48    4.79
  -3   9  -1  105.41    4.26
   3  -9   2  474.71   22.31
  -3   9  -2  469.45   19.87
  -3   9  -2  456.79   16.56
   3  -9   3    4.67    1.55
  -3   9  -3    3.22    0.79
  -3   9  -3    4.42    1.09
   3  -9   4   41.36    3.13
  -3   9  -4   43.13    2.88
  -3   9  -4   36.23    1.75
   3  -9   5    1.25    0.94
  -3   9  -5   -0.97    1.06
  -3   9  -5    0.49    0.49
   3  -9   6    7.59    1.69
  -3   9  -6    4.52    0.94
  -3   9  -6    7.90    1.50
   3  -9   7    8.24    1.67
  -3   9  -7    2.41    0.90
  -3   9  -7    5.92    1.99
   3  -9   8  122.18    8.15
  -3   9  -8  116.84    9.17
   3  -9   9  116.90   11.16
  -3   9  -9  107.20    7.54
  -3   8  19   92.60   11.08
  -3   8  19   81.59   11.05
   3  -8 -18   72.48    7.57
  -3   8  18   90.39    7.25
  -3   8  18   76.30    9.67
   3  -8 -17  245.84   16.87
  -3   8  17  285.31   19.45
  -3   8  17  270.43   17.37
   3  -8 -16  123.31    9.09
  -3   8  16  133.85    9.28
  -3   8  16  142.28   10.45
   3  -8 -15  107.20    6.67
  -3   8  15   90.22    8.14
  -3   8  15   86.39    5.91
   3  -8 -14   28.87    3.39
  -3   8  14   36.05    3.22
  -3   8  14   33.72    3.55
   3  -8 -13   63.52    4.62
  -3   8  13   78.74    5.69
  -3   8  13   62.85    3.63
   3  -8 -12  121.36    6.49
  -3   8  12  117.96    6.50
  -3   8  12  116.60    6.48
   3  -8 -11  145.30    7.32
  -3   8  11  149.14    8.69
  -3   8  11  146.88    6.86
   3  -8 -10   13.72    2.02
  -3   8  10   19.98    1.68
  -3   8  10   17.50    2.37
   3  -8  -9  757.66   34.23
  -3   8   9  747.53   31.17
   3  -8  -8    1.77    0.68
  -3   8   8    1.59    0.61
   3  -8  -7   25.08    1.53
  -3   8   7   24.01    1.14
   3  -8  -6  172.46    4.36
   3  -8  -6  190.08    7.58
  -3   8   6  177.69    5.06
  -3   8   6  187.86    7.88
   3  -8  -5  363.48   10.27
   3  -8  -5  376.03   13.24
  -3   8   5  384.95   14.89
  -3   8   5  363.48    9.99
   3  -8  -4  100.17    3.06
  -3   8   4   99.75    2.35
  -3   8   4  105.65    4.71
  -3   8   4   94.50    2.18
  -3   8   4  109.92    4.58
   3  -8  -3  128.05    4.21
  -3   8   3  130.21    5.27
   3  -8  -2    8.80    1.02
  -3   8   2    8.69    0.88
   3  -8  -1   10.94    0.95
  -3   8   1    8.89    1.16
   3  -8   0  232.41    9.37
  -3   8   0  239.32    8.41
   3  -8   1  942.04   42.66
  -3   8  -1  874.38   36.12
  -3   8  -1  938.25   40.61
   3  -8   2 1953.89  110.87
  -3   8  -2 2027.43  113.42
  -3   8  -2 1796.34   90.75
   3  -8   3   41.67    2.69
  -3   8  -3   43.14    2.77
  -3   8  -3   41.61    2.10
   3  -8   4   23.99    2.34
  -3   8  -4   26.53    1.38
  -3   8  -4   19.01    2.14
   3  -8   5   44.29    4.08
  -3   8  -5   45.44    2.86
   3  -8   6  142.28    8.94
  -3   8  -6  137.87    6.65
  -3   8  -6  111.64    4.64
   3  -8   7   13.58    1.98
  -3   8  -7   10.68    2.26
  -3   8  -7    9.12    1.17
   3  -8   8   18.40    2.46
  -3   8  -8   15.77    2.91
  -3   8  -8   12.34    1.42
   3  -8   9    3.58    2.51
  -3   8  -9    5.87    1.66
  -3   8 -10   61.47    6.63
   3  -7 -19   38.51    6.09
  -3   7  19   54.25    7.55
   3  -7 -18  164.26   13.15
  -3   7  18  196.88   14.00
  -3   7  18  191.78   16.06
   3  -7 -17   62.63    6.09
  -3   7  17   60.63    7.34
  -3   7  17   65.17    5.57
   3  -7 -16    7.53    1.65
  -3   7  16    6.75    2.52
  -3   7  16    8.75    2.64
   3  -7 -15   23.98    2.31
  -3   7  15   19.19    3.72
  -3   7  15   21.97    3.44
   3  -7 -14  186.09   10.39
  -3   7  14  183.25    9.27
  -3   7  14  185.36   10.18
   3  -7 -13   80.87    6.06
  -3   7  13  109.22    7.10
  -3   7  13  114.16    6.26
   3  -7 -12   35.53    3.15
  -3   7  12   35.03    3.06
  -3   7  12   38.88    3.70
   3  -7 -11   87.88    4.86
  -3   7  11   87.41    4.64
  -3   7  11   84.78    4.52
   3  -7 -10  129.24    6.27
  -3   7  10  131.36    5.63
  -3   7  10  136.47    6.01
   3  -7  -9    4.61    1.30
  -3   7   9    6.41    1.09
  -3   7   9    9.45    1.04
   3  -7  -8  113.99    5.10
  -3   7   8  115.32    4.75
  -3   7   8  112.30    4.12
  -3   7   7   26.26    0.49
  -3   7   7   30.39    0.55
   3  -7  -6   96.34    4.00
   3  -7  -6   86.06    1.86
  -3   7   6   96.11    2.09
  -3   7   6   89.68    2.51
   3  -7  -5   90.07    2.10
   3  -7  -5   95.06    3.99
  -3   7   5   91.50    2.28
  -3   7   5   88.83    3.41
   3  -7  -4  827.67   28.27
   3  -7  -4  830.95   32.73
   3  -7  -4  829.15   25.86
  -3   7   4  836.37   32.88
  -3   7   4  793.89   25.10
   3  -7  -3   60.36    2.18
  -3   7   3   67.54    2.91
   3  -7  -2   52.02    2.08
  -3   7   2   49.95    1.99
   3  -7  -1  185.18    6.36
  -3   7   1  193.96    6.71
   3  -7   0  327.97   11.71
  -3   7   0  338.57   11.48
  -3   7   0  293.34   10.14
   3  -7   1   83.63    3.96
  -3   7  -1   74.00    3.97
  -3   7  -1   81.58    3.06
   3  -7   2  463.98   19.19
  -3   7  -2  447.81   18.68
  -3   7  -2  467.75   15.77
   3  -7   3  813.34   36.96
  -3   7  -3  752.68   28.73
  -3   7  -3  778.54   33.43
   3  -7   4  123.97    6.47
  -3   7  -4  108.72    4.07
  -3   7  -4  130.69    5.98
  -3   7  -4   92.87    2.55
   3  -7   5  267.38   12.93
  -3   7  -5  259.51   11.72
  -3   7  -5  234.20    8.34
   3  -7   6    8.33    1.67
  -3   7  -6    4.73    1.47
  -3   7  -6    4.07    0.74
   3  -7   7   18.30    2.09
  -3   7  -7   14.66    1.12
  -3   7  -7   16.05    2.38
   3  -7   8    1.23    1.16
  -3   7  -8    1.07    0.69
  -3   7  -8    1.83    0.97
   3  -7   9  215.28   13.24
  -3   7  -9  183.47   10.77
  -3   7  -9  151.20    6.81
  -3   7 -10   -2.26    1.20
  -3   7 -10    0.66    0.66
  -3   7 -11   83.72    6.51
   3  -6 -19  118.37   10.78
  -3   6  19  141.40   13.44
   3  -6 -18   35.61    5.09
  -3   6  18   40.26    4.63
   3  -6 -17 1086.84   69.96
  -3   6  17 1158.33   78.15
   3  -6 -16   72.44    4.53
  -3   6  16   58.28    5.52
   3  -6 -15   40.00    3.79
  -3   6  15   32.29    3.45
   3  -6 -14    4.40    1.58
  -3   6  14    2.95    1.43
  -3   6  14    5.87    1.36
   3  -6 -13  111.54    6.57
  -3   6  13  117.62    7.81
  -3   6  13  118.02    7.26
   3  -6 -12   17.25    2.06
  -3   6  12   15.64    1.65
  -3   6  12   14.58    2.45
   3  -6 -11  253.29   11.26
  -3   6  11  253.66   11.00
  -3   6  11  252.21   12.19
   3  -6 -10   69.87    3.90
  -3   6  10   76.74    3.80
  -3   6  10   76.84    4.39
   3  -6  -9  155.03    6.67
  -3   6   9  151.57    7.41
  -3   6   9  155.90    5.93
   3  -6  -8  534.09   19.71
  -3   6   8  551.24   20.92
  -3   6   8  538.04   19.27
   3  -6  -7 1332.12   62.48
  -3   6   7 1343.95   64.45
  -3   6   7 1278.49   54.80
   3  -6  -6   49.86    0.91
   3  -6  -6   56.18    2.14
  -3   6   6   54.16    0.99
  -3   6   6   55.68    1.83
   3  -6  -5  689.02   26.67
   3  -6  -5  655.98   18.73
  -3   6   5  721.11   20.85
  -3   6   5  676.58   21.06
   3  -6  -4 1580.31   61.50
   3  -6  -4 1445.21   58.29
   3  -6  -4 1452.58   68.85
  -3   6   4 1511.92   59.40
   3  -6  -3 1292.66   58.09
   3  -6  -3 1286.75   50.81
   3  -6  -3 1287.86   45.01
  -3   6   3 1250.72   43.53
  -3   6   3 1316.15   58.47
   3  -6  -2  260.91    7.46
  -3   6   2  271.46    9.12
   3  -6  -1 1437.39   62.59
  -3   6   1 1437.83   64.51
  -3   6   1 1383.71   62.20
   3  -6   0   68.37    2.74
  -3   6   0   64.29    2.98
  -3   6   0   66.09    2.58
   3  -6   1   13.46    1.10
  -3   6  -1    9.43    1.19
  -3   6  -1    5.40    0.91
   3  -6   2  320.79   11.90
  -3   6  -2  319.62   11.02
  -3   6  -2  315.60   10.01
   3  -6   3    9.92    1.54
  -3   6  -3   10.48    0.95
  -3   6  -3   14.44    1.09
   3  -6   4  206.76    8.91
  -3   6  -4  191.25    6.18
  -3   6  -4  189.04    6.99
  -3   6  -4  173.69    4.44
   3  -6   5   24.67    2.64
  -3   6  -5   27.52    1.48
  -3   6  -5   26.27    2.26
   3  -6   6   79.99    4.09
  -3   6  -6   78.86    4.44
  -3   6  -6   70.86    3.03
   3  -6   7    5.04    1.67
  -3   6  -7    5.97    1.43
  -3   6  -7    4.19    0.84
   3  -6   8   95.27    5.92
  -3   6  -8  117.43    6.28
  -3   6  -9    1.99    1.03
  -3   6  -9    1.80    0.81
  -3   6 -10   17.78    2.74
  -3   6 -10   11.29    1.65
   3  -6  11   12.44    2.42
  -3   6 -11    9.76    1.60
  -3   6 -11   11.38    2.68
   3  -6  12   41.53    5.41
  -3   6 -12   59.67    5.94
   3  -5 -19    8.23    2.60
  -3   5  19    3.19    2.45
  -3   5  19    5.80    2.30
   3  -5 -18  237.66   17.28
  -3   5  18  253.25   16.90
  -3   5  18  241.87   16.23
   3  -5 -17   10.94    2.68
  -3   5  17    8.59    3.11
  -3   5  17   10.54    3.15
   3  -5 -16    1.74    1.56
  -3   5  16    2.73    1.35
   3  -5 -15  242.37   13.79
  -3   5  15  249.77   15.35
   3  -5 -14 1927.74  123.48
  -3   5  14 2119.26  138.04
   3  -5 -13    2.75    1.24
  -3   5  13    1.41    1.01
   3  -5 -12   53.61    2.97
  -3   5  12   60.58    3.22
  -3   5  12   57.09    4.23
   3  -5 -11  536.28   21.84
  -3   5  11  563.93   22.44
  -3   5  11  556.02   25.91
   3  -5 -10    3.26    0.98
  -3   5  10    2.40    0.81
  -3   5  10    1.59    0.94
   3  -5  -9   58.85    2.34
  -3   5   9   54.43    2.73
  -3   5   9   57.14    3.23
   3  -5  -8 1631.51   79.27
  -3   5   8 1600.22   74.97
  -3   5   8 1663.76   85.26
   3  -5  -7 1624.64   78.06
  -3   5   7 1667.82   76.99
  -3   5   7 1659.18   83.44
   3  -5  -6   10.09    1.03
  -3   5   6   16.77    0.95
  -3   5   6   16.13    1.45
   3  -5  -5   47.98    2.17
  -3   5   5   45.83    0.91
  -3   5   5   41.12    1.30
  -3   5   5   53.63    2.31
   3  -5  -4   17.09    1.26
   3  -5  -4   17.09    0.49
   3  -5  -4   15.77    0.54
  -3   5   4   16.46    0.56
   3  -5  -3  105.57    3.96
   3  -5  -3  112.78    2.56
  -3   5   3  100.86    2.05
   3  -5  -2  151.93    2.43
   3  -5  -2  151.94    4.06
   3  -5  -1  209.92    5.95
  -3   5   1  206.56    6.15
  -3   5   1  230.95    7.04
   3  -5   0    3.02    0.63
  -3   5   0    3.19    0.76
  -3   5   0    3.68    0.67
   3  -5   1  253.53    8.36
  -3   5  -1  267.85    7.89
  -3   5  -1  239.74    7.36
   3  -5   2  150.70    5.66
  -3   5  -2  176.73    5.96
  -3   5  -2  138.01    4.36
   3  -5   3   92.93    1.73
   3  -5   3  108.32    3.73
  -3   5  -3  113.93    3.44
  -3   5  -3  100.41    3.41
  -3   5  -3   97.04    1.90
   3  -5   4   26.26    1.94
   3  -5   4   18.05    0.75
  -3   5  -4   23.66    1.74
  -3   5  -4   20.60    1.20
  -3   5  -4   20.01    0.73
   3  -5   5  712.48   29.36
   3  -5   5  641.43   20.82
  -3   5  -5  695.60   25.59
  -3   5  -5  747.86   30.91
   3  -5   6   11.45    2.02
   3  -5   6   12.17    0.82
  -3   5  -6   13.95    1.44
  -3   5  -6   17.08    1.23
   3  -5   7   16.96    1.62
   3  -5   7   10.10    0.86
  -3   5  -7   12.65    1.32
  -3   5  -7   16.21    1.18
  -3   5  -8  221.52    8.11
  -3   5  -8  247.84   10.02
  -3   5  -9  231.73   11.27
  -3   5  -9  208.67    7.92
  -3   5 -10   33.15    2.86
  -3   5 -10   27.25    2.26
   3  -5  11  373.90   21.90
  -3   5 -11  354.05   18.68
  -3   5 -11  288.87   13.49
   3  -5  12  551.52   32.59
  -3   5 -12  393.06   20.17
  -3   5 -12  516.55   28.13
   3  -5  13   10.14    2.92
  -3   5 -13   10.09    2.57
  -3   5 -13    4.49    1.69
   3  -4 -19   14.25    3.79
  -3   4  19   14.90    3.96
  -3   4  19   15.72    3.60
   3  -4 -18   63.08    7.48
  -3   4  18   82.00    8.92
  -3   4  18   70.33    7.81
   3  -4 -17  135.93    9.32
  -3   4  17  160.00   11.62
  -3   4  17  173.11   12.76
   3  -4 -16    2.51    1.40
  -3   4  16    4.15    1.62
  -3   4  16    4.89    1.48
   3  -4 -15    1.38    1.08
  -3   4  15    2.61    1.47
  -3   4  15    2.29    1.68
   3  -4 -14  294.62   15.19
  -3   4  14  287.75   15.98
  -3   4  14  306.62   14.77
   3  -4 -13   62.45    4.57
  -3   4  13   64.40    4.88
   3  -4 -12  216.31    8.72
  -3   4  12  222.29   10.72
   3  -4 -11  881.89   40.89
  -3   4  11  910.83   43.83
   3  -4 -10   15.34    1.58
  -3   4  10   13.20    1.79
   3  -4  -9   79.08    3.76
  -3   4   9   80.06    3.71
  -3   4   9   78.47    4.06
   3  -4  -8   38.48    2.23
  -3   4   8   42.22    2.09
  -3   4   8   39.24    2.39
   3  -4  -7  337.11   11.63
  -3   4   7  313.39   10.32
  -3   4   7  320.70   11.66
   3  -4  -6 1546.36   71.51
  -3   4   6 1502.55   65.36
  -3   4   6 1546.55   72.56
   3  -4  -5 5355.76  404.98
   3  -4  -4   80.78    2.49
   3  -4  -4   83.18    1.61
  -3   4   4   80.95    1.98
  -3   4   4   89.54    1.65
  -3   4   4   87.50    2.70
   3  -4  -3 2924.25  148.10
   3  -4  -3 2871.17  164.76
   3  -4  -3 2906.12  148.87
  -3   4   3 2939.28  150.91
  -3   4   3 2796.68  141.55
   3  -4  -2   18.71    0.67
   3  -4  -2   16.93    1.14
   3  -4  -1 2753.80  144.43
  -3   4   1 2730.53  149.68
   3  -4   0    4.94    0.63
  -3   4   0    5.02    0.74
  -3   4   0    5.16    0.51
   3  -4   1  314.02    9.69
  -3   4  -1  311.72    9.70
  -3   4  -1  321.78    9.32
   3  -4   2  229.12    6.88
  -3   4  -2  240.29    6.86
  -3   4  -2  227.49    6.57
   3  -4   3  339.20   10.92
   3  -4   3  326.97    7.43
  -3   4  -3  348.99   11.59
  -3   4  -3  328.51    7.58
  -3   4  -3  341.68   10.06
   3  -4   4   33.64    2.16
  -3   4  -4   34.78    1.57
  -3   4  -4   34.73    1.53
   3  -4   5  188.26    4.69
   3  -4   5  200.66    7.68
  -3   4  -5  185.73    5.79
  -3   4  -5  186.39    6.87
   3  -4   6  615.65   20.79
   3  -4   6  666.24   28.49
  -3   4  -6  613.83   22.73
  -3   4  -6  643.56   26.08
   3  -4   7   28.51    1.33
   3  -4   7   30.39    2.78
  -3   4  -7   32.87    1.64
  -3   4  -7   28.23    2.24
   3  -4   8  237.86    8.67
  -3   4  -8  261.07   10.03
  -3   4  -8  237.68    9.14
   3  -4   9  581.73   23.53
  -3   4  -9  635.06   28.69
  -3   4  -9  539.67   23.04
   3  -4  10  114.39    6.74
  -3   4 -10   79.36    4.30
  -3   4 -10   98.27    5.76
   3  -4  11   58.04    4.86
  -3   4 -11   43.54    4.00
  -3   4 -11   34.44    2.97
   3  -4  12    4.08    1.95
  -3   4 -12    3.61    1.25
  -3   4 -12    2.81    1.20
   3  -4  13  108.05    8.84
  -3   4 -13   98.74    6.08
  -3   4 -13   82.09    5.59
   3  -4  14   68.18    7.95
  -3   4 -14   75.68    5.70
  -3   4 -14   57.14    5.01
   3  -3 -18  480.16   28.80
  -3   3  18  520.98   36.80
  -3   3  18  466.91   29.30
   3  -3 -17  248.34   16.95
  -3   3  17  225.75   14.20
  -3   3  17  258.73   15.95
   3  -3 -16    3.22    1.30
  -3   3  16    2.19    1.71
  -3   3  16    0.93    1.99
   3  -3 -15  105.44    7.22
  -3   3  15  104.28    6.75
  -3   3  15  104.74    7.48
   3  -3 -14    7.05    1.79
  -3   3  14    5.77    2.11
  -3   3  14    7.06    1.84
   3  -3 -13    3.26    1.23
  -3   3  13    0.91    1.43
  -3   3  13    2.52    0.98
   3  -3 -12  220.78   10.39
  -3   3  12  232.15    9.81
  -3   3  12  221.21   10.81
   3  -3 -11    9.26    1.53
  -3   3  11   10.39    1.59
   3  -3 -10  838.64   27.25
   3  -3 -10  991.23   42.75
  -3   3  10  961.93   42.38
   3  -3  -9  189.59    3.75
   3  -3  -9  194.85    3.81
   3  -3  -9  236.05    8.03
  -3   3   9  220.41    7.20
   3  -3  -8  131.40    2.29
   3  -3  -8  133.79    4.98
  -3   3   8  140.87    4.55
   3  -3  -7  156.53    2.61
   3  -3  -7  165.46    5.73
  -3   3   7  162.53    5.11
   3  -3  -6    7.00    0.90
  -3   3   6    6.48    0.71
  -3   3   6    6.71    0.61
   3  -3  -5  275.77    5.12
   3  -3  -5  283.21    8.80
  -3   3   5  279.40    8.79
  -3   3   5  283.58    5.19
  -3   3   5  284.86    7.74
   3  -3  -4 1459.19   51.13
   3  -3  -4 1457.62   61.78
  -3   3   4 1403.27   59.73
  -3   3   4 1456.84   57.38
  -3   3   4 1504.60   53.38
   3  -3  -3   90.80    1.63
   3  -3  -3   96.46    2.57
   3  -3  -3  101.32    1.91
  -3   3   3   97.97    1.66
  -3   3   3   95.38    3.00
  -3   3   3   93.59    1.93
   3  -3  -2  705.12   23.54
   3  -3  -2  715.25   20.89
   3  -3  -2  758.77   20.24
  -3   3   2  809.47   23.28
  -3   3   2  672.73   23.42
  -3   3   2  709.94   19.37
   3  -3  -1 1740.47   75.60
   3  -3  -1 1697.66   69.93
   3  -3  -1 1728.19   61.62
  -3   3   1 1552.06   55.43
   3  -3   0  380.47    9.89
  -3   3   0  394.91   10.89
   3  -3   1  375.27   10.24
  -3   3  -1  385.41   11.35
   3  -3   2  247.98    7.46
   3  -3   2  240.70    4.47
  -3   3  -2  237.33    6.31
  -3   3  -2  227.54    4.09
  -3   3  -2  234.84    5.88
   3  -3   3  988.79   32.25
   3  -3   3 1094.13   42.94
  -3   3  -3 1064.10   40.52
  -3   3  -3 1156.96   45.07
  -3   3  -3 1047.29   34.58
   3  -3   4  495.70   13.58
   3  -3   4  513.29   18.55
  -3   3  -4  509.64   14.27
  -3   3  -4  506.45   16.30
  -3   3  -4  504.58   15.97
   3  -3   5   76.63    1.90
   3  -3   5   79.93    2.90
  -3   3  -5   72.97    2.56
  -3   3  -5   73.25    2.45
   3  -3   6  247.58    6.97
   3  -3   6  248.26    8.58
  -3   3  -6  246.82    7.89
  -3   3  -6  252.00    7.95
   3  -3   7   68.01    2.27
  -3   3  -7   59.87    2.57
  -3   3  -7   64.18    2.69
   3  -3   8  187.17    6.56
  -3   3  -8  191.31    6.79
  -3   3  -8  179.95    6.65
   3  -3   9 1661.37   84.85
  -3   3  -9 1775.90   93.66
  -3   3  -9 1664.59   88.28
   3  -3  10  406.25   18.13
   3  -3  10  372.96   15.69
  -3   3 -10  387.56   17.62
  -3   3 -10  376.94   15.97
   3  -3  11   15.14    2.57
   3  -3  11   12.47    1.79
  -3   3 -11   18.13    1.66
  -3   3 -11   11.08    1.75
   3  -3  12   81.53    6.12
  -3   3 -12   69.47    4.14
  -3   3 -12   66.14    5.36
   3  -3  13   10.33    2.04
  -3   3 -13   12.76    2.34
  -3   3 -13    8.96    1.42
   3  -3  14   14.15    2.34
  -3   3 -14   13.11    2.89
  -3   3 -14   10.75    2.26
   3  -3  15   74.68    7.95
  -3   3 -15   86.33    7.15
  -3   3 -15   56.98    5.66
   3  -2 -18   13.63    2.77
  -3   2  18   11.80    2.98
   3  -2 -17    5.95    1.83
  -3   2  17    4.04    2.07
  -3   2  17    2.01    2.55
   3  -2 -16  354.22   21.19
  -3   2  16  323.80   19.56
  -3   2  16  357.60   20.74
   3  -2 -15   19.59    3.32
  -3   2  15   24.09    2.32
  -3   2  15   22.18    3.68
   3  -2 -14   18.53    2.78
  -3   2  14   23.90    2.66
  -3   2  14   17.94    3.12
   3  -2 -13  303.59   13.14
  -3   2  13  300.93   12.93
  -3   2  13  315.07   14.40
   3  -2 -12    8.75    0.68
   3  -2 -12    8.19    1.73
  -3   2  12   10.05    1.20
  -3   2  12   10.86    1.46
   3  -2 -11   74.46    3.81
  -3   2  11   65.63    3.34
  -3   2  11   58.71    3.71
   3  -2 -10 1073.59   49.16
   3  -2 -10 1041.66   39.09
  -3   2  10 1048.79   45.95
  -3   2  10 1088.07   48.72
   3  -2  -9  178.21    4.09
   3  -2  -9  181.02    6.05
  -3   2   9  195.61    7.56
  -3   2   9  183.95    6.14
   3  -2  -8   28.51    0.67
   3  -2  -8   34.76    1.46
   3  -2  -8   30.67    0.73
   3  -2  -7 1256.98   43.14
   3  -2  -7 1137.11   38.72
   3  -2  -7 1201.35   51.38
  -3   2   7 1190.32   51.13
   3  -2  -6  851.30   24.71
   3  -2  -6  877.32   25.29
   3  -2  -6  860.07   32.23
  -3   2   6  832.93   30.45
   3  -2  -5 1516.46   55.53
   3  -2  -5 1559.28   67.44
  -3   2   5 1657.13   60.21
  -3   2   5 1489.16   65.01
   3  -2  -4  143.73    3.54
   3  -2  -4  139.67    2.38
  -3   2   4  132.78    2.10
  -3   2   4  139.34    4.02
  -3   2   4  140.36    3.09
   3  -2  -3  679.82   21.68
   3  -2  -3  674.62   17.96
   3  -2  -3  750.77   21.47
  -3   2   3  762.10   20.03
  -3   2   3  651.18   20.90
  -3   2   3  659.04   19.47
   3  -2  -2 1489.95   53.40
   3  -2  -2 1299.53   47.87
   3  -2  -2 1446.02   59.29
  -3   2   2 1506.88   54.54
  -3   2   2 1439.60   52.36
  -3   2   2 1444.15   58.92
   3  -2  -1 1432.15   54.18
   3  -2  -1 1488.00   51.38
   3  -2  -1 1413.06   56.42
  -3   2   1 1401.56   55.93
  -3   2   1 1491.20   56.35
  -3   2   1 1382.63   47.88
   3  -2   0 2313.76  114.19
   3  -2   0 2505.23  106.90
   3  -2   0 2411.91  116.31
  -3   2   0 2317.25  114.34
  -3   2   0 2383.98  101.79
   3  -2   1  176.41    4.42
   3  -2   1  174.57    2.74
   3  -2   1  178.37    2.78
  -3   2  -1  175.41    4.52
   3  -2   2  699.52   22.48
   3  -2   2  663.22   16.70
  -3   2  -2  700.06   22.10
  -3   2  -2  661.95   16.87
   3  -2   3  725.76   23.80
   3  -2   3  680.23   18.85
  -3   2  -3  709.13   23.22
  -3   2  -3  695.33   19.07
   3  -2   4  121.59    4.19
   3  -2   4  117.09    2.50
  -3   2  -4  117.25    2.93
  -3   2  -4  107.25    2.91
  -3   2  -4  111.84    2.39
   3  -2   5   29.40    1.03
   3  -2   5   39.30    1.94
  -3   2  -5   30.46    1.12
  -3   2  -5   36.63    1.54
   3  -2   6  214.66    8.02
   3  -2   6  208.32    5.90
  -3   2  -6  216.45    6.67
  -3   2  -6  211.19    6.96
   3  -2   7  885.00   34.53
  -3   2  -7  964.81   39.76
  -3   2  -7  950.40   38.19
   3  -2   8  100.43    3.70
  -3   2  -8   94.55    4.02
  -3   2  -8   93.56    3.64
   3  -2   9   43.36    2.41
   3  -2   9   43.69    2.03
  -3   2  -9   37.57    2.25
  -3   2  -9   37.65    1.96
   3  -2  10 1113.74   57.23
   3  -2  10 1087.78   50.85
  -3   2 -10 1035.13   48.93
  -3   2 -10 1065.68   51.11
   3  -2  11   51.96    3.11
   3  -2  11   40.52    3.08
  -3   2 -11   50.82    2.73
  -3   2 -11   42.33    3.02
   3  -2  12   36.98    3.29
   3  -2  12   47.12    4.15
  -3   2 -12   45.21    3.18
  -3   2 -12   40.69    3.59
   3  -2  13   25.08    2.68
   3  -2  13   23.23    2.83
  -3   2 -13   22.09    2.93
  -3   2 -13   21.51    2.60
   3  -2  14   32.23    4.29
  -3   2 -14   27.17    3.23
  -3   2 -14   34.44    3.74
   3  -2  15   14.73    2.65
  -3   2 -15   14.90    2.72
  -3   2 -15   20.11    3.21
   3  -2  16    8.26    2.92
  -3   2 -16    8.24    2.74
  -3   2 -16    8.00    2.36
   3  -1 -18   31.74    5.53
  -3   1  18   35.50    6.28
   3  -1 -17 1200.46   82.20
  -3   1  17 1270.97   83.03
   3  -1 -16  292.76   15.75
  -3   1  16  284.34   19.49
  -3   1  16  256.98   16.40
   3  -1 -15   88.04    7.35
  -3   1  15   98.22    6.22
  -3   1  15   83.29    7.92
   3  -1 -14   24.85    3.24
  -3   1  14   21.72    2.82
  -3   1  14   28.54    2.79
   3  -1 -13  537.06   24.53
  -3   1  13  558.62   26.14
  -3   1  13  537.87   25.58
   3  -1 -12  527.24   19.68
   3  -1 -12  584.02   26.74
  -3   1  12  594.63   26.44
  -3   1  12  552.13   22.81
   3  -1 -11   76.27    3.77
   3  -1 -11   54.34    2.20
  -3   1  11   62.23    3.33
  -3   1  11   58.54    2.78
   3  -1 -10  546.24   18.00
   3  -1 -10  552.95   21.60
  -3   1  10  593.70   25.44
  -3   1  10  571.64   22.60
   3  -1  -9  229.21    8.60
   3  -1  -9  227.22    6.07
  -3   1   9  231.90    8.46
   3  -1  -8  314.80   10.17
   3  -1  -8  316.37    8.10
  -3   1   8  314.38    9.89
  -3   1   8  321.99   10.76
   3  -1  -7   45.02    2.13
  -3   1   7   44.89    1.85
  -3   1   7   47.68    2.05
   3  -1  -6  212.41    6.64
   3  -1  -6  212.29    4.40
   3  -1  -6  213.09    4.25
  -3   1   6  209.65    6.42
  -3   1   6  212.76    6.06
   3  -1  -5  184.97    3.55
   3  -1  -5  207.18    4.05
   3  -1  -5  200.42    5.74
  -3   1   5  194.59    5.49
   3  -1  -4  415.52    9.31
   3  -1  -4  432.45   12.54
  -3   1   4  422.78    9.27
  -3   1   4  431.37   12.40
   3  -1  -3    4.97    0.21
   3  -1  -3    4.60    0.51
  -3   1   3    3.76    0.20
  -3   1   3    4.40    0.39
   3  -1  -2   17.66    0.55
   3  -1  -2   17.82    0.43
   3  -1  -2   18.34    0.84
  -3   1   2   17.90    0.47
  -3   1   2   15.04    0.64
  -3   1   1 5045.64  344.69
   3  -1   0  102.55    2.05
   3  -1   0  106.21    2.56
   3  -1   0  106.69    1.62
  -3   1   0  108.34    2.33
  -3   1   0   98.25    1.55
   3  -1   1  214.31    3.68
   3  -1   1  211.82    3.69
   3  -1   1  211.33    5.10
  -3   1  -1  203.84    5.00
  -3   1  -1  209.21    4.64
   3  -1   2  534.91   15.26
   3  -1   2  521.54   12.50
   3  -1   2  563.16   13.55
  -3   1  -2  554.81   15.10
   3  -1   3   21.35    0.96
   3  -1   3   26.84    0.65
  -3   1  -3   26.80    0.60
   3  -1   4 4417.38  283.64
   3  -1   4 4534.43  307.95
  -3   1  -4 4582.85  302.26
   3  -1   5   10.40    1.13
   3  -1   5   12.12    0.63
  -3   1  -5   10.57    0.67
  -3   1  -5   13.31    0.70
   3  -1   6  795.96   27.94
  -3   1  -6  845.69   30.67
  -3   1  -6  836.58   29.99
   3  -1   7   17.72    1.24
  -3   1  -7   23.75    0.99
  -3   1  -7   20.84    1.32
   3  -1   8  933.36   41.39
   3  -1   8  906.63   37.21
  -3   1  -8  948.71   37.18
  -3   1  -8  943.60   38.63
   3  -1   9  194.00    8.25
   3  -1   9  190.42    7.29
  -3   1  -9  195.35    6.38
  -3   1  -9  191.32    7.25
   3  -1  10   16.47    1.25
   3  -1  10   13.56    1.51
  -3   1 -10   17.62    1.30
  -3   1 -10   12.26    1.26
   3  -1  11   18.15    1.89
   3  -1  11   14.65    1.66
  -3   1 -11   14.19    1.86
  -3   1 -11   17.23    1.79
   3  -1  12  313.74   15.45
   3  -1  12  298.88   13.98
  -3   1 -12  291.46   13.30
  -3   1 -12  300.81   13.65
   3  -1  13  468.34   24.67
   3  -1  13  449.87   22.46
  -3   1 -13  428.19   20.80
  -3   1 -13  436.68   19.39
   3  -1  14   -0.49    0.97
   3  -1  14    0.91    0.85
  -3   1 -14    0.73    0.83
  -3   1 -14    0.29    0.78
   3  -1  15   13.21    2.74
   3  -1  15   11.53    2.81
  -3   1 -15   13.26    2.46
  -3   1 -15   14.47    2.63
   3  -1  16    7.88    2.65
  -3   1 -16    7.82    2.49
  -3   1 -16    9.30    2.38
   3   0 -17   19.02    4.24
  -3   0  17   20.79    3.51
   3   0 -16  293.20   19.58
  -3   0  16  293.09   20.43
   3   0 -15   99.86    7.92
  -3   0  15   97.90    6.59
  -3   0  15  101.22    8.60
   3   0 -14  235.76   13.64
  -3   0  14  227.34   11.59
  -3   0  14  238.24   12.51
   3   0 -13  337.35   17.02
   3   0 -13  306.60   12.03
  -3   0  13  324.94   14.94
  -3   0  13  338.14   16.05
   3   0 -12   56.66    3.65
   3   0 -12   42.98    2.38
  -3   0  12   49.33    3.18
  -3   0  12   42.77    3.03
   3   0 -11   89.93    3.50
   3   0 -11  104.31    5.28
  -3   0  11   88.49    4.38
  -3   0  11   96.43    5.64
   3   0 -10    5.66    0.80
   3   0 -10    6.35    1.01
  -3   0  10    6.78    1.05
  -3   0  10    9.19    1.11
   3   0  -9 1011.77   39.47
   3   0  -9 1023.31   43.49
  -3   0   9 1012.81   42.71
  -3   0   9 1035.26   47.40
   3   0  -8 1087.72   41.25
   3   0  -8 1102.03   47.75
  -3   0   8 1056.70   43.92
  -3   0   8 1070.98   48.09
   3   0  -7   43.79    1.46
   3   0  -7   58.39    2.35
  -3   0   7   51.56    1.94
  -3   0   7   47.98    2.04
   3   0  -6  317.90    7.92
   3   0  -6  311.19    9.98
  -3   0   6  310.36    9.20
  -3   0   6  315.77    9.58
   3   0  -5    3.38    0.30
   3   0  -5    3.64    0.46
  -3   0   5    2.99    0.50
  -3   0   5    2.38    0.46
   3   0  -4   20.30    0.57
   3   0  -4   24.63    0.80
  -3   0   4   21.94    0.57
  -3   0   4   24.26    0.92
  -3   0   4   20.59    0.90
  -3   0   3 4862.46  314.55
   3   0  -2  312.38    7.07
   3   0  -2  290.89    6.27
   3   0  -2  286.88    6.75
  -3   0   2  312.64    6.49
  -3   0   2  287.25    7.07
   3   0  -1 1807.27   71.05
   3   0  -1 1626.53   65.09
  -3   0   1 1631.27   67.55
  -3   0   1 1852.88   74.62
   3   0   0  889.31   28.23
   3   0   0  939.52   30.25
   3   0   0  947.82   28.15
  -3   0   0  956.92   30.09
  -3   0   0  876.75   28.06
   3   0   1  841.59   26.38
   3   0   1  897.41   25.98
  -3   0  -1  889.26   27.62
  -3   0  -1  821.89   26.30
  -3   0  -1  910.09   28.11
  -3   0  -1  849.20   24.76
   3   0   2  256.74    5.10
   3   0   2  247.04    5.68
   3   0   2  244.38    4.93
  -3   0  -2  249.43    5.55
  -3   0  -2  239.99    5.68
  -3   0  -2  264.78    5.84
   3   0   3  108.03    2.27
   3   0   3  106.38    2.75
  -3   0  -3  117.92    2.86
  -3   0  -3  125.64    2.47
   3   0   4  657.21   20.59
   3   0   4  662.46   19.42
  -3   0  -4  664.17   19.49
   3   0   5  166.28    4.43
  -3   0  -5  178.20    4.39
   3   0   6  474.33   15.12
  -3   0  -6  502.61   15.14
   3   0   7 1589.68   72.24
  -3   0  -7 1597.85   70.88
  -3   0  -7 1611.56   71.07
   3   0   8 1934.06   99.54
   3   0   8 2013.59  106.74
  -3   0  -8 2037.53  104.23
  -3   0  -8 2072.30  103.38
   3   0   9  456.01   16.56
   3   0   9  462.33   17.27
  -3   0  -9  458.98   16.17
  -3   0  -9  471.42   17.07
   3   0  10   61.72    2.76
   3   0  10   82.47    3.61
  -3   0 -10   61.45    3.05
  -3   0 -10   61.04    2.64
   3   0  11  158.73    6.28
   3   0  11  161.31    7.58
  -3   0 -11  161.67    6.84
  -3   0 -11  160.68    7.03
   3   0  12    3.02    1.49
   3   0  12    7.36    1.44
  -3   0 -12    4.17    1.24
  -3   0 -12    7.08    0.99
   3   0  13  325.21   16.56
   3   0  13  328.96   16.30
  -3   0 -13  316.31   14.41
  -3   0 -13  318.63   15.35
   3   0  14   56.55    4.64
   3   0  14   52.79    4.65
  -3   0 -14   55.17    4.28
  -3   0 -14   52.27    4.05
   3   0  15   74.67    6.51
   3   0  15   77.04    5.01
  -3   0 -15   73.19    5.95
  -3   0 -15   78.48    5.56
   3   0  16   57.79    6.21
   3   0  16   67.26    6.58
  -3   0 -16   65.70    5.74
  -3   0 -16   68.01    5.93
   3   0  17    1.62    1.87
   3   0  17    1.50    1.69
  -3   0 -17    0.32    1.25
  -3   0 -17    3.38    1.77
   3   1 -17   90.43    9.68
  -3  -1  17   93.55    8.23
   3   1 -16  128.98    9.05
  -3  -1  16  138.54   11.91
   3   1 -15   34.55    4.49
  -3  -1  15   30.96    4.84
   3   1 -14  270.09   16.10
  -3  -1  14  266.83   16.64
   3   1 -13  149.15    6.97
   3   1 -13  162.13    9.32
  -3  -1  13  144.70    7.42
  -3  -1  13  160.07   10.03
   3   1 -12   16.53    1.75
   3   1 -12   23.85    2.48
  -3  -1  12   16.73    2.64
  -3  -1  12   16.30    1.85
   3   1 -11    5.88    1.53
   3   1 -11    7.88    1.10
  -3  -1  11    8.21    1.17
  -3  -1  11    6.85    1.30
   3   1 -10  283.40   12.04
   3   1 -10  267.56    9.48
  -3  -1  10  265.88    9.92
  -3  -1  10  281.19   12.37
   3   1  -9  627.42   22.80
   3   1  -9  650.42   27.07
  -3  -1   9  650.26   27.66
  -3  -1   9  623.38   23.42
   3   1  -8   14.25    1.02
   3   1  -8   14.75    1.10
  -3  -1   8   13.33    1.04
  -3  -1   8   11.46    1.51
   3   1  -7  531.35   17.25
   3   1  -7  551.43   20.20
  -3  -1   7  546.42   17.57
  -3  -1   7  543.94   19.07
   3   1  -6  536.73   17.49
   3   1  -6  533.01   16.31
  -3  -1   6  534.57   19.29
  -3  -1   6  538.16   16.43
   3   1  -5  669.19   20.80
   3   1  -5  664.39   22.89
  -3  -1   5  680.41   23.85
  -3  -1   5  676.42   21.27
   3   1  -4   22.73    0.76
   3   1  -4   20.96    0.74
  -3  -1   4   17.95    0.66
  -3  -1   4   17.69    1.06
   3   1  -3    9.32    0.46
   3   1  -3    9.18    0.42
   3   1  -3    8.00    0.47
  -3  -1   3    6.10    0.44
  -3  -1   3    6.52    0.46
  -3  -1   3    6.35    0.63
   3   1  -2  124.24    2.33
   3   1  -2  125.98    2.54
  -3  -1   2  116.84    2.52
  -3  -1   2  123.14    2.63
   3   1  -1 1165.81   40.60
   3   1  -1 1260.38   43.20
  -3  -1   1 1181.31   41.77
  -3  -1   1 1138.04   38.91
  -3  -1   1 1307.65   44.57
   3   1   0  754.13   21.12
   3   1   0  693.77   20.22
  -3  -1   0  690.35   19.22
  -3  -1   0  740.45   20.32
   3   1   1   13.79    0.51
   3   1   1   13.94    0.48
   3   1   1   15.72    0.44
  -3  -1  -1   13.35    0.45
  -3  -1  -1   12.14    0.58
  -3  -1  -1   14.49    0.57
   3   1   2  925.66   27.99
   3   1   2  860.98   28.00
   3   1   2  837.58   25.50
  -3  -1  -2  875.42   25.97
  -3  -1  -2  862.58   27.08
  -3  -1  -2  915.32   27.05
   3   1   3 1164.27   40.93
   3   1   3 1121.87   38.09
   3   1   3 1116.54   36.54
  -3  -1  -3 1096.09   35.48
  -3  -1  -3 1121.73   38.48
  -3  -1  -3 1077.51   36.70
   3   1   4  882.07   26.70
   3   1   4  846.83   27.41
   3   1   4  850.90   28.22
  -3  -1  -4  850.38   27.19
  -3  -1  -4  848.12   25.50
   3   1   5   15.55    0.79
  -3  -1  -5   14.26    0.61
  -3  -1  -5   13.60    0.66
   3   1   6  575.51   18.42
  -3  -1  -6  556.76   16.21
   3   1   7  446.06   14.79
   3   1   7  446.99   15.06
  -3  -1  -7  460.77   13.43
   3   1   8  396.89   13.64
   3   1   8  406.36   12.97
  -3  -1  -8  379.73   11.76
   3   1   9  347.88   12.84
   3   1   9  345.94   11.64
  -3  -1  -9  365.22   12.69
  -3  -1  -9  353.65   11.43
   3   1  10 1358.56   64.16
   3   1  10 1385.00   68.15
  -3  -1 -10 1412.18   67.50
  -3  -1 -10 1397.35   63.38
   3   1  11  266.67   11.35
   3   1  11  261.13   10.84
  -3  -1 -11  258.52   10.53
  -3  -1 -11  246.55    9.21
   3   1  12  501.62   22.55
   3   1  12  503.77   21.56
  -3  -1 -12  509.49   20.83
  -3  -1 -12  518.51   21.28
   3   1  13  226.91   10.33
   3   1  13  214.71   10.90
  -3  -1 -13  233.23    9.96
  -3  -1 -13  226.86   10.07
   3   1  14   24.04    2.73
   3   1  14   23.23    2.95
  -3  -1 -14   23.97    2.84
  -3  -1 -14   23.32    2.44
   3   1  15   16.50    2.52
   3   1  15   15.72    2.88
  -3  -1 -15   14.86    2.35
  -3  -1 -15   16.08    2.59
   3   1  16  125.79    7.81
   3   1  16  110.58    8.38
  -3  -1 -16  115.09    7.68
  -3  -1 -16  128.41    8.71
   3   1  17    0.04    1.13
   3   1  17   -1.13    1.33
  -3  -1 -17    0.52    0.86
  -3  -1 -17   -0.02    0.96
   3   2 -16  117.61    8.55
  -3  -2  16  104.82   11.05
   3   2 -15   89.97    7.38
  -3  -2  15   61.55    7.83
   3   2 -14   12.85    2.32
   3   2 -14   21.49    2.43
  -3  -2  14   18.41    3.45
   3   2 -13  105.06    6.05
   3   2 -13  117.16    8.00
  -3  -2  13  120.67    8.44
   3   2 -12    4.24    1.20
   3   2 -12    3.47    1.62
  -3  -2  12    4.67    1.09
  -3  -2  12    4.91    1.33
   3   2 -11    2.55    1.23
   3   2 -11    2.08    0.88
  -3  -2  11    1.51    0.80
  -3  -2  11    2.44    1.33
   3   2 -10 1071.60   49.45
   3   2 -10 1028.84   46.45
  -3  -2  10 1056.88   49.85
  -3  -2  10  996.85   43.39
   3   2  -9   11.51    1.38
   3   2  -9    8.02    1.11
  -3  -2   9    8.28    0.96
  -3  -2   9    8.57    1.15
   3   2  -8  226.33    8.54
   3   2  -8  222.45    7.44
  -3  -2   8  203.68    6.41
  -3  -2   8  214.75    8.86
   3   2  -7  628.19   22.07
   3   2  -7  640.10   22.97
  -3  -2   7  627.22   20.54
  -3  -2   7  642.76   25.34
   3   2  -6 2474.92  131.14
   3   2  -6 2465.47  133.45
  -3  -2   6 2411.26  123.13
  -3  -2   6 2472.78  138.05
   3   2  -5   21.42    1.04
   3   2  -5   20.73    1.29
  -3  -2   5   15.43    0.69
  -3  -2   5   16.22    1.06
   3   2  -4  690.27   22.26
   3   2  -4  712.02   23.79
  -3  -2   4  692.05   23.08
  -3  -2   4  695.52   20.51
  -3  -2   4  753.03   21.48
   3   2  -3  154.47    3.35
  -3  -2   3  154.39    3.02
  -3  -2   3  152.71    3.72
   3   2  -2 3169.20  161.61
  -3  -2   2 2953.72  152.35
  -3  -2   2 3056.47  167.09
   3   2  -1 3292.77  184.27
   3   2  -1 3453.59  186.39
  -3  -2   1 3401.47  193.61
  -3  -2   1 3261.28  175.35
  -3  -2   1 3742.41  203.13
   3   2   0  220.90    4.90
   3   2   0  244.53    5.00
   3   2   0  248.28    5.29
  -3  -2   0  250.57    5.50
  -3  -2   0  258.44    5.05
  -3  -2   0  235.07    4.72
  -3  -2   0  235.51    5.57
   3   2   1 1668.85   64.52
   3   2   1 1520.20   60.67
   3   2   1 1542.64   56.40
  -3  -2  -1 1647.42   64.31
  -3  -2  -1 1519.01   60.36
  -3  -2  -1 1526.95   57.06
  -3  -2  -1 1649.03   59.40
   3   2   2 1090.82   33.68
   3   2   2 1061.43   36.62
   3   2   2 1133.24   37.92
  -3  -2  -2 1125.72   34.79
  -3  -2  -2 1102.15   36.71
   3   2   4  191.94    3.39
   3   2   4  184.46    4.17
  -3  -2  -4  184.31    3.23
  -3  -2  -4  195.75    4.55
   3   2   5   17.28    0.87
  -3  -2  -5   16.80    0.46
  -3  -2  -5   16.26    0.82
   3   2   6   57.46    2.12
   3   2   6   56.55    2.14
  -3  -2  -6   65.19    1.41
  -3  -2  -6   64.74    1.80
   3   2   7   47.55    1.62
   3   2   7   47.74    1.94
   3   2   8  382.18   13.50
   3   2   8  375.45   11.91
  -3  -2  -8  402.88   11.41
   3   2   9  538.81   19.26
   3   2   9  521.53   18.31
  -3  -2  -9  513.26   16.63
   3   2  10   28.47    1.89
   3   2  10   27.27    1.62
  -3  -2 -10   32.46    2.00
  -3  -2 -10   29.31    1.47
   3   2  11  104.38    4.48
   3   2  11   99.14    4.23
  -3  -2 -11   95.04    3.69
  -3  -2 -11  102.87    4.65
   3   2  12  326.68   13.53
   3   2  12  328.99   15.08
  -3  -2 -12  339.67   14.73
  -3  -2 -12  320.80   12.37
   3   2  13  166.01    8.71
   3   2  13  151.89    7.55
  -3  -2 -13  152.87    6.73
  -3  -2 -13  147.46    6.50
   3   2  14    3.95    1.22
   3   2  14    3.97    1.47
  -3  -2 -14    1.54    1.12
  -3  -2 -14    2.83    1.44
   3   2  15    4.11    1.39
   3   2  15    2.85    1.81
  -3  -2 -15    3.85    1.30
  -3  -2 -15    2.88    1.64
   3   2  16  429.11   22.53
   3   2  16  375.00   20.76
  -3  -2 -16  393.44   20.64
  -3  -2 -16  415.23   24.10
   3   2  17   50.68    4.94
   3   2  17   58.80    6.37
  -3  -2 -17   55.88    6.28
   3   2  18    9.89    2.75
   3   2  18   17.88    3.54
  -3  -2 -18   12.66    2.61
   3   3 -16  167.93   14.07
  -3  -3  16  148.80   11.82
   3   3 -15   69.84    7.15
  -3  -3  15   59.15    5.68
   3   3 -14    8.12    1.63
   3   3 -14   12.92    2.14
  -3  -3  14    9.19    2.17
   3   3 -13   23.49    2.72
   3   3 -13   22.96    3.48
  -3  -3  13   21.78    2.76
   3   3 -12    5.73    1.18
   3   3 -12    7.18    1.47
  -3  -3  12    7.46    2.01
   3   3 -11  366.09   17.57
   3   3 -11  327.25   14.64
  -3  -3  11  335.77   15.39
   3   3 -10   32.91    2.59
   3   3 -10   22.01    2.07
  -3  -3  10   19.75    1.30
  -3  -3  10   20.93    2.00
   3   3  -9  728.60   29.79
   3   3  -9  706.92   29.12
  -3  -3   9  655.43   24.50
  -3  -3   9  682.81   29.24
   3   3  -8  198.48    6.81
   3   3  -8  189.15    6.13
  -3  -3   8  175.67    5.18
  -3  -3   8  184.93    7.97
   3   3  -7   51.78    2.01
   3   3  -7   44.26    2.17
  -3  -3   7   42.92    2.62
   3   3  -6   92.15    2.84
   3   3  -6   94.35    3.68
  -3  -3   6   89.03    2.19
  -3  -3   6   92.74    3.22
   3   3  -5 1169.67   47.47
   3   3  -5 1236.36   51.95
  -3  -3   5 1162.11   42.64
  -3  -3   5 1170.65   49.33
  -3  -3   5 1321.47   45.91
   3   3  -4 1441.93   62.16
  -3  -3   4 1457.12   55.77
  -3  -3   4 1464.13   65.01
  -3  -3   4 1525.70   56.31
   3   3  -3 1186.39   45.43
  -3  -3   3 1217.55   41.42
  -3  -3   3 1230.34   48.13
  -3  -3   3 1280.11   42.50
  -3  -3   2 4520.12  301.14
   3   3  -1 1142.51   41.07
   3   3  -1 1145.73   35.74
  -3  -3   1 1110.63   39.99
  -3  -3   1 1093.36   33.74
   3   3   0  183.84    3.09
   3   3   0  169.54    4.06
   3   3   0  167.50    3.29
  -3  -3   0  168.97    2.77
  -3  -3   0  168.89    3.78
  -3  -3   0  181.27    3.26
   3   3   1 3423.84  182.66
  -3  -3  -1 3310.55  187.67
  -3  -3  -1 3452.83  179.67
   3   3   2 1940.06   86.89
  -3  -3  -2 1995.02   89.91
  -3  -3  -2 2069.69   87.01
  -3  -3  -2 2035.92   78.52
   3   3   5 1389.58   47.10
   3   3   5 1390.26   55.56
  -3  -3  -5 1412.31   54.55
  -3  -3  -5 1358.91   45.80
   3   3   6 1181.42   39.51
   3   3   6 1152.07   44.17
   3   3   6 1141.10   45.84
  -3  -3  -6 1110.65   36.98
  -3  -3  -6 1166.03   45.20
   3   3   7  377.33   11.63
   3   3   7  370.83   11.34
  -3  -3  -7  366.39    8.94
  -3  -3  -7  403.72   12.64
   3   3   8 1492.61   67.16
   3   3   8 1532.05   70.23
  -3  -3  -8 1530.42   62.34
  -3  -3  -8 1593.99   73.24
   3   3   9   88.04    3.25
   3   3   9   86.51    3.14
  -3  -3  -9   89.32    2.52
   3   3  10  290.89   10.35
   3   3  10  302.47   11.79
  -3  -3 -10  299.02    8.98
   3   3  11  321.20   13.28
   3   3  11  318.36   11.63
  -3  -3 -11  303.16   10.05
   3   3  12    1.78    0.80
   3   3  12    2.17    0.81
  -3  -3 -12    1.73    0.71
  -3  -3 -12    1.32    0.77
   3   3  13  186.47   10.04
   3   3  13  177.16    8.06
  -3  -3 -13  169.93    6.94
  -3  -3 -13  182.14    9.33
   3   3  14   50.86    3.65
   3   3  14   68.68    4.97
  -3  -3 -14   64.69    4.65
  -3  -3 -14   58.89    3.32
   3   3  15    4.48    2.08
   3   3  15    4.71    1.49
  -3  -3 -15    6.11    1.36
  -3  -3 -15    7.93    1.44
   3   3  16    5.07    1.43
   3   3  16    6.20    2.03
  -3  -3 -16    3.78    1.96
  -3  -3 -16    2.25    1.40
   3   3  17  109.42    9.65
   3   3  17   83.76    6.91
  -3  -3 -17  118.24    7.46
   3   3  18   43.56    4.60
   3   3  18   34.03    4.15
  -3  -3 -18   44.85    5.60
   3   4 -15  145.33   10.22
  -3  -4  15  130.64   11.46
   3   4 -14   45.10    4.94
   3   4 -14   58.12    6.06
  -3  -4  14   48.18    5.97
   3   4 -13  414.67   22.61
   3   4 -13  464.62   27.11
  -3  -4  13  421.69   25.79
   3   4 -12  172.74    9.80
   3   4 -12  187.15    9.67
  -3  -4  12  164.26   11.35
   3   4 -11   15.13    2.44
   3   4 -11   14.64    2.11
  -3  -4  11   14.78    1.94
   3   4 -10   89.00    3.94
   3   4 -10   61.72    3.42
  -3  -4  10   63.27    4.96
   3   4  -9  326.82   14.29
   3   4  -9  307.04   12.71
  -3  -4   9  274.90    8.88
  -3  -4   9  296.90   11.90
   3   4  -8   25.85    1.81
   3   4  -8   30.83    2.14
  -3  -4   8   24.21    1.06
  -3  -4   8   23.68    2.36
   3   4  -7  188.59    7.42
   3   4  -7  191.68    7.43
  -3  -4   7  179.44    4.65
  -3  -4   7  194.70    7.99
   3   4  -6   22.60    1.20
   3   4  -6   23.09    1.59
  -3  -4   6   17.87    1.67
  -3  -4   6   19.49    0.63
   3   4  -5  712.09   26.46
  -3  -4   5  664.96   19.82
  -3  -4   5  711.42   19.61
  -3  -4   5  693.23   26.58
   3   4  -4 1256.91   52.05
  -3  -4   4 1143.71   38.69
  -3  -4   4 1244.13   52.36
  -3  -4   4 1173.61   37.88
  -3  -4   3 6651.47  550.09
   3   4  -2  356.43    9.44
  -3  -4   2  332.34    5.95
  -3  -4   2  337.71    6.03
  -3  -4   2  353.49    9.49
   3   4  -1  479.52   14.03
   3   4  -1  475.03    9.65
   3   4  -1  442.72   12.01
  -3  -4   1  471.44    9.27
  -3  -4   1  477.28   14.10
   3   4   0   17.09    0.35
   3   4   0   16.87    0.57
   3   4   0   14.52    0.87
  -3  -4   0   15.24    0.65
   3   4   1 1817.16   79.22
   3   4   1 1922.57   75.25
   3   4   1 1808.68   72.07
  -3  -4  -1 1774.17   68.94
  -3  -4  -1 1960.51   77.19
  -3  -4  -1 1845.42   80.94
   3   4   2  543.56   12.04
   3   4   2  573.15   13.86
   3   4   2  538.64   15.36
  -3  -4  -2  546.62   15.41
  -3  -4  -2  550.92   11.97
  -3  -4  -2  530.94   13.25
  -3  -4  -3 1323.35   47.78
   3   4   5  183.57    2.75
   3   4   5  194.67    4.88
   3   4   5  188.05    4.83
  -3  -4  -5  182.52    2.71
  -3  -4  -5  184.85    4.29
   3   4   6  166.36    4.47
   3   4   6  159.25    2.62
   3   4   6  165.13    4.45
  -3  -4  -6  157.39    2.77
  -3  -4  -6  178.31    4.90
   3   4   7  332.17    7.23
   3   4   7  338.24    9.91
   3   4   7  345.78   10.50
  -3  -4  -7  331.03    7.70
  -3  -4  -7  350.94   10.09
   3   4   8 1830.73   85.14
   3   4   8 1797.30   87.04
  -3  -4  -8 1637.89   69.45
  -3  -4  -8 1837.65   86.16
   3   4   9  137.53    4.49
   3   4   9  140.04    5.55
  -3  -4  -9  133.06    3.27
  -3  -4  -9  142.56    5.09
   3   4  10    9.07    0.96
   3   4  10    9.13    1.09
  -3  -4 -10    9.16    0.62
  -3  -4 -10   13.25    1.29
   3   4  11  213.73    7.69
   3   4  11  215.14    8.23
  -3  -4 -11  214.55    6.65
   3   4  12   35.06    2.15
   3   4  12   33.26    2.39
  -3  -4 -12   39.95    1.82
   3   4  13 1943.42  116.73
   3   4  13 1853.32  101.41
  -3  -4 -13 1860.14   97.97
  -3  -4 -13 1949.66  111.20
   3   4  14    7.24    1.45
   3   4  14   12.58    1.68
  -3  -4 -14   11.30    1.60
  -3  -4 -14    9.21    1.32
   3   4  15  772.40   39.66
   3   4  15  694.67   32.51
  -3  -4 -15  773.67   41.73
  -3  -4 -15  707.90   32.80
   3   4  16  105.13    6.60
   3   4  16  131.06    8.02
  -3  -4 -16  127.47    8.52
   3   4  17   37.59    3.62
   3   4  17   49.44    4.36
  -3  -4 -17   48.84    5.39
   3   4  18   -0.04    1.16
   3   4  18    1.25    1.92
  -3  -4 -18    3.10    1.43
   3   5 -14    9.84    2.64
   3   5 -14    9.47    2.76
  -3  -5  14   12.55    3.14
   3   5 -13   18.30    2.64
   3   5 -13   24.47    3.97
  -3  -5  13   22.24    3.64
   3   5 -12  518.96   26.05
   3   5 -12  596.25   33.59
  -3  -5  12  527.65   27.35
   3   5 -11   18.21    2.60
   3   5 -11   17.41    2.86
  -3  -5  11   16.91    2.72
   3   5 -10   64.24    4.56
   3   5 -10   74.58    3.98
  -3  -5  10   63.98    4.85
   3   5  -9  299.04   14.05
   3   5  -9  302.42   13.77
  -3  -5   9  276.83   11.72
   3   5  -8   25.04    2.53
   3   5  -8   27.25    1.89
  -3  -5   8   28.11    2.47
   3   5  -7 1036.40   44.89
   3   5  -7 1007.60   46.03
  -3  -5   7 1011.83   43.93
  -3  -5   7  928.99   32.99
   3   5  -6   64.61    2.66
  -3  -5   6   65.70    3.30
  -3  -5   6   59.85    1.54
   3   5  -5   25.63    1.35
  -3  -5   5   25.00    1.40
   3   5  -4  700.89   26.41
  -3  -5   4  682.87   17.06
  -3  -5   4  673.27   24.28
   3   5  -3   38.16    1.59
  -3  -5   3   45.09    1.94
   3   5  -2   74.35    2.41
   3   5  -2   83.69    2.14
  -3  -5   2   72.67    2.74
   3   5  -1  448.36   13.70
   3   5  -1  439.23   11.50
  -3  -5   1  430.68   13.19
   3   5   0 2067.66   97.77
   3   5   0 2091.37   82.63
   3   5   0 2089.94   93.27
  -3  -5   0 2069.41   81.15
  -3  -5   0 2090.07  100.25
   3   5   1 2467.29  123.44
   3   5   1 2582.66  114.27
   3   5   1 2417.64  112.47
  -3  -5  -1 2308.12  102.50
  -3  -5  -1 2589.21  119.98
  -3  -5  -1 2434.41  124.32
   3   5   2  199.03    3.59
   3   5   2  209.99    3.86
  -3  -5  -2  196.81    3.31
  -3  -5  -2  200.21    3.86
  -3  -5  -2  193.38    5.24
   3   5   3  209.39    3.35
  -3  -5  -3  222.66    3.63
  -3  -5  -3  214.89    4.64
  -3  -5  -3  215.81    5.42
   3   5   4  951.43   33.62
   3   5   4  976.58   35.28
  -3  -5  -4  993.51   33.57
   3   5   5   85.35    2.53
   3   5   5   95.97    2.68
  -3  -5  -5  104.06    2.34
   3   5   6  856.16   23.18
   3   5   6 1017.53   36.14
   3   5   6 1040.32   40.01
  -3  -5  -6 1044.14   38.01
  -3  -5  -6  959.08   26.87
   3   5   7  454.30   15.31
   3   5   7  396.25    8.52
   3   5   7  450.30   13.19
  -3  -5  -7  421.55    9.72
  -3  -5  -7  447.58   14.36
   3   5   8  275.49    8.06
   3   5   8  274.19    8.73
  -3  -5  -8  264.88    6.05
  -3  -5  -8  271.30    8.43
   3   5   9    9.17    0.88
   3   5   9    8.26    0.83
  -3  -5  -9    7.02    0.43
  -3  -5  -9   12.54    0.83
   3   5  10    4.08    0.85
   3   5  10    5.35    0.74
  -3  -5 -10    4.52    0.42
  -3  -5 -10    6.37    1.03
   3   5  11  266.30    8.94
   3   5  11  282.72   12.05
  -3  -5 -11  247.53    7.21
  -3  -5 -11  300.43   11.84
   3   5  12  127.61    6.52
   3   5  12  122.46    4.74
  -3  -5 -12  119.78    4.00
   3   5  13   21.06    1.68
   3   5  13   20.65    2.15
  -3  -5 -13   23.67    1.26
   3   5  14   10.88    1.40
   3   5  14   12.90    2.36
  -3  -5 -14   11.62    1.29
   3   5  15   42.49    4.01
   3   5  15   27.21    2.15
  -3  -5 -15   37.64    3.80
   3   5  16  326.82   20.37
   3   5  16  271.32   13.39
  -3  -5 -16  354.99   19.99
   3   5  17   25.89    4.15
   3   5  17   20.53    2.39
  -3  -5 -17   28.34    4.16
   3   5  18    0.50    1.10
   3   5  18    3.58    2.10
  -3  -5 -18    3.75    2.01
   3   5  19   10.30    3.61
  -3  -5 -19    9.49    3.42
   3   6 -14   30.63    3.88
   3   6 -14   21.67    3.35
  -3  -6  14   17.64    3.49
   3   6 -13  161.86   12.25
   3   6 -13  180.56   11.98
  -3  -6  13  167.09   13.07
   3   6 -12   57.44    5.73
   3   6 -12   64.54    4.76
  -3  -6  12   52.47    4.44
   3   6 -11   23.98    2.67
   3   6 -11   25.68    3.79
  -3  -6  11   31.07    3.51
   3   6 -10   53.37    4.36
   3   6 -10   44.66    4.41
  -3  -6  10   54.88    4.38
   3   6  -9  458.92   22.44
   3   6  -9  414.86   18.42
  -3  -6   9  414.21   20.62
   3   6  -8  428.66   17.91
   3   6  -8  426.95   19.92
  -3  -6   8  399.09   16.61
   3   6  -7   85.05    4.73
  -3  -6   7   75.68    4.40
   3   6  -6  783.27   33.34
  -3  -6   6  817.09   35.33
   3   6  -5   11.10    1.07
  -3  -6   5    7.86    1.26
   3   6  -4  866.97   35.64
  -3  -6   4  812.43   33.22
   3   6  -3  193.25    6.18
   3   6  -3  204.32    5.90
  -3  -6   3  199.71    6.69
   3   6  -2 1212.54   51.22
   3   6  -2 1166.70   47.32
  -3  -6   2 1166.92   48.69
   3   6  -1 3707.81  236.46
   3   6  -1 3782.57  233.19
  -3  -6   1 3803.80  241.26
   3   6   0   19.75    1.37
   3   6   0   24.65    0.94
  -3  -6   0   21.40    1.25
   3   6   1   80.03    1.21
   3   6   1   81.36    1.74
  -3  -6  -1   74.58    2.53
   3   6   2   50.52    0.87
   3   6   2   47.23    0.93
  -3  -6  -2   50.98    1.00
  -3  -6  -2   49.04    1.81
  -3  -6  -2   49.17    1.08
   3   6   3  710.08   19.10
  -3  -6  -3  797.40   27.70
  -3  -6  -3  822.50   22.88
  -3  -6  -3  778.42   23.51
   3   6   4  417.25   11.94
   3   6   4  441.43    9.07
   3   6   4  364.91    7.32
  -3  -6  -4  395.55   10.81
   3   6   5   48.72    1.67
   3   6   5   51.52    1.71
  -3  -6  -5   50.36    1.63
   3   6   6   48.45    1.72
   3   6   6   48.89    2.22
  -3  -6  -6   49.06    1.83
   3   6   7  124.45    1.98
   3   6   7  125.86    3.62
   3   6   7  126.75    3.98
  -3  -6  -7  128.67    3.68
  -3  -6  -7  120.44    2.08
   3   6   8   54.42    1.05
   3   6   8   58.75    2.23
   3   6   8   51.64    1.93
  -3  -6  -8   59.14    2.60
   3   6   9    4.40    0.57
   3   6   9    2.81    0.27
   3   6   9    3.31    0.93
  -3  -6  -9    2.82    0.28
  -3  -6  -9    3.67    0.88
   3   6  10  307.15    9.39
   3   6  10  320.60   12.66
  -3  -6 -10  307.86   10.78
  -3  -6 -10  283.89    7.47
   3   6  11   21.59    1.36
   3   6  11   25.65    1.75
  -3  -6 -11   23.02    1.65
  -3  -6 -11   22.07    0.92
   3   6  12  123.29    4.17
   3   6  12  136.51    5.86
  -3  -6 -12  116.50    3.55
  -3  -6 -12  138.20    6.71
   3   6  13  234.69    8.29
   3   6  13  242.97   10.60
  -3  -6 -13  222.96    7.44
  -3  -6 -13  251.67   10.64
   3   6  14  125.85    8.04
   3   6  14  119.26    5.04
   3   6  15   30.21    2.04
   3   6  15   36.28    3.88
   3   6  16  290.30   13.40
   3   6  16  347.00   18.35
  -3  -6 -16  346.85   18.12
   3   6  17  326.05   17.90
   3   6  17  245.38   11.13
  -3  -6 -17  319.38   17.43
   3   6  18   16.54    3.08
  -3  -6 -18   18.25    3.82
   3   6  19   46.46    6.58
  -3  -6 -19   36.97    6.39
   3   7 -13   23.65    4.36
   3   7 -13   21.46    3.22
  -3  -7  13   17.09    4.08
   3   7 -12   74.56    7.14
   3   7 -12   78.32    7.28
  -3  -7  12   60.94    5.23
   3   7 -11   47.61    4.42
   3   7 -11   60.41    5.82
  -3  -7  11   50.62    5.13
   3   7 -10   83.89    6.37
   3   7 -10   78.71    6.35
  -3  -7  10   69.40    4.64
   3   7  -9   29.77    3.33
   3   7  -9   24.60    3.32
  -3  -7   9   26.71    2.98
   3   7  -8    5.03    1.61
  -3  -7   8    4.62    1.47
   3   7  -7  262.06   12.81
  -3  -7   7  251.15   11.44
   3   7  -6  479.81   21.70
  -3  -7   6  465.96   19.84
   3   7  -5  682.68   30.12
  -3  -7   5  637.81   26.98
   3   7  -4   83.29    3.79
   3   7  -4   84.96    4.28
  -3  -7   4   85.87    3.69
   3   7  -3  403.66   14.26
   3   7  -3  405.22   14.26
  -3  -7   3  395.12   14.00
   3   7  -2   80.98    2.99
   3   7  -2   77.79    2.99
  -3  -7   2   74.03    3.07
   3   7  -1  923.41   37.58
   3   7  -1  953.69   35.74
  -3  -7   1  913.23   36.02
   3   7   0 2167.21  111.67
   3   7   0 2213.77  108.35
  -3  -7   0 2216.60  113.98
   3   7   1  733.00   20.06
   3   7   1  815.41   26.41
   3   7   1  856.01   22.53
  -3  -7  -1  813.22   29.60
   3   7   2   47.09    1.13
   3   7   2   47.72    0.93
  -3  -7  -2   47.84    1.95
  -3  -7  -2   45.72    0.94
   3   7   3   19.64    0.54
   3   7   3   25.75    0.98
  -3  -7  -3   22.04    0.70
  -3  -7  -3   26.44    1.35
  -3  -7  -3   21.68    0.60
   3   7   4 1207.42   42.32
   3   7   4 1243.88   42.89
   3   7   4 1245.35   49.88
  -3  -7  -4 1292.84   50.30
   3   7   5  108.37    3.33
   3   7   5  106.66    1.91
  -3  -7  -5  104.52    3.13
   3   7   6   92.60    2.95
  -3  -7  -6  107.04    3.47
   3   7   7  530.42   12.28
   3   7   7  611.09   18.86
   3   7   7  524.14   12.02
  -3  -7  -7  579.51   20.02
   3   7   8 1056.41   34.46
   3   7   8 1402.25   54.52
   3   7   8 1456.36   63.75
  -3  -7  -8 1115.11   36.93
  -3  -7  -8 1419.42   60.67
   3   7   9  458.15   17.87
   3   7   9  455.02   14.17
  -3  -7  -9  445.42   15.52
  -3  -7  -9  433.37   11.20
   3   7  10    5.91    1.35
   3   7  10    9.13    0.72
  -3  -7 -10    8.91    1.23
  -3  -7 -10    5.86    0.39
   3   7  11  168.08    6.43
   3   7  11  156.87    4.77
  -3  -7 -11  143.75    3.76
  -3  -7 -11  164.96    7.31
   3   7  12   34.20    2.18
   3   7  12   24.96    1.55
  -3  -7 -12   27.96    1.11
  -3  -7 -12   35.81    2.70
   3   7  13  409.95   17.88
   3   7  13  382.12   13.86
  -3  -7 -13  414.91   19.59
   3   7  14   87.80    3.92
   3   7  14  130.14    7.01
  -3  -7 -14  105.70    5.65
   3   7  15   29.10    1.89
   3   7  15   36.50    3.00
  -3  -7 -15   30.56    3.80
   3   7  16   10.88    1.24
   3   7  16    9.85    2.03
   3   7  17   51.65    3.13
   3   7  17   67.29    6.44
   3   7  18    1.57    2.14
  -3  -7 -18    2.23    1.57
   3   7  19   74.96    8.58
  -3  -7 -19  115.92    9.86
   3   8 -12  517.50   33.14
   3   8 -12  562.33   35.10
   3   8 -11   33.59    4.18
   3   8 -11   48.76    5.32
  -3  -8  11   38.96    3.68
   3   8 -10  130.19    9.87
   3   8 -10  129.79    9.93
  -3  -8  10  122.46    8.52
   3   8  -9  997.08   58.71
  -3  -8   9  953.51   53.28
   3   8  -8  317.03   17.22
  -3  -8   8  285.37   14.39
   3   8  -7  551.54   28.74
  -3  -8   7  519.67   24.51
   3   8  -6  345.70   16.70
  -3  -8   6  306.07   13.56
   3   8  -5  407.29   16.76
   3   8  -5  413.03   17.55
  -3  -8   5  391.78   16.19
   3   8  -4   16.24    1.86
   3   8  -4   12.15    1.61
  -3  -8   4   10.73    1.52
   3   8  -3   57.55    2.57
   3   8  -3   51.87    2.77
  -3  -8   3   50.52    2.66
   3   8  -2  277.89   11.01
   3   8  -2  277.05    8.66
  -3  -8   2  260.07    9.37
   3   8  -1  399.52   14.14
   3   8  -1  428.80   14.19
  -3  -8   1  407.23   14.16
   3   8   0  254.00    7.78
  -3  -8   0  258.36    8.50
   3   8   1  259.96    5.36
   3   8   1  313.16    8.60
  -3  -8  -1  298.07    9.51
   3   8   2   87.96    2.33
   3   8   2   90.03    1.70
   3   8   2   86.89    1.76
  -3  -8  -2   91.34    3.22
   3   8   3  306.46    8.81
   3   8   3  275.00    6.69
  -3  -8  -3  296.34    9.61
  -3  -8  -3  297.59    7.23
   3   8   4   33.72    1.72
   3   8   4   37.50    0.85
   3   8   4   40.44    1.51
   3   8   4   33.30    0.86
  -3  -8  -4   37.43    1.34
   3   8   5  195.29    5.83
   3   8   5  194.49    4.01
   3   8   5  173.11    3.39
   3   8   5  203.81    6.76
  -3  -8  -5  192.64    5.34
   3   8   6  754.11   27.01
   3   8   6  764.75   22.32
  -3  -8  -6  743.92   27.96
   3   8   7  525.18   13.00
   3   8   7  511.90   12.70
   3   8   7  567.45   18.15
  -3  -8  -7  569.73   20.31
   3   8   8   16.63    0.45
   3   8   8   20.41    0.96
  -3  -8  -8   20.61    1.22
   3   8   9   18.37    0.82
  -3  -8  -9   14.47    1.54
  -3  -8  -9   13.34    0.45
   3   8  10  395.74   12.61
   3   8  10  435.22   16.39
  -3  -8 -10  443.12   17.94
  -3  -8 -10  394.07   10.60
   3   8  11   21.02    1.05
   3   8  11   18.77    2.16
  -3  -8 -11   18.41    0.84
  -3  -8 -11   24.40    1.65
   3   8  12   60.34    2.51
   3   8  12   62.37    4.18
  -3  -8 -12   69.23    4.31
   3   8  13   78.96    5.29
  -3  -8 -13   76.81    5.31
   3   8  14  683.09   31.95
   3   8  14  552.60   21.06
  -3  -8 -14  670.58   33.94
   3   8  15   19.54    1.43
   3   8  15   22.47    3.25
  -3  -8 -15   25.72    3.13
   3   8  16    6.28    0.98
   3   8  16    5.74    2.31
  -3  -8 -16    9.63    1.76
   3   8  17   67.03    5.39
   3   8  18  210.41   14.40
   3   8  19   12.94    3.05
  -3  -8 -19   12.94    3.04
   3   9 -11   50.59    6.86
   3   9 -11   51.27    6.84
   3   9 -10  107.93    9.89
   3   9  -9  104.71    7.19
  -3  -9   9   96.45    7.08
   3   9  -8  376.73   21.99
  -3  -9   8  325.05   17.52
   3   9  -7   61.35    5.07
  -3  -9   7   44.39    3.94
   3   9  -6    6.24    1.95
   3   9  -6    7.19    1.30
  -3  -9   6    5.78    1.49
   3   9  -5 1239.67   64.24
   3   9  -5 1205.22   60.03
  -3  -9   5 1187.57   59.39
   3   9  -4   84.98    4.47
   3   9  -4  100.31    5.19
  -3  -9   4   70.12    4.09
   3   9  -3  546.32   24.46
   3   9  -3  524.12   21.73
  -3  -9   3  517.23   20.96
   3   9  -2  115.16    4.82
   3   9  -2  113.09    4.71
  -3  -9   2  111.56    4.61
   3   9  -1  254.67    8.92
  -3  -9   1  257.73    9.35
   3   9   0  433.88   15.04
  -3  -9   0  449.87   16.19
   3   9   1  584.05   20.28
  -3  -9  -1  578.09   21.63
   3   9   2  785.81   25.16
   3   9   2  822.11   32.88
   3   9   2  791.13   23.79
   3   9   2  801.16   28.32
  -3  -9  -2  808.63   31.72
   3   9   3  144.68    4.48
   3   9   3  135.32    3.38
   3   9   3  137.36    3.30
  -3  -9  -3  141.24    5.04
   3   9   4  261.82    6.54
   3   9   4  278.22    9.28
   3   9   4  282.40    8.72
   3   9   5  173.22    5.50
   3   9   5  166.91    5.98
   3   9   5  148.56    3.27
  -3  -9  -5  167.54    4.95
   3   9   6  251.79    7.86
   3   9   6  230.96    5.13
   3   9   6  264.30    9.36
   3   9   6  255.56    6.05
  -3  -9  -6  267.84    8.55
   3   9   7    1.67    0.24
   3   9   7    2.77    0.58
   3   9   7    2.11    0.21
   3   9   7    3.72    0.82
  -3  -9  -7    2.34    0.68
   3   9   8  746.59   27.28
   3   9   8  701.21   20.93
  -3  -9  -8  778.48   31.60
   3   9   9   91.28    1.98
   3   9   9  102.04    3.08
  -3  -9  -9  108.90    4.53
   3   9  10  293.71    8.59
  -3  -9 -10  260.10    6.43
  -3  -9 -10  295.57   10.85
   3   9  11  538.89   18.37
  -3  -9 -11  566.59   23.45
   3   9  12    5.21    0.60
  -3  -9 -12    4.70    1.11
   3   9  13  346.33   11.94
   3   9  13  399.08   19.75
  -3  -9 -13  394.18   19.33
   3   9  14   26.16    1.53
   3   9  14   36.57    2.73
  -3  -9 -14   30.96    2.62
   3   9  15  330.60   17.80
   3   9  15  249.59    8.74
  -3  -9 -15  314.23   14.85
   3   9  16    2.00    0.67
   3   9  16    3.62    1.84
  -3  -9 -16    2.63    1.36
   3   9  17   68.01    6.71
  -3  -9 -17   58.69    5.21
   3   9  18   32.04    4.83
  -3  -9 -18   21.69    4.86
   3   9  19    7.79    3.39
   3  10 -10   16.13    3.32
   3  10  -9  121.58   10.94
   3  10  -8  167.36    9.93
   3  10  -8  174.70   10.70
   3  10  -7   43.64    3.55
   3  10  -7   43.98    5.00
  -3 -10   7   41.78    3.72
   3  10  -6    7.70    2.31
   3  10  -6    8.46    1.94
  -3 -10   6    6.70    1.64
   3  10  -5  110.38    6.16
   3  10  -5  105.18    6.44
  -3 -10   5  104.93    5.74
   3  10  -4  214.83   11.67
   3  10  -4  194.93    9.59
  -3 -10   4  200.51    8.89
   3  10  -3  250.99   11.01
   3  10  -3  232.68    9.24
  -3 -10   3  242.86   10.00
   3  10  -2    5.66    1.59
   3  10  -2    6.35    1.20
  -3 -10   2    7.16    1.17
   3  10  -1   73.54    3.47
  -3 -10   1   73.40    3.48
   3  10   0  177.96    6.46
  -3 -10   0  179.12    6.72
   3  10   1  193.62    8.01
   3  10   1  181.57    6.25
  -3 -10  -1  189.10    6.88
   3  10   2    8.32    0.86
   3  10   2    5.66    0.27
   3  10   2    6.63    0.71
  -3 -10  -2    7.22    0.95
   3  10   3  237.16    8.57
   3  10   3  228.50    5.73
   3  10   3  208.35    5.87
  -3 -10  -3  226.76    8.03
   3  10   4    5.74    0.87
   3  10   4    5.62    0.71
   3  10   4    4.56    0.48
   3  10   4    4.01    0.49
   3  10   5   26.37    1.51
   3  10   5   19.09    0.68
   3  10   5   23.59    1.63
   3  10   6    5.32    0.82
   3  10   6    4.98    0.43
   3  10   6    5.66    1.01
  -3 -10  -6    5.75    0.78
   3  10   7  585.19   18.07
   3  10   7  648.81   24.09
   3  10   7  684.45   28.21
  -3 -10  -7  672.01   25.94
   3  10   8  400.26   14.91
   3  10   8  359.84    9.54
   3  10   8  397.22   13.43
  -3 -10  -8  403.42   15.43
   3  10   9   54.64    2.59
   3  10   9   48.11    1.97
  -3 -10  -9   59.44    3.00
   3  10  10  163.86    5.28
   3  10  10  186.30    8.51
   3  10  10  161.75    3.98
  -3 -10 -10  186.31    8.20
   3  10  11  889.06   35.37
  -3 -10 -11  910.97   42.22
   3  10  12  405.00   13.28
  -3 -10 -12  454.69   20.97
   3  10  13   50.75    2.21
  -3 -10 -13   75.05    4.53
   3  10  14  192.43    6.27
  -3 -10 -14  267.30   11.59
   3  10  15   14.01    1.01
  -3 -10 -15   13.63    2.72
   3  10  16    1.10    1.85
  -3 -10 -16    3.38    1.85
   3  10  17   22.23    3.14
  -3 -10 -17   22.96    3.17
   3  10  18   17.63    3.08
  -3 -10 -18   17.51    3.11
   3  10  19    2.02    1.76
  -3 -10 -19    0.79    2.23
   3  11  -9  180.67   15.43
   3  11  -9  166.57   11.62
   3  11  -8    6.15    1.92
   3  11  -8    4.00    1.83
   3  11  -7    3.48    1.53
   3  11  -7    1.61    1.32
   3  11  -6   40.29    4.43
   3  11  -6   43.42    4.02
   3  11  -5  188.54   10.07
   3  11  -5  178.22   10.44
  -3 -11   5  174.24    8.79
   3  11  -4  408.33   22.09
   3  11  -4  379.88   19.11
  -3 -11   4  362.23   16.62
   3  11  -3   46.59    2.59
   3  11  -3   47.73    3.34
  -3 -11   3   37.18    2.97
   3  11  -2    4.98    1.26
  -3 -11   2    4.89    1.16
   3  11  -1    2.79    0.99
  -3 -11   1    4.05    0.99
   3  11   0   57.70    2.44
  -3 -11   0   56.13    3.14
   3  11   1 1089.26   53.58
   3  11   1 1012.35   45.71
  -3 -11  -1 1009.75   46.21
   3  11   2  105.18    4.82
   3  11   2   91.45    3.41
   3  11   2   94.90    2.19
  -3 -11  -2   96.47    4.11
   3  11   3  143.72    5.25
   3  11   3  131.22    4.36
   3  11   3  142.72    3.59
  -3 -11  -3  138.36    5.55
   3  11   4   81.57    2.68
   3  11   4   88.58    3.92
   3  11   4   91.37    2.62
   3  11   4   94.59    4.25
   3  11   5    2.92    0.76
   3  11   5    1.49    0.36
   3  11   5    3.02    0.83
   3  11   5    2.20    0.56
   3  11   6    2.31    0.71
   3  11   6    1.10    0.59
   3  11   6    1.10    0.30
   3  11   6    2.29    0.61
   3  11   7   45.69    2.09
   3  11   7   59.48    2.55
   3  11   7   53.78    3.05
   3  11   8    4.45    0.79
   3  11   8    3.94    0.38
   3  11   8    4.58    1.14
  -3 -11  -8    3.83    0.96
   3  11   9   33.30    2.07
   3  11   9   28.35    0.99
  -3 -11  -9   24.93    2.37
   3  11  10  123.45    3.16
   3  11  10  144.08    4.84
   3  11  10  150.53    7.26
  -3 -11 -10  143.60    6.82
   3  11  11   76.93    2.18
   3  11  11   84.14    2.95
   3  11  11   99.58    5.62
  -3 -11 -11   92.27    4.47
   3  11  12   95.30    5.78
  -3 -11 -12   84.68    5.62
   3  11  13  307.57   13.80
   3  11  13  250.12    8.65
  -3 -11 -13  300.53   15.44
   3  11  14  181.92    5.82
  -3 -11 -14  210.27   11.77
   3  11  15    1.38    0.44
  -3 -11 -15    3.29    1.56
  -3 -11 -16  142.65    9.14
  -3 -11 -17   38.26    5.57
   3  11  18   52.31    6.79
  -3 -11 -18   46.99    6.45
   3  11  19   17.28    3.59
  -3 -11 -19   20.89    4.57
   3  12  -8   20.08    4.86
   3  12  -8   19.64    4.13
   3  12  -7    1.64    2.00
   3  12  -7    0.77    1.73
   3  12  -6   62.68    5.70
   3  12  -6   67.30    4.82
   3  12  -5   94.15    5.78
   3  12  -5  103.90    8.57
   3  12  -4   34.02    4.58
   3  12  -4   34.36    3.61
   3  12  -3   84.78    5.19
  -3 -12   3   68.56    4.34
   3  12  -2  381.92   17.96
  -3 -12   2  352.87   15.83
   3  12  -1  100.60    5.36
  -3 -12   1  100.31    4.94
   3  12   0   43.29    2.85
   3  12   0   42.61    2.66
  -3 -12   0   36.17    2.58
   3  12   1   26.49    2.14
   3  12   1   27.33    1.51
  -3 -12  -1   24.89    2.06
   3  12   2   88.44    3.82
   3  12   2   99.98    5.40
  -3 -12  -2   88.12    4.23
   3  12   3   40.57    3.16
   3  12   3   40.88    2.09
   3  12   4  374.18   15.54
   3  12   4  315.04   11.24
   3  12   4  341.49   13.62
   3  12   4  340.98   10.58
   3  12   5  354.92   14.41
   3  12   5  305.05   10.22
   3  12   5  338.95   13.82
   3  12   5  317.79   10.71
   3  12   6   68.41    3.23
   3  12   6   60.11    3.05
   3  12   6   48.69    2.25
   3  12   7 1045.61   48.01
   3  12   7 1077.38   49.32
   3  12   7  918.39   36.81
   3  12   7 1083.38   51.94
   3  12   8    2.69    0.36
   3  12   8    4.10    0.79
   3  12   8    3.76    1.09
   3  12   8    1.50    0.97
   3  12   9   15.31    1.35
   3  12   9   13.77    0.71
   3  12   9   19.78    1.78
   3  12   9   16.10    1.96
   3  12  10  210.45    7.19
   3  12  10  222.63   10.59
   3  12  10  185.71    5.23
   3  12  11   68.00    2.02
   3  12  11   78.91    5.16
   3  12  11   76.26    2.84
  -3 -12 -11   88.99    4.98
   3  12  12    3.16    0.45
   3  12  12    4.54    0.71
   3  12  12    7.03    1.59
  -3 -12 -12    7.80    1.56
   3  12  13    1.86    0.63
   3  12  13    3.88    1.17
  -3 -12 -13    4.29    1.13
   3  12  14  114.31    8.20
  -3 -12 -14  108.85    7.81
   3  12  15  465.73   28.44
  -3 -12 -15  441.21   27.13
   3  12  16   43.07    4.20
  -3 -12 -16   41.28    5.32
  -3 -12 -17    2.57    1.63
  -3 -12 -18   20.28    4.52
  -3 -12 -19   33.99    6.35
   3  13  -6   33.12    5.50
   3  13  -6   28.58    4.44
   3  13  -5  247.78   18.25
   3  13  -5  241.64   15.64
   3  13  -4   64.81    5.03
   3  13  -4   48.74    5.14
   3  13  -3   71.02    4.37
   3  13  -2  246.72   12.84
   3  13  -1  576.97   32.79
   3  13  -1  528.18   26.63
   3  13   0  122.22    7.16
   3  13   0   91.26    5.28
  -3 -13   0   93.20    4.92
   3  13   1   73.17    5.12
   3  13   1   64.01    3.65
  -3 -13  -1   57.27    3.59
   3  13   2 1427.49   78.93
   3  13   2 1269.73   64.57
  -3 -13  -2 1245.83   64.56
   3  13   3    9.66    1.77
   3  13   3    6.85    0.59
   3  13   3   10.70    1.13
   3  13   3   10.41    1.36
   3  13   4   53.96    4.33
   3  13   4   55.72    2.50
   3  13   4   63.61    2.08
   3  13   4   72.16    3.71
   3  13   5    8.10    0.87
   3  13   5    6.79    0.86
   3  13   5   11.11    1.36
   3  13   5    9.34    1.44
   3  13   6  301.30   12.22
   3  13   6  297.57    9.85
   3  13   6  332.28   12.79
   3  13   6  356.02   15.17
   3  13   7   70.99    3.87
   3  13   7   71.92    3.70
   3  13   7   96.22    4.50
   3  13   8  650.41   27.83
   3  13   8  543.10   19.27
   3  13   8  668.49   28.63
   3  13   8  698.38   30.45
   3  13   9  266.44   10.52
   3  13   9  261.29    9.82
   3  13   9  211.92    6.30
   3  13   9  270.05   11.65
   3  13  10    2.83    0.35
   3  13  10    3.16    0.69
   3  13  10    3.88    1.27
   3  13  10    4.21    1.03
   3  13  11   23.39    1.49
   3  13  11   28.76    2.16
   3  13  11   25.03    2.86
   3  13  12  257.14   12.12
   3  13  12  219.22    8.18
   3  13  12  264.82   14.01
   3  13  13   20.81    1.16
   3  13  13   31.02    2.53
   3  13  14   11.89    2.68
  -3 -13 -14   12.59    1.99
   3  13  15   31.28    4.32
  -3 -13 -15   30.38    4.21
   3  13  16   76.94    7.25
  -3 -13 -16   61.12    7.12
   3  13  17   76.12    6.57
  -3 -13 -17   85.66    6.54
   3  13  18   86.17    8.29
  -3 -13 -18   53.53    6.65
   3  13  19   54.85    7.86
   3  14  -5    3.94    2.13
   3  14  -5    4.29    2.21
   3  14  -4   14.67    2.30
   3  14  -3   73.66    4.93
   3  14  -2   90.08    6.52
   3  14  -2   99.06    8.59
   3  14  -1   17.93    2.55
   3  14  -1   21.88    3.51
   3  14   0   32.79    4.29
   3  14   0   34.37    3.03
   3  14   1  111.74    6.32
   3  14   1  100.61    4.80
   3  14   2    4.46    1.33
   3  14   2    5.20    1.13
   3  14   3  126.11    7.23
   3  14   3  115.07    5.51
   3  14   3  112.31    5.60
   3  14   4  211.27    6.89
   3  14   4  235.46   11.46
   3  14   4  200.31    8.15
   3  14   4  216.23    9.65
   3  14   5  285.84   10.60
   3  14   5  319.54   10.62
   3  14   5  324.30   14.18
   3  14   5  349.08   16.15
   3  14   6  345.33   13.06
   3  14   6  373.94   14.39
   3  14   6  380.06   16.71
   3  14   6  394.18   15.82
   3  14   7   15.93    1.77
   3  14   7   12.08    1.03
   3  14   7   17.51    1.51
   3  14   7   14.00    1.90
   3  14   8  373.06   16.17
   3  14   8  320.66   11.44
   3  14   8  398.69   16.81
   3  14   8  396.30   18.07
   3  14   9   54.23    3.10
   3  14   9   63.57    3.78
   3  14   9   47.86    1.80
   3  14   9   66.43    4.05
   3  14  10   68.73    3.51
   3  14  10   79.87    4.15
   3  14  10   68.29    4.91
   3  14  11  135.40    5.87
   3  14  11  151.86    8.56
   3  14  11  148.72    8.64
   3  14  12    9.37    1.79
   3  14  12   11.73    1.03
   3  14  12   16.32    2.36
   3  14  13    4.47    1.69
   3  14  13    2.55    0.71
   3  14  13    5.11    1.66
   3  14  14    1.77    1.16
   3  14  14    0.34    1.61
   3  14  15   11.84    2.26
   3  14  15    9.57    2.28
   3  14  16    4.52    1.81
   3  14  16    3.60    2.39
   3  14  17   22.73    3.55
   3  14  17   28.13    4.83
   3  14  18   69.44    7.05
   3  14  18   81.08    7.37
   3  15  -3   37.70    4.57
   3  15  -3   11.91    2.70
   3  15  -2   65.88    6.16
   3  15  -2   87.13    6.59
   3  15  -1  244.57   17.03
   3  15  -1  214.50   13.36
   3  15   0   64.24    6.55
   3  15   0   59.08    4.74
   3  15   1   36.53    3.45
   3  15   1   32.95    3.09
   3  15   2   16.59    1.60
   3  15   2   15.42    2.04
   3  15   2   22.60    2.34
   3  15   3    0.59    0.86
   3  15   3    3.11    1.08
   3  15   3    2.29    0.95
   3  15   4  129.60    7.70
   3  15   4  112.85    6.08
   3  15   4  102.45    5.11
   3  15   5  642.45   31.73
   3  15   5  528.61   22.10
   3  15   5  555.89   26.46
   3  15   6  108.09    5.99
   3  15   6   99.83    5.38
   3  15   6   87.71    3.95
   3  15   6   90.76    3.73
   3  15   7  199.95    9.31
   3  15   7  162.23    5.93
   3  15   7  180.27    7.56
   3  15   7  191.33    9.21
   3  15   8   56.40    3.18
   3  15   8   60.21    3.86
   3  15   8   55.63    4.21
   3  15   8   53.15    2.43
   3  15   9  184.04    8.58
   3  15   9  181.72    9.87
   3  15   9  193.06    9.36
   3  15  10  114.32    6.66
   3  15  10  106.16    5.43
   3  15  10  113.93    7.14
   3  15  11  144.10    8.25
   3  15  11  130.94    7.94
   3  15  11  112.54    5.02
   3  15  12  112.00    4.94
   3  15  12  135.64    8.42
   3  15  12  138.17    8.32
   3  15  13   44.69    4.44
   3  15  13   34.21    3.33
   3  15  14   20.51    3.71
   3  15  14   24.98    3.66
   3  15  15   12.44    3.40
   3  15  15   17.99    3.32
   3  15  16    9.04    2.45
   3  15  16   10.98    3.05
   3  15  17   26.18    4.99
   3  15  17   25.69    5.14
   3  15  18   13.52    4.12
   3  15  18   11.94    2.99
   3  16  -2   50.54    5.88
   3  16  -2   22.98    3.34
   3  16  -1    2.67    1.66
   3  16  -1    1.51    1.19
   3  16   0   28.47    3.50
   3  16   0   20.96    3.20
   3  16   1   55.42    6.72
   3  16   1   67.15    4.96
   3  16   2   13.27    2.14
   3  16   2   12.22    1.92
   3  16   2   18.90    3.12
   3  16   3   53.43    4.81
   3  16   3   41.67    3.16
   3  16   3   34.46    3.09
   3  16   4   21.21    2.02
   3  16   4   27.11    3.18
   3  16   4   13.84    2.19
   3  16   5   10.70    1.73
   3  16   5    9.56    1.26
   3  16   5   11.10    1.70
   3  16   6   15.04    1.58
   3  16   6   20.67    2.55
   3  16   6   15.65    2.16
   3  16   7   26.51    2.85
   3  16   7   23.98    1.78
   3  16   7   23.73    1.73
   3  16   7   28.73    2.60
   3  16   8  120.70    6.62
   3  16   8  101.36    4.44
   3  16   8  119.64    5.99
   3  16   8  117.36    6.71
   3  16   9  147.80    7.50
   3  16   9  147.84    7.37
   3  16   9  112.67    4.30
   3  16   9  147.78    7.98
   3  16  10   21.03    2.12
   3  16  10   21.95    2.87
   3  16  10   22.70    2.63
   3  16  11   34.86    3.71
   3  16  11   38.93    2.77
   3  16  11   30.38    2.56
   3  16  12  142.99    9.72
   3  16  12  146.98    9.92
   3  16  13   61.72    6.09
   3  16  13   66.54    5.93
   3  16  14   48.71    5.53
   3  16  14   50.60    5.71
   3  16  15   48.35    5.66
   3  16  15   46.48    5.96
   3  16  16   20.16    4.29
   3  16  16   20.22    4.18
   3  16  17   84.87    7.24
   3  16  17   85.18    7.50
   3  17   0    3.10    2.35
   3  17   0    1.79    1.63
   3  17   1    1.83    1.89
   3  17   1    0.79    1.30
   3  17   2   26.43    2.94
   3  17   2   20.75    3.19
   3  17   3  105.50    8.74
   3  17   3  103.22    6.62
   3  17   4    8.02    2.34
   3  17   4    8.12    1.54
   3  17   4    6.18    1.33
   3  17   5   11.98    2.62
   3  17   5   11.46    1.67
   3  17   5   11.21    1.88
   3  17   6   63.42    5.06
   3  17   6   46.91    2.78
   3  17   6   56.83    3.95
   3  17   7    0.67    1.25
   3  17   7    1.57    0.66
   3  17   7    1.04    1.11
   3  17   8    8.20    1.80
   3  17   8    7.51    1.72
   3  17   9   35.80    3.27
   3  17   9   36.24    3.21
   3  17   9   41.68    3.70
   3  17  10    1.27    1.02
   3  17  10    2.63    1.04
   3  17  10    0.36    1.33
   3  17  11   50.21    4.25
   3  17  11   41.14    4.52
   3  17  12   22.71    3.66
   3  17  12   29.92    2.88
   3  17  13  170.75   11.81
   3  17  13  184.33   10.64
   3  17  14  120.58    9.39
   3  17  14  105.78    9.83
   3  17  15   28.68    4.53
   3  17  15   24.28    4.33
   3  17  16   19.85    4.20
   3  17  16   16.48    4.08
   3  18   3   -0.36    1.81
   3  18   3    1.54    1.17
   3  18   4    5.74    2.15
   3  18   4    2.51    1.41
   3  18   5    1.94    1.16
   3  18   5    3.10    1.80
   3  18   6    2.26    1.08
   3  18   6    3.61    1.74
   3  18   7    7.90    2.15
   3  18   7    6.99    1.72
   3  18   8   32.83    3.47
   3  18   8   24.99    2.99
   3  18   9   57.28    4.73
   3  18   9   55.05    4.90
   3  18  10    5.56    1.85
   3  18  11   25.34    4.49
   3  18  11   55.72    4.39
   3  18  12  153.59   10.75
   3  18  12  150.36    8.98
   3  18  13  121.08    9.48
   3  18  13  111.83    9.57
   3  18  14   69.49    7.00
   3  18  14   69.80    7.23
   3  19   8    2.09    1.56
   3  19  11    7.88    2.29
  -4  16  12    4.53    2.32
  -4  16  12    7.08    2.96
  -4  16  11   18.17    4.01
  -4  16  11   13.25    3.30
  -4  16  10   13.44    3.09
  -4  16  10   15.01    3.72
  -4  16   9    1.47    1.93
  -4  16   9    3.99    1.60
  -4  16   8   22.19    3.68
  -4  16   8   19.58    3.74
  -4  16   7   17.45    2.78
  -4  16   7   24.23    3.61
  -4  16   6    9.75    2.51
  -4  16   6   10.63    2.24
  -4  16   5   22.03    2.67
  -4  16   5   17.70    3.21
  -4  16   5   24.81    3.28
  -4  16   4   29.42    3.96
  -4  15  15   25.92    6.01
  -4  15  14    6.00    2.63
  -4  15  14    7.48    2.46
  -4  15  13    6.92    2.98
  -4  15  13   17.18    3.04
  -4  15  12    2.02    1.55
  -4  15  12   -0.17    1.99
  -4  15  11   55.90    5.85
  -4  15  11   55.61    5.33
  -4  15  10    3.95    2.01
  -4  15  10    3.99    1.77
  -4  15   9   13.22    2.20
  -4  15   9   15.34    3.36
  -4  15   8    7.12    2.39
  -4  15   8    6.48    1.76
  -4  15   7    4.69    2.23
  -4  15   7    7.39    2.17
  -4  15   6   13.30    1.69
  -4  15   6   13.90    2.90
  -4  15   6   11.27    2.72
  -4  15   5   50.37    4.12
  -4  15   5   50.88    5.00
  -4  15   5   49.45    5.50
  -4  15   4  125.76   10.14
  -4  15   4  122.89    8.01
  -4  15   4  117.76    8.39
  -4  15   3   26.52    4.01
  -4  15   3   20.64    2.89
  -4  15   3   21.83    2.57
  -4  15   2    1.18    1.79
   4 -15  -1   67.51    7.08
  -4  15   1   75.65    8.51
  -4  14  16    4.37    1.98
  -4  14  16    4.57    3.37
  -4  14  15    2.79    1.66
  -4  14  15    6.29    3.02
   4 -14 -14    4.65    2.12
  -4  14  14    4.50    1.57
  -4  14  14    5.87    3.00
  -4  14  13   43.91    4.54
  -4  14  13   26.70    2.99
  -4  14  12  115.31   10.18
  -4  14  12   84.09    8.27
  -4  14  11   19.36    3.72
  -4  14  11   28.51    3.40
  -4  14  10   37.31    4.97
  -4  14  10   32.64    4.24
  -4  14   9    6.52    2.02
  -4  14   9    5.55    1.76
  -4  14   8    2.23    1.30
  -4  14   8    2.88    1.73
  -4  14   7   50.96    3.42
  -4  14   7   61.92    5.89
  -4  14   7   76.03    5.77
  -4  14   6  252.88   12.57
  -4  14   6  309.68   18.20
  -4  14   6  313.91   17.54
  -4  14   5   52.56    4.57
  -4  14   5   74.86    5.30
  -4  14   5   56.03    4.16
  -4  14   4    2.42    1.37
  -4  14   4    3.30    1.45
  -4  14   3   38.16    4.64
  -4  14   3   34.07    3.42
   4 -14  -2   17.72    3.10
  -4  14   2   21.83    3.66
  -4  14   2   21.43    2.43
   4 -14  -1   41.33    4.84
  -4  14   1   46.07    2.91
  -4  14   1   29.27    4.22
   4 -14   0   18.13    2.70
  -4  14   0   21.57    2.94
   4 -14   1   25.32    4.70
  -4  14  -1   33.38    4.92
  -4  13  17   10.44    2.31
  -4  13  16   40.64    3.91
   4 -13 -15  298.50   20.23
  -4  13  15  334.47   22.53
  -4  13  15  273.97   18.10
   4 -13 -14   88.55    7.88
  -4  13  14   84.15    6.47
  -4  13  14  119.01   10.73
   4 -13 -13    9.75    1.85
  -4  13  13   10.95    3.32
  -4  13  13    8.91    1.76
   4 -13 -12   91.73    7.22
  -4  13  12   83.60    5.10
  -4  13  12  105.21    9.07
  -4  13  11  184.13    9.17
  -4  13  11  237.55   13.27
  -4  13  10  101.64    8.11
  -4  13  10   91.36    4.11
  -4  13  10  132.72    9.31
  -4  13   9   19.51    2.36
  -4  13   9   26.46    3.69
  -4  13   8    4.72    1.89
  -4  13   8    6.09    2.08
  -4  13   7   75.09    4.91
  -4  13   7   78.90    6.22
  -4  13   6  100.09    7.20
  -4  13   6  119.43    6.79
  -4  13   6   76.79    4.45
  -4  13   5   93.06    6.39
  -4  13   5   89.42    5.37
  -4  13   4  195.43   12.69
  -4  13   4  201.52   11.12
   4 -13  -3   66.79    4.82
  -4  13   3   73.67    4.73
  -4  13   3   71.69    5.08
   4 -13  -2  486.27   25.79
  -4  13   2  489.83   28.42
  -4  13   2  473.95   23.23
   4 -13  -1  172.47   11.16
  -4  13   1  188.81   10.92
  -4  13   1  168.02    8.66
   4 -13   0  200.76   13.17
  -4  13   0  208.66   14.06
  -4  13   0  186.81    9.32
   4 -13   1  234.46   16.26
  -4  13  -1  234.75   14.11
   4 -13   2   20.25    3.96
   4 -13   3   19.85    3.31
  -4  12  17   49.16    5.53
  -4  12  17   25.53    5.04
   4 -12 -16   60.39    6.60
  -4  12  16   59.02    5.10
   4 -12 -15    3.51    1.77
  -4  12  15    1.91    1.17
   4 -12 -14  102.59    7.94
  -4  12  14   98.37    6.79
   4 -12 -13  110.24    8.38
  -4  12  13  146.87   10.72
  -4  12  13   96.83    6.71
   4 -12 -12    4.36    1.85
  -4  12  12    4.21    1.24
  -4  12  12    7.48    2.41
   4 -12 -11  583.95   32.26
  -4  12  11  629.06   33.34
  -4  12  11  502.10   24.12
   4 -12 -10   14.76    1.85
  -4  12  10   16.03    2.92
  -4  12  10   11.96    1.36
  -4  12   9   33.12    1.95
  -4  12   9   43.39    4.43
  -4  12   9   47.21    3.97
  -4  12   8   23.39    2.46
  -4  12   8   29.16    3.49
  -4  12   7  818.44   39.52
  -4  12   7  812.85   42.12
  -4  12   7  637.72   26.46
  -4  12   6   16.82    2.80
  -4  12   6   23.93    2.90
  -4  12   5  303.48   15.35
  -4  12   5  327.21   17.02
   4 -12  -4   -0.74    0.56
  -4  12   4    1.02    0.73
  -4  12   4    0.50    0.85
   4 -12  -3  101.18    5.96
  -4  12   3  115.80    7.49
  -4  12   3   98.00    6.04
   4 -12  -2    4.80    1.36
  -4  12   2    2.67    1.67
  -4  12   2    3.19    1.27
   4 -12  -1   10.42    1.70
  -4  12   1   15.70    1.89
  -4  12   1   11.16    1.51
   4 -12   0  405.97   22.82
  -4  12   0  375.83   17.20
   4 -12   1  112.32    8.49
  -4  12  -1  103.30    4.83
   4 -12   2   37.25    4.44
  -4  12  -2   28.70    2.29
   4 -12   3    9.09    2.83
   4 -12   4   16.33    3.73
  -4  12  -4   13.28    3.50
   4 -12   5    7.34    2.31
  -4  12  -5    4.42    2.75
  -4  11  18   26.17    6.44
  -4  11  18   28.05    3.86
   4 -11 -17  245.22   18.45
  -4  11  17  279.79   19.70
  -4  11  17  252.72   18.74
   4 -11 -16   50.76    6.03
  -4  11  16   70.23    8.01
  -4  11  16   53.55    5.87
   4 -11 -15    3.05    1.89
  -4  11  15    3.63    2.64
  -4  11  15    5.45    1.82
   4 -11 -14   30.45    3.67
  -4  11  14   24.92    3.20
   4 -11 -13   39.91    4.06
  -4  11  13   32.82    3.27
   4 -11 -12   92.98    5.26
  -4  11  12   75.76    4.88
   4 -11 -11  161.46    9.56
  -4  11  11  148.08    7.26
  -4  11  11  174.07    9.73
   4 -11 -10    8.46    1.86
  -4  11  10    5.77    0.95
  -4  11  10   11.96    2.28
   4 -11  -9   92.05    6.24
  -4  11   9  126.94    7.04
  -4  11   9   80.65    3.87
  -4  11   8    3.03    0.38
  -4  11   8    4.44    0.63
  -4  11   8    4.89    1.19
  -4  11   8    1.19    0.70
  -4  11   7  178.76    5.42
  -4  11   7  211.98   10.65
  -4  11   7  174.30    5.91
  -4  11   7  209.39    9.42
  -4  11   6  103.98    5.71
  -4  11   6  110.76    6.86
   4 -11  -5  115.14    4.92
  -4  11   5  126.50    6.40
  -4  11   5  133.68    6.24
   4 -11  -4   66.48    3.74
  -4  11   4   88.27    4.35
  -4  11   4   78.26    4.84
   4 -11  -3   35.44    3.06
  -4  11   3   45.72    3.28
  -4  11   3   50.53    3.40
   4 -11  -2   36.84    3.14
  -4  11   2   46.26    3.23
  -4  11   2   37.19    2.99
   4 -11  -1   13.82    1.92
  -4  11   1   11.64    1.69
   4 -11   0    2.71    1.13
  -4  11   0   -0.16    0.84
   4 -11   1    7.59    1.44
  -4  11  -1    5.22    1.07
   4 -11   2  148.24    9.76
  -4  11  -2  125.78    5.93
   4 -11   3   29.90    3.91
  -4  11  -3   24.85    1.81
  -4  11  -3   26.91    2.92
   4 -11   4    2.75    1.28
  -4  11  -4    0.58    0.75
  -4  11  -4    0.95    1.54
   4 -11   5   79.67    6.49
  -4  11  -5   85.49    7.98
   4 -11   6    6.18    2.72
  -4  11  -6    4.08    1.83
   4 -10 -18  507.22   36.72
  -4  10  18  551.55   40.67
  -4  10  18  570.15   45.94
   4 -10 -17    4.63    2.25
  -4  10  17    3.81    2.22
  -4  10  17    4.24    2.33
   4 -10 -16  167.96   12.63
  -4  10  16  177.19   15.12
  -4  10  16  163.35   10.32
   4 -10 -15  235.85   13.27
  -4  10  15  272.62   19.19
  -4  10  15  249.17   15.39
   4 -10 -14  511.12   29.52
  -4  10  14  562.56   35.24
  -4  10  14  522.42   28.75
   4 -10 -13   24.55    3.11
  -4  10  13   26.54    4.08
  -4  10  13   23.08    2.73
   4 -10 -12  125.64    7.73
  -4  10  12  112.42    6.26
   4 -10 -11   35.56    3.61
  -4  10  11   36.68    2.63
   4 -10 -10  124.69    5.98
  -4  10  10  113.58    4.86
   4 -10  -9   53.86    4.23
  -4  10   9   77.46    4.95
  -4  10   9   50.80    2.36
   4 -10  -8  156.18    8.18
  -4  10   8  138.34    4.77
  -4  10   8  150.04    7.32
   4 -10  -7   36.35    3.25
  -4  10   7   45.51    3.63
  -4  10   7   37.96    1.38
   4 -10  -6   82.43    2.77
  -4  10   6   95.67    4.66
  -4  10   6   96.41    4.61
  -4  10   6   82.10    2.49
   4 -10  -5   10.12    0.92
  -4  10   5   12.19    1.89
  -4  10   5   10.15    1.80
   4 -10  -4   57.69    2.73
  -4  10   4   63.84    3.75
  -4  10   4   72.19    3.28
   4 -10  -3   46.05    2.75
  -4  10   3   48.06    3.72
  -4  10   3   55.86    3.39
   4 -10  -2   74.90    4.45
  -4  10   2   98.34    4.65
   4 -10  -1    9.24    1.16
  -4  10   1    9.61    1.44
   4 -10   0   36.06    3.28
  -4  10   0   36.45    2.48
   4 -10   1    4.02    1.36
  -4  10  -1    2.04    0.93
   4 -10   2   50.90    4.30
  -4  10  -2   37.44    2.64
  -4  10  -2   51.96    3.34
   4 -10   3   37.54    3.89
  -4  10  -3   31.96    2.16
  -4  10  -3   29.83    3.77
   4 -10   4   69.82    4.57
  -4  10  -4   49.96    2.73
  -4  10  -4   72.58    5.41
   4 -10   5  107.21    8.58
  -4  10  -5  100.90    6.15
  -4  10  -5   82.95    4.38
   4 -10   6   56.10    7.02
  -4  10  -6   71.50    6.27
   4 -10   7   17.53    4.18
  -4  10  -7   16.64    3.64
   4 -10   8   83.46    7.65
  -4  10  -8   71.52    6.60
  -4   9  19   68.87    7.60
  -4   9  19   73.42   10.71
   4  -9 -18    9.20    2.79
  -4   9  18    9.53    3.05
  -4   9  18    3.64    2.70
   4  -9 -17   30.97    4.01
  -4   9  17   17.00    3.25
  -4   9  17   23.86    5.03
   4  -9 -16  214.48   12.87
  -4   9  16  231.47   17.92
  -4   9  16  223.18   12.94
   4  -9 -15  131.40    8.88
  -4   9  15  107.93   10.75
  -4   9  15  128.23    8.76
   4  -9 -14   27.97    3.57
  -4   9  14   25.97    3.34
  -4   9  14   27.40    3.22
   4  -9 -13  134.83    8.82
  -4   9  13  140.75   10.33
  -4   9  13  134.97    8.05
   4  -9 -12   37.54    3.88
  -4   9  12   46.30    3.52
  -4   9  12   39.32    3.16
   4  -9 -11   81.54    5.96
  -4   9  11  122.51    6.83
  -4   9  11   85.04    4.76
   4  -9 -10  246.28   10.46
  -4   9  10  231.96    9.75
   4  -9  -9   48.76    3.97
  -4   9   9   53.26    2.70
   4  -9  -8    2.97    0.83
  -4   9   8    1.56    0.23
  -4   9   8    1.19    0.23
  -4   9   8    2.49    0.50
  -4   9   8    1.92    0.93
   4  -9  -7    5.19    1.24
  -4   9   7    2.83    0.50
  -4   9   7    3.51    1.36
   4  -9  -6   64.94    3.28
  -4   9   6   65.95    3.49
   4  -9  -5  206.36    6.19
  -4   9   5  220.15    9.90
  -4   9   5  226.19    9.71
  -4   9   5  188.61    4.76
  -4   9   5  190.97    4.67
   4  -9  -4  310.53   10.80
  -4   9   4  312.83   12.19
  -4   9   4  327.43   14.38
   4  -9  -3  595.59   23.96
  -4   9   3  644.73   27.67
   4  -9  -2  187.90    7.54
  -4   9   2  177.64    6.77
   4  -9  -1    6.97    0.98
  -4   9   1    7.69    1.25
   4  -9   0  107.14    5.68
  -4   9   0  109.24    4.90
   4  -9   1  301.16   14.23
  -4   9  -1  297.88   14.41
  -4   9  -1  290.74   11.60
   4  -9   2  976.57   48.47
  -4   9  -2  973.98   43.82
  -4   9  -2 1020.94   53.39
   4  -9   3   29.45    3.21
  -4   9  -3   21.96    1.83
  -4   9  -3   30.57    3.05
   4  -9   4  226.48   12.91
  -4   9  -4  195.54    8.21
  -4   9  -4  216.46   11.97
   4  -9   5   51.89    5.40
  -4   9  -5   54.99    3.75
   4  -9   6   55.49    5.71
  -4   9  -6   51.16    3.78
  -4   9  -6   43.09    2.47
   4  -9   7   19.97    3.97
  -4   9  -7   21.20    3.39
   4  -9   8   43.19    4.85
  -4   9  -8   42.11    5.37
   4  -9   9   33.21    6.01
  -4   9  -9   32.56    4.14
   4  -8 -19    3.64    2.66
  -4   8  19    1.28    2.44
  -4   8  19    7.59    2.34
   4  -8 -18  207.35   14.41
  -4   8  18  227.80   16.73
  -4   8  18  240.90   19.49
   4  -8 -17  165.28   13.12
  -4   8  17  181.67   13.26
  -4   8  17  176.40   13.75
   4  -8 -16    1.40    1.80
  -4   8  16    4.55    1.72
  -4   8  16    2.39    1.42
   4  -8 -15    8.82    2.27
  -4   8  15    6.54    2.77
  -4   8  15    8.29    2.28
   4  -8 -14   67.11    4.18
  -4   8  14   64.07    5.12
  -4   8  14   58.69    5.25
   4  -8 -13   11.90    1.90
  -4   8  13   14.26    2.29
  -4   8  13   17.41    2.20
   4  -8 -12  321.78   16.53
  -4   8  12  317.71   15.10
  -4   8  12  323.78   18.34
   4  -8 -11  189.72    9.93
  -4   8  11  183.88   10.86
  -4   8  11  184.62    8.55
   4  -8 -10  926.60   46.61
  -4   8  10  909.06   41.42
  -4   8  10  925.79   49.30
   4  -8  -9  451.91   20.52
  -4   8   9  422.58   16.28
   4  -8  -8  649.35   27.46
  -4   8   8  621.64   23.49
   4  -8  -7  570.15   24.27
   4  -8  -7  508.46   14.25
  -4   8   7  557.90   18.47
   4  -8  -6  114.60    5.28
   4  -8  -6   99.44    2.80
  -4   8   6  103.30    2.87
  -4   8   6  103.15    4.49
   4  -8  -5  453.23   18.65
   4  -8  -5  431.12   13.00
  -4   8   5  415.73   11.22
  -4   8   5  437.49   16.79
   4  -8  -4  337.82   10.14
  -4   8   4  292.71    6.78
  -4   8   4  366.39   14.02
  -4   8   4  309.18    6.97
   4  -8  -3   36.59    1.74
  -4   8   3   36.45    1.96
   4  -8  -2    6.43    1.01
  -4   8   2    7.22    1.21
   4  -8  -1  229.27    8.87
  -4   8   1  228.65    8.00
   4  -8   0   14.81    1.62
  -4   8   0   12.76    1.41
  -4   8   0   14.64    1.41
   4  -8   1    3.74    1.19
  -4   8  -1    3.59    1.26
  -4   8  -1    4.24    0.93
   4  -8   2  295.44   13.66
  -4   8  -2  268.04   11.48
  -4   8  -2  282.76   10.65
   4  -8   3  954.47   46.17
  -4   8  -3  889.18   38.42
  -4   8  -3  941.83   48.00
   4  -8   4  175.63    8.38
  -4   8  -4  159.83    6.57
  -4   8  -4  178.98    9.23
   4  -8   5   32.17    2.71
  -4   8  -5   30.35    3.10
  -4   8  -5   25.11    1.92
   4  -8   6    0.87    1.28
  -4   8  -6    4.69    1.47
  -4   8  -6    2.35    0.85
   4  -8   7    4.77    1.47
  -4   8  -7    0.04    0.60
  -4   8  -7   -0.05    0.92
   4  -8   8   26.95    3.24
  -4   8  -8   18.35    1.94
  -4   8  -8   26.88    3.52
   4  -8   9   90.59    9.00
  -4   8  -9   78.01    5.94
   4  -8  10    9.95    2.53
  -4   8 -10    3.57    2.78
   4  -7 -19   17.21    4.22
  -4   7  19   14.38    3.77
  -4   7  19   18.92    4.85
   4  -7 -18  226.04   17.73
  -4   7  18  261.07   17.97
  -4   7  18  247.94   20.60
   4  -7 -17  291.40   17.32
  -4   7  17  319.72   23.27
  -4   7  17  344.76   22.99
   4  -7 -16   19.97    3.33
  -4   7  16   16.64    3.94
  -4   7  16   16.62    3.59
   4  -7 -15   24.95    2.55
  -4   7  15   21.82    2.92
  -4   7  15   16.55    2.57
   4  -7 -14  100.05    7.16
  -4   7  14   96.19    5.81
  -4   7  14  115.16    8.32
   4  -7 -13  126.94    7.69
  -4   7  13  126.17    8.96
  -4   7  13  123.21    7.63
   4  -7 -12   49.83    4.23
  -4   7  12   52.49    3.10
  -4   7  12   63.52    4.88
   4  -7 -11   37.15    3.06
  -4   7  11   26.43    2.04
  -4   7  11   33.21    2.59
   4  -7 -10  229.45   10.74
  -4   7  10  223.66    9.94
  -4   7  10  223.50    9.20
   4  -7  -9    6.23    1.19
  -4   7   9    8.64    1.74
  -4   7   9   11.50    1.17
   4  -7  -8  457.60   19.36
  -4   7   8  463.84   20.28
  -4   7   8  452.58   16.07
   4  -7  -7   33.17    0.71
  -4   7   7   39.68    1.46
   4  -7  -6  211.81    4.88
   4  -7  -6  224.59    8.01
  -4   7   6  222.91    6.05
   4  -7  -5   19.93    1.75
   4  -7  -5   18.02    0.69
  -4   7   5   17.87    0.65
   4  -7  -4  111.52    4.22
   4  -7  -4  112.62    3.34
  -4   7   4  125.47    5.44
  -4   7   4  111.53    2.44
  -4   7   3   39.56    0.67
  -4   7   3   45.00    0.73
   4  -7  -2   36.96    2.02
  -4   7   2   56.24    2.15
   4  -7  -1  205.52    7.42
  -4   7   1  222.76    7.99
  -4   7   1  211.95    8.01
   4  -7   0   44.00    2.43
  -4   7   0   43.66    2.71
  -4   7   0   37.88    2.24
   4  -7   1  475.22   19.71
  -4   7  -1  430.53   16.64
  -4   7  -1  521.50   21.05
   4  -7   2   70.37    3.31
  -4   7  -2   81.90    4.07
  -4   7  -2   69.15    3.12
   4  -7   3   84.20    4.18
  -4   7  -3   86.86    3.67
  -4   7  -3   84.59    4.88
   4  -7   4  145.11    6.70
  -4   7  -4  137.34    5.55
  -4   7  -4  155.85    7.67
   4  -7   5 1395.91   77.45
  -4   7  -5 1168.92   56.62
  -4   7  -5 1321.01   68.36
   4  -7   6  282.76   14.89
  -4   7  -6  263.38   11.46
  -4   7  -6  216.58    9.16
   4  -7   7  134.66    7.34
  -4   7  -7  126.18    6.37
  -4   7  -7  105.74    5.08
   4  -7   8   46.28    5.16
  -4   7  -8   44.28    4.42
   4  -7   9  167.01    9.97
  -4   7  -9  128.00    6.61
  -4   7  -9  160.29    8.53
  -4   7 -10    4.36    1.91
  -4   7 -10    2.20    1.14
  -4   7 -11   57.47    6.74
   4  -6 -19    3.56    2.75
  -4   6  19    4.53    2.94
   4  -6 -18  264.41   20.39
  -4   6  18  277.75   22.24
   4  -6 -17    6.55    2.51
  -4   6  17    5.38    2.06
  -4   6  17    6.78    2.89
   4  -6 -16   70.00    4.98
  -4   6  16   68.03    5.76
  -4   6  16   58.81    7.18
   4  -6 -15  261.45   16.08
  -4   6  15  277.58   17.80
  -4   6  15  281.73   17.07
   4  -6 -14   95.29    5.91
  -4   6  14  121.44    8.37
  -4   6  14  117.94    7.70
   4  -6 -13  253.13   13.70
  -4   6  13  272.33   15.69
  -4   6  13  282.14   14.36
   4  -6 -12    6.51    1.83
  -4   6  12    9.72    1.98
  -4   6  12    8.11    1.72
   4  -6 -11   14.44    1.51
  -4   6  11   11.47    1.66
  -4   6  11   11.44    1.80
   4  -6 -10  119.57    5.22
  -4   6  10  121.41    5.50
  -4   6  10  118.81    5.48
   4  -6  -9   98.48    5.11
  -4   6   9   97.80    4.52
  -4   6   9   97.90    4.23
   4  -6  -8  299.36   12.39
  -4   6   8  300.74   10.25
  -4   6   8  288.06   11.24
   4  -6  -7   14.18    1.17
  -4   6   7   11.55    1.02
  -4   6   7   14.13    1.70
   4  -6  -6    1.97    0.78
   4  -6  -6    0.71    0.21
  -4   6   6    0.94    0.22
  -4   6   6    1.30    0.37
  -4   6   6    2.67    0.84
   4  -6  -5  200.88    6.70
   4  -6  -5  190.02    4.38
  -4   6   5  191.54    4.74
   4  -6  -4   16.79    1.27
   4  -6  -4   19.76    0.72
  -4   6   4   18.73    0.55
   4  -6  -3  115.16    3.13
   4  -6  -3  116.65    4.77
   4  -6  -3  106.71    1.97
  -4   6   3  124.00    4.13
   4  -6  -2 1023.74   40.86
  -4   6   2 1100.85   48.86
  -4   6   2 1043.19   45.60
   4  -6  -1 2201.55  116.61
  -4   6   1 2407.77  136.40
  -4   6   1 2389.61  132.61
   4  -6   0  160.79    5.81
  -4   6   0  158.82    6.44
  -4   6   0  166.12    5.19
   4  -6   1   45.88    2.47
  -4   6  -1   50.08    2.75
  -4   6  -1   46.79    2.25
   4  -6   2 1660.15   85.71
  -4   6  -2 1676.54   83.30
  -4   6  -2 1571.30   76.90
   4  -6   3  338.90   14.04
  -4   6  -3  322.36   11.23
  -4   6  -3  314.00   11.68
   4  -6   4 1165.32   57.46
  -4   6  -4 1183.31   52.92
  -4   6  -4 1261.44   59.77
   4  -6   5  182.94    9.43
  -4   6  -5  174.49    6.77
  -4   6  -5  186.31    8.62
   4  -6   6  162.51    7.39
  -4   6  -6  150.75    7.85
  -4   6  -6  141.87    5.75
   4  -6   7   55.59    4.73
  -4   6  -7   59.90    3.99
  -4   6  -7   45.84    2.72
   4  -6   8   81.22    6.35
  -4   6  -8   60.47    3.55
  -4   6  -8   85.43    5.17
   4  -6   9   -0.68    1.05
  -4   6  -9    0.55    0.75
  -4   6  -9    1.30    1.15
  -4   6 -10   13.66    1.77
  -4   6 -10   13.91    2.10
  -4   6 -11   38.96    4.84
  -4   6 -11   36.69    3.12
   4  -6  12  103.72   10.70
  -4   6 -12   87.27    8.91
   4  -5 -19   19.98    4.79
  -4   5  19   22.09    5.05
   4  -5 -18   26.09    4.38
  -4   5  18   19.71    3.62
   4  -5 -17  310.36   21.54
  -4   5  17  328.84   23.04
   4  -5 -16    3.31    1.98
  -4   5  16    3.39    1.57
   4  -5 -15  156.49    8.61
  -4   5  15  144.62    9.02
   4  -5 -14 1460.38   88.93
  -4   5  14 1497.20   94.05
  -4   5  14 1485.85   91.42
   4  -5 -13    9.99    1.63
  -4   5  13   13.65    1.81
  -4   5  13   12.91    1.75
   4  -5 -12  552.36   27.01
  -4   5  12  565.93   28.62
  -4   5  12  554.77   26.85
   4  -5 -11 1114.78   57.16
  -4   5  11 1140.58   57.06
  -4   5  11 1111.94   55.62
   4  -5 -10  316.79   13.29
  -4   5  10  297.03   13.80
  -4   5  10  294.59   11.07
   4  -5  -9  202.16    8.59
  -4   5   9  192.94    7.62
  -4   5   9  197.52    7.80
   4  -5  -8 1065.04   49.74
  -4   5   8 1098.32   51.68
  -4   5   8 1071.83   45.67
   4  -5  -7  254.69    8.78
  -4   5   7  248.95    8.86
  -4   5   7  249.68    8.00
   4  -5  -6   94.20    3.42
  -4   5   6   87.04    1.66
  -4   5   6   93.27    3.49
  -4   5   6   90.89    2.63
   4  -5  -5  756.16   22.59
   4  -5  -5  766.31   29.59
  -4   5   5  830.22   25.14
  -4   5   5  722.71   28.39
  -4   5   5  752.32   24.88
   4  -5  -4  149.93    3.42
   4  -5  -4  152.39    5.81
  -4   5   4  140.18    3.18
   4  -5  -3  324.05   11.08
   4  -5  -3  358.11    9.82
   4  -5  -3  352.13    8.12
   4  -5  -2 1503.90   53.17
   4  -5  -2 1642.31   71.42
   4  -5  -2 1631.95   76.25
   4  -5  -1  358.80   11.46
  -4   5   1  356.81   11.87
  -4   5   1  364.96   11.63
   4  -5   0  908.19   35.59
  -4   5   0  901.52   37.77
  -4   5   0  883.46   35.09
   4  -5   1 1149.23   48.02
  -4   5  -1 1192.85   50.96
  -4   5  -1 1137.93   46.58
   4  -5   2   19.91    1.69
  -4   5  -2   16.99    1.38
  -4   5  -2   21.51    1.40
   4  -5   3   13.08    1.20
   4  -5   3   11.11    0.27
  -4   5  -3    8.67    1.20
  -4   5  -3   16.19    1.28
   4  -5   4    2.66    1.09
  -4   5  -4    3.58    0.76
  -4   5  -4    3.19    0.73
  -4   5  -4    2.94    0.26
   4  -5   5  277.64   12.72
  -4   5  -5  257.48    8.40
  -4   5  -5  285.10   10.77
   4  -5   6    7.00    1.30
  -4   5  -6    8.50    1.39
  -4   5  -6    6.72    1.05
   4  -5   7    7.61    1.28
  -4   5  -7    5.34    1.07
  -4   5  -7    4.45    1.01
   4  -5   8  158.53    7.63
  -4   5  -8  138.29    6.34
  -4   5  -8  120.85    5.68
  -4   5  -9   40.51    3.42
  -4   5  -9   30.47    2.44
  -4   5 -10    6.90    1.69
  -4   5 -10    1.83    1.13
   4  -5  11  141.48   10.01
  -4   5 -11  117.02    6.89
  -4   5 -11   97.38    6.02
   4  -5  12   89.25    8.01
  -4   5 -12   61.29    4.64
  -4   5 -12   78.77    6.78
   4  -5  13    9.91    3.14
  -4   5 -13    6.07    2.63
  -4   5 -13    5.98    1.87
   4  -4 -18   81.55    9.12
  -4   4  18   94.84    9.51
  -4   4  18  105.16   10.95
   4  -4 -17  344.86   22.99
  -4   4  17  345.12   23.71
  -4   4  17  353.62   22.31
   4  -4 -16   21.62    3.56
  -4   4  16   20.73    3.72
   4  -4 -15   45.74    4.78
  -4   4  15   46.10    3.82
   4  -4 -14   11.89    1.83
  -4   4  14   13.31    2.52
   4  -4 -13  154.35    8.83
  -4   4  13  157.51    9.49
   4  -4 -12   50.52    3.24
  -4   4  12   57.57    4.28
   4  -4 -11   95.42    5.39
  -4   4  11   92.68    5.77
  -4   4  11  102.65    5.47
   4  -4 -10  184.91    8.24
  -4   4  10  192.83    8.81
  -4   4  10  185.37    7.06
   4  -4  -9  131.85    5.76
  -4   4   9  125.10    5.00
  -4   4   9  128.75    4.53
   4  -4  -8   60.86    2.66
  -4   4   8   62.16    2.94
  -4   4   8   74.52    3.47
   4  -4  -7    7.54    0.99
  -4   4   7   11.56    1.34
  -4   4   7   11.09    0.99
   4  -4  -6  763.28   31.16
   4  -4  -6  728.95   20.02
  -4   4   6  785.40   31.70
  -4   4   6  771.55   27.59
   4  -4  -5  664.54   18.32
   4  -4  -5  642.56   23.74
  -4   4   5  683.90   18.97
  -4   4   5  666.69   21.43
  -4   4   5  650.92   25.57
   4  -4  -4  148.17    3.18
   4  -4  -4  161.59    5.73
  -4   4   4  167.81    3.53
  -4   4   4  151.78    3.70
  -4   4   4  160.20    5.88
   4  -4  -3  141.47    3.20
   4  -4  -3  130.34    2.52
   4  -4  -3  138.54    4.35
  -4   4   3  131.23    4.98
  -4   4   3  128.22    2.68
   4  -4  -2   14.40    0.81
   4  -4  -2   13.81    1.24
  -4   4   2   12.93    0.37
   4  -4  -1   50.11    0.52
  -4   4   1   52.44    0.54
   4  -4   0   45.75    1.85
  -4   4   0   34.15    1.68
   4  -4   1   42.10    2.05
  -4   4  -1   47.36    2.08
  -4   4  -1   39.51    1.96
   4  -4   2  908.34   36.18
  -4   4  -2  868.68   33.21
  -4   4  -2  850.90   31.04
   4  -4   3  366.78   13.17
   4  -4   3  345.24    7.50
  -4   4  -3  364.70   11.68
  -4   4  -3  354.58   12.49
   4  -4   4   48.02    2.09
  -4   4  -4   41.16    1.96
  -4   4  -4   41.54    2.34
   4  -4   5 1177.79   54.39
   4  -4   5 1047.90   39.43
  -4   4  -5 1170.95   50.48
  -4   4  -5 1233.95   56.12
   4  -4   6  513.26   20.66
   4  -4   6  475.00   14.74
  -4   4  -6  498.91   20.13
  -4   4  -6  479.73   18.13
   4  -4   7   39.60    2.58
   4  -4   7   31.33    1.37
  -4   4  -7   41.81    2.55
  -4   4  -7   37.76    2.12
   4  -4   8   28.05    2.31
  -4   4  -8   29.08    2.40
  -4   4  -8   20.34    1.89
  -4   4  -9  191.19    9.29
  -4   4  -9  172.53    7.49
  -4   4 -10  140.48    7.74
  -4   4 -10  128.70    6.33
   4  -4  11  351.74   20.26
  -4   4 -11  269.29   13.36
  -4   4 -11  306.77   14.24
   4  -4  12   50.81    4.08
  -4   4 -12   37.79    3.38
  -4   4 -12   36.76    4.38
   4  -4  13    5.58    1.94
  -4   4 -13    4.26    1.63
  -4   4 -13    7.04    2.21
   4  -4  14   15.34    3.82
  -4   4 -14   17.02    3.22
  -4   4 -14    7.74    2.34
   4  -3 -18    3.14    2.67
  -4   3  18    6.02    2.93
  -4   3  18    4.38    1.89
   4  -3 -17    8.32    3.01
  -4   3  17   10.21    2.86
  -4   3  17   10.85    2.56
   4  -3 -16   23.34    4.19
  -4   3  16   30.48    4.04
  -4   3  16   30.49    4.73
   4  -3 -15  308.71   18.49
  -4   3  15  293.26   17.90
  -4   3  15  318.48   19.79
   4  -3 -14  133.94    8.60
  -4   3  14  132.79    8.59
  -4   3  14  143.15    9.44
   4  -3 -13   41.27    2.85
  -4   3  13   36.21    3.66
   4  -3 -12  257.23   12.49
  -4   3  12  252.16   10.93
   4  -3 -11 1360.15   69.97
  -4   3  11 1411.82   74.94
   4  -3 -10  253.35    5.97
   4  -3 -10  267.92   11.30
  -4   3  10  284.95   10.63
   4  -3  -9   71.15    1.44
   4  -3  -9   81.07    3.85
  -4   3   9   79.62    3.30
  -4   3   9   81.09    3.84
   4  -3  -8  451.21   10.74
   4  -3  -8  476.82   11.56
   4  -3  -8  507.80   19.41
  -4   3   8  536.46   19.41
  -4   3   8  525.25   19.85
   4  -3  -7 1921.75   78.64
   4  -3  -7 1717.60   70.30
   4  -3  -7 2138.61  110.77
  -4   3   7 2191.68  113.24
  -4   3   7 2174.70  108.24
   4  -3  -6   84.49    1.47
   4  -3  -6   98.38    3.20
  -4   3   6   90.30    1.68
  -4   3   6   89.85    3.81
  -4   3   6   93.65    2.71
   4  -3  -5  110.94    4.22
   4  -3  -5  107.23    2.08
  -4   3   5  100.42    1.88
  -4   3   5  103.68    4.09
  -4   3   5  109.56    3.21
   4  -3  -4 3305.33  201.08
   4  -3  -4 3097.53  166.04
  -4   3   4 3132.00  166.50
  -4   3   4 3177.73  190.32
  -4   3   4 3270.56  183.14
   4  -3  -3 7417.98  596.48
  -4   3   3 6649.59  575.20
   4  -3  -2  330.18    8.55
   4  -3  -2  348.48    7.76
   4  -3  -2  328.24    9.92
  -4   3   2  323.67    7.24
  -4   3   2  330.53   10.73
   4  -3  -1 5020.39  365.50
  -4   3   1 5081.56  370.70
   4  -3   0 2166.96  105.73
   4  -3   0 2028.26   80.80
   4  -3   0 2133.45   85.43
  -4   3   0 2178.55  110.83
   4  -3   1  174.57    4.69
   4  -3   1  165.17    2.46
   4  -3   1  164.31    2.46
  -4   3  -1  177.49    4.82
   4  -3   2   62.67    2.20
   4  -3   2   60.04    0.97
  -4   3  -2   68.89    2.12
  -4   3  -2   57.06    1.91
   4  -3   3    4.70    0.29
   4  -3   3    4.31    0.27
   4  -3   3    6.13    0.89
  -4   3  -3    5.73    0.72
  -4   3  -3    6.06    0.59
   4  -3   4  167.75    6.18
   4  -3   4  156.00    3.61
  -4   3  -4  164.17    5.56
  -4   3  -4  160.65    5.12
   4  -3   5  392.73   14.02
   4  -3   5  361.89    9.98
  -4   3  -5  405.87   14.31
  -4   3  -5  390.75   12.14
   4  -3   6   32.01    2.46
   4  -3   6   29.48    1.24
  -4   3  -6   29.89    1.59
  -4   3  -6   33.23    1.37
   4  -3   7    0.97    0.45
   4  -3   7    2.15    0.76
  -4   3  -7    2.34    0.61
  -4   3  -7    1.82    0.72
   4  -3   8  123.47    4.37
  -4   3  -8  143.14    6.46
  -4   3  -8  137.22    5.75
   4  -3   9   68.37    2.94
  -4   3  -9   73.86    3.98
  -4   3  -9   66.75    3.56
   4  -3  10  252.69   11.71
  -4   3 -10  237.09   11.11
  -4   3 -10  212.82    9.76
   4  -3  11    3.29    1.59
  -4   3 -11    2.30    1.10
  -4   3 -11    1.67    0.95
   4  -3  12  439.27   24.96
  -4   3 -12  361.95   17.97
  -4   3 -12  403.31   21.15
   4  -3  13    2.66    1.42
  -4   3 -13    1.78    0.95
  -4   3 -13    2.58    1.19
   4  -3  14    2.42    1.74
  -4   3 -14    1.10    1.45
  -4   3 -14   -0.57    1.17
   4  -2 -18  169.58   14.84
  -4   2  18  154.99   15.97
   4  -2 -17    4.85    2.20
  -4   2  17    0.01    2.35
  -4   2  17    2.93    1.89
   4  -2 -16   11.02    2.20
  -4   2  16    7.88    2.46
  -4   2  16    9.84    2.39
   4  -2 -15  388.23   22.72
  -4   2  15  361.99   20.91
  -4   2  15  393.52   21.11
   4  -2 -14  429.66   23.08
  -4   2  14  417.54   22.46
  -4   2  14  460.51   22.82
   4  -2 -13  467.24   23.88
  -4   2  13  469.72   23.58
  -4   2  13  501.49   23.56
   4  -2 -12   86.63    5.30
  -4   2  12   84.82    4.13
  -4   2  12   85.34    4.72
   4  -2 -11  483.38   15.28
   4  -2 -11  548.99   23.89
  -4   2  11  536.67   24.75
  -4   2  11  518.94   22.98
   4  -2 -10 3453.19  210.78
   4  -2 -10 3842.48  269.42
  -4   2  10 3646.82  255.64
   4  -2  -9   19.96    0.64
   4  -2  -9   24.95    1.91
  -4   2   9   25.18    1.86
   4  -2  -8   64.56    1.41
   4  -2  -8   64.15    1.41
   4  -2  -8   65.06    3.26
  -4   2   8   63.76    3.13
   4  -2  -7   41.10    2.18
  -4   2   7   36.79    2.09
   4  -2  -6  676.67   18.82
   4  -2  -6  669.01   25.07
  -4   2   6  623.17   17.04
  -4   2   6  671.21   22.72
  -4   2   6  654.21   24.48
   4  -2  -5  212.34    4.38
   4  -2  -5  214.18    7.29
  -4   2   5  213.44    7.17
  -4   2   5  219.71    6.45
   4  -2  -4  112.67    2.15
   4  -2  -4  113.04    3.28
  -4   2   4  115.31    3.12
  -4   2   4  110.61    2.03
  -4   2   4  114.00    3.82
   4  -2  -3   85.56    1.79
   4  -2  -3   88.66    3.12
  -4   2   3   99.96    2.04
  -4   2   3   87.72    3.12
  -4   2   3   86.66    2.16
   4  -2  -2 1084.71   42.94
   4  -2  -2 1081.31   38.03
   4  -2  -2 1157.37   38.22
  -4   2   2 1077.10   42.71
  -4   2   2 1111.47   37.80
   4  -2  -1  383.14   10.20
   4  -2  -1  383.96   10.86
   4  -2  -1  401.59    8.99
  -4   2   1  368.64   10.63
  -4   2   1  360.36    7.93
   4  -2   0  589.71   18.29
   4  -2   0  620.43   15.44
  -4   2   0  601.72   19.78
  -4   2   0  573.23   14.45
   4  -2   1   12.88    0.72
   4  -2   1   15.52    0.35
   4  -2   1   13.03    0.33
  -4   2  -1   15.09    0.79
   4  -2   2   92.85    1.68
   4  -2   2   99.07    3.20
   4  -2   2   94.27    1.72
  -4   2  -2   96.60    2.62
   4  -2   3   29.05    1.36
  -4   2  -3   33.80    1.45
   4  -2   4  557.76   20.14
   4  -2   4  512.67   14.31
  -4   2  -4  560.69   18.44
  -4   2  -4  551.86   17.43
   4  -2   5   19.45    1.56
   4  -2   5   18.20    0.81
  -4   2  -5   19.67    0.92
  -4   2  -5   20.52    1.28
   4  -2   6  321.93    9.31
   4  -2   6  347.80   13.21
  -4   2  -6  322.96   11.27
  -4   2  -6  342.87   11.36
   4  -2   7    1.80    0.56
  -4   2  -7    1.81    0.78
  -4   2  -7    3.63    0.73
   4  -2   8 1026.68   43.42
  -4   2  -8 1092.77   48.81
  -4   2  -8  983.36   42.77
   4  -2   9  100.91    4.18
  -4   2  -9   95.60    3.87
  -4   2  -9   96.66    4.41
   4  -2  10   79.65    5.14
   4  -2  10   58.56    3.64
  -4   2 -10   73.29    3.45
  -4   2 -10   70.38    3.32
   4  -2  11  360.75   16.52
   4  -2  11  337.99   14.62
  -4   2 -11  338.19   15.37
  -4   2 -11  332.16   13.59
   4  -2  12   34.95    3.17
   4  -2  12   45.63    4.38
  -4   2 -12   48.31    3.50
  -4   2 -12   35.90    2.56
   4  -2  13  106.92    7.10
  -4   2 -13  102.08    6.46
  -4   2 -13  112.29    7.24
   4  -2  14  131.73    9.72
  -4   2 -14  109.06    6.45
  -4   2 -14   99.55    7.16
   4  -2  15   27.20    5.05
  -4   2 -15   40.10    3.42
  -4   2 -15   27.85    4.07
   4  -1 -18   34.05    6.18
  -4   1  18   38.00    5.40
   4  -1 -17  337.86   23.57
  -4   1  17  356.98   26.63
   4  -1 -16   49.03    6.06
  -4   1  16   45.74    4.83
  -4   1  16   49.11    6.16
   4  -1 -15   50.00    4.07
  -4   1  15   46.12    4.35
  -4   1  15   45.12    5.67
   4  -1 -14    6.91    1.98
  -4   1  14    5.06    1.66
  -4   1  14    4.79    2.07
   4  -1 -13   12.15    2.16
  -4   1  13    9.11    1.38
  -4   1  13   10.01    2.35
   4  -1 -12  789.34   31.02
   4  -1 -12  830.55   41.97
  -4   1  12  830.54   40.19
  -4   1  12  847.89   40.64
   4  -1 -11    9.33    0.70
   4  -1 -11    9.61    1.69
  -4   1  11    9.81    1.48
  -4   1  11    8.21    1.83
   4  -1 -10  175.03    4.96
   4  -1 -10  193.72    7.19
  -4   1  10  190.30    7.67
  -4   1  10  194.59    7.57
   4  -1  -9  228.25    6.10
   4  -1  -9  240.82    9.62
  -4   1   9  246.10    9.32
  -4   1   9  241.76    8.63
   4  -1  -8  128.66    3.23
   4  -1  -8  138.89    4.64
  -4   1   8  137.44    5.21
   4  -1  -7  246.68    5.87
   4  -1  -7  258.78    9.21
  -4   1   7  253.53    8.61
   4  -1  -6 1572.07   62.81
   4  -1  -6 1574.98   73.97
  -4   1   6 1540.06   69.52
   4  -1  -5   58.45    1.26
   4  -1  -5   66.34    2.49
  -4   1   5   61.42    1.32
  -4   1   5   62.43    1.97
   4  -1  -4   25.77    1.33
  -4   1   4   29.13    1.20
  -4   1   4   23.15    1.04
   4  -1  -3    4.83    0.37
   4  -1  -3    5.96    0.67
  -4   1   3    4.18    0.33
  -4   1   3    5.49    0.50
  -4   1   3    5.78    0.65
   4  -1  -2 1509.73   60.92
   4  -1  -2 1682.62   67.11
   4  -1  -2 1588.65   69.40
  -4   1   2 1523.04   65.27
  -4   1   2 1695.96   67.41
  -4   1   2 1582.46   63.75
   4  -1  -1  500.31   13.90
   4  -1  -1  531.71   13.22
  -4   1   1  498.46   14.67
  -4   1   1  508.76   13.03
   4  -1   0 1029.48   37.24
   4  -1   0 1116.80   35.98
  -4   1   0 1058.63   39.68
  -4   1   0 1053.23   34.29
   4  -1   1  267.39    7.25
   4  -1   1  283.60    5.65
  -4   1  -1  265.97    7.34
  -4   1  -1  249.85    5.02
   4  -1   2  409.58    9.75
   4  -1   2  398.53   11.28
   4  -1   2  417.18    9.67
  -4   1  -2  409.64   11.75
  -4   1  -2  395.46   10.94
   4  -1   3   25.10    0.66
   4  -1   3   27.92    1.16
  -4   1  -3   32.65    1.21
   4  -1   4   79.16    3.04
   4  -1   4   76.10    1.75
  -4   1  -4   74.25    2.42
   4  -1   5 1554.71   72.26
   4  -1   5 1505.35   62.58
  -4   1  -5 1511.30   64.92
   4  -1   6  296.28    9.62
   4  -1   6  282.33    8.27
  -4   1  -6  295.40    9.21
  -4   1  -6  288.62    8.67
   4  -1   7  121.62    3.92
  -4   1  -7  120.97    4.22
  -4   1  -7  123.22    4.56
   4  -1   8    4.25    0.79
  -4   1  -8    5.42    0.69
  -4   1  -8    3.68    0.84
   4  -1   9 2155.98  120.04
   4  -1   9 2291.06  136.70
  -4   1  -9 2175.86  124.55
  -4   1  -9 2218.19  125.01
   4  -1  10    5.43    1.59
   4  -1  10    6.75    1.21
  -4   1 -10    6.84    0.94
  -4   1 -10    6.62    1.26
   4  -1  11   79.32    4.47
   4  -1  11  102.40    5.52
  -4   1 -11   74.71    4.59
  -4   1 -11   74.26    4.43
   4  -1  12   66.48    4.56
   4  -1  12   93.69    5.78
  -4   1 -12   66.01    3.76
  -4   1 -12   95.20    4.77
   4  -1  13  319.58   15.96
   4  -1  13  310.68   15.46
  -4   1 -13  293.63   14.52
  -4   1 -13  285.98   14.76
   4  -1  14   32.51    3.82
   4  -1  14   37.13    3.57
  -4   1 -14   40.04    2.98
  -4   1 -14   37.40    3.77
   4  -1  15   10.43    2.93
  -4   1 -15   11.67    2.48
  -4   1 -15   11.17    2.51
   4  -1  16    9.97    3.11
  -4   1 -16   15.82    2.80
  -4   1 -16    8.14    2.78
   4   0 -17   29.96    3.94
  -4   0  17   25.84    5.62
   4   0 -16  112.53    7.43
  -4   0  16   98.45    8.19
   4   0 -15  257.97   14.32
  -4   0  15  265.93   15.19
   4   0 -14  358.13   20.37
  -4   0  14  333.95   17.19
  -4   0  14  354.31   18.76
   4   0 -13  187.45   10.75
  -4   0  13  173.87    9.17
  -4   0  13  192.55   11.63
   4   0 -12   18.18    1.55
   4   0 -12   29.37    2.82
  -4   0  12   23.81    2.97
  -4   0  12   23.57    2.18
   4   0 -11   70.63    2.90
   4   0 -11   73.89    3.84
  -4   0  11   73.51    3.96
  -4   0  11   79.39    5.01
   4   0 -10  186.17    6.01
   4   0 -10  196.63    8.88
  -4   0  10  193.01    7.78
  -4   0  10  199.15    7.92
   4   0  -9    3.76    0.50
   4   0  -9    3.02    0.80
  -4   0   9    3.07    0.84
  -4   0   9    3.46    0.85
   4   0  -8  414.74   12.33
   4   0  -8  421.78   14.84
  -4   0   8  428.04   14.97
  -4   0   8  430.09   16.69
   4   0  -7  831.91   28.51
   4   0  -7  856.41   34.70
  -4   0   7  849.01   32.63
  -4   0   7  851.73   35.13
   4   0  -6  217.22    5.42
   4   0  -6  229.15    7.81
  -4   0   6  236.65    8.24
  -4   0   6  229.73    7.16
   4   0  -5  183.32    4.19
   4   0  -5  186.87    5.32
  -4   0   5  180.89    5.39
   4   0  -4  783.25   27.67
   4   0  -4  791.76   24.35
  -4   0   4  766.74   26.58
   4   0  -3  753.34   22.33
   4   0  -3  739.99   24.86
  -4   0   3  701.36   22.57
   4   0  -2   68.26    1.62
  -4   0   2   64.44    1.65
   4   0  -1 1354.39   51.77
   4   0  -1 1487.49   55.24
  -4   0   1 1286.00   50.40
  -4   0   1 1363.72   51.34
   4   0   0  310.09    7.99
   4   0   0  349.13    7.84
  -4   0   0  317.48    7.36
  -4   0   0  311.60    7.82
   4   0   1  726.26   23.45
   4   0   1  787.81   22.67
  -4   0  -1  710.33   23.06
  -4   0  -1  719.33   20.97
   4   0   2 3853.00  244.25
   4   0   2 4099.78  245.09
  -4   0  -2 3966.44  245.20
  -4   0  -2 3863.21  242.68
   4   0   3  137.07    2.91
   4   0   3  147.91    3.76
   4   0   3  147.24    3.13
  -4   0  -3  138.31    3.40
  -4   0  -3  138.53    3.36
   4   0   4  260.57    8.18
   4   0   4  259.14    6.58
  -4   0  -4  267.42    6.95
  -4   0  -4  268.72    7.00
   4   0   5 1596.58   74.69
   4   0   5 1576.66   67.88
  -4   0  -5 1625.69   69.69
   4   0   6 1103.02   43.57
  -4   0  -6 1131.29   44.02
   4   0   7    2.40    0.69
  -4   0  -7    3.58    0.61
  -4   0  -7    5.15    0.76
   4   0   8   20.17    1.46
  -4   0  -8   20.08    1.33
  -4   0  -8   23.89    1.58
   4   0   9  489.42   19.00
   4   0   9  509.90   21.38
  -4   0  -9  508.36   18.83
  -4   0  -9  518.13   20.14
   4   0  10  488.51   19.92
   4   0  10  497.86   22.09
  -4   0 -10  476.47   18.66
  -4   0 -10  498.98   20.36
   4   0  11    4.27    1.14
   4   0  11    3.33    1.05
  -4   0 -11    4.00    0.92
  -4   0 -11    4.42    1.03
   4   0  12  144.37    7.43
   4   0  12  140.40    6.66
  -4   0 -12  146.34    7.72
  -4   0 -12  139.16    6.53
   4   0  13   39.44    3.60
   4   0  13   33.78    3.03
  -4   0 -13   39.17    3.04
  -4   0 -13   42.35    2.66
   4   0  14    3.51    1.39
   4   0  14    4.37    1.69
  -4   0 -14    7.09    1.52
  -4   0 -14    3.32    1.67
   4   0  15   64.67    6.01
   4   0  15   58.40    5.80
  -4   0 -15   56.22    4.90
  -4   0 -15   63.24    5.47
   4   0  16   16.76    3.40
  -4   0 -16   15.95    2.96
  -4   0 -16   18.75    3.15
   4   1 -17   54.62    7.42
  -4  -1  17   51.14    6.24
   4   1 -16  192.19   15.31
  -4  -1  16  190.18   13.06
   4   1 -15  108.44    9.46
  -4  -1  15  111.05    7.88
   4   1 -14  358.97   20.75
  -4  -1  14  341.49   18.85
   4   1 -13  268.10   11.68
   4   1 -13  304.79   16.27
  -4  -1  13  263.58   12.93
  -4  -1  13  301.28   17.15
   4   1 -12 1088.99   51.76
   4   1 -12 1173.61   60.39
  -4  -1  12 1197.12   66.37
  -4  -1  12 1087.64   54.62
   4   1 -11   86.52    3.93
   4   1 -11   97.02    5.87
  -4  -1  11   86.95    4.02
  -4  -1  11  122.47    6.16
   4   1 -10   14.94    1.26
   4   1 -10   14.26    1.50
  -4  -1  10   15.40    1.46
  -4  -1  10   12.76    2.10
   4   1  -9    7.47    0.92
   4   1  -9    9.24    1.06
  -4  -1   9    7.40    1.54
  -4  -1   9    8.06    1.04
   4   1  -8  345.24   10.75
   4   1  -8  375.24   14.12
  -4  -1   8  361.15   13.01
  -4  -1   8  350.69   11.79
   4   1  -7   47.56    1.81
   4   1  -7   59.40    2.60
  -4  -1   7   47.07    2.22
  -4  -1   7   47.16    2.10
   4   1  -6    4.91    0.57
   4   1  -6    6.03    0.66
  -4  -1   6    4.07    0.92
  -4  -1   6    3.53    0.65
   4   1  -5   39.36    1.38
   4   1  -5   39.70    1.55
  -4  -1   5   36.36    1.52
  -4  -1   5   43.49    2.10
   4   1  -4  334.93    8.65
   4   1  -4  331.91   10.00
  -4  -1   4  318.82    8.93
  -4  -1   4  326.72    9.33
   4   1  -3  480.53   13.25
  -4  -1   3  477.24   13.57
   4   1  -2   19.10    0.77
  -4  -1   2   20.48    0.80
   4   1  -1  265.72    6.35
  -4  -1   1  251.21    5.76
   4   1   0  685.35   20.91
  -4  -1   0  731.31   21.24
  -4  -1   0  669.00   20.30
   4   1   1 2271.51  111.51
   4   1   1 2271.67  108.14
   4   1   1 2481.02  116.92
  -4  -1  -1 2272.92  110.05
  -4  -1  -1 2414.70  114.52
   4   1   2    8.49    0.55
   4   1   2   10.22    0.48
  -4  -1  -2    9.10    0.64
  -4  -1  -2   11.07    0.54
  -4  -1  -2   10.39    0.52
   4   1   3  206.05    5.41
   4   1   3  229.57    5.43
  -4  -1  -3  227.23    5.10
  -4  -1  -3  223.43    5.74
   4   1   4   30.52    1.42
   4   1   4   32.19    1.05
  -4  -1  -4   28.00    0.95
   4   1   5  202.41    5.69
  -4  -1  -5  211.58    5.14
  -4  -1  -5  211.65    5.54
   4   1   6    6.45    0.72
  -4  -1  -6    6.12    0.57
   4   1   7   55.67    2.31
  -4  -1  -7   58.05    1.83
   4   1   8  157.14    5.94
   4   1   8  154.90    5.42
  -4  -1  -8  145.82    4.44
   4   1   9   46.15    2.04
   4   1   9   59.62    2.89
  -4  -1  -9   46.11    2.01
  -4  -1  -9   46.89    2.11
   4   1  10  171.59    7.10
   4   1  10  167.25    7.56
  -4  -1 -10  170.18    6.02
  -4  -1 -10  176.37    7.17
   4   1  11  165.52    7.63
   4   1  11  158.04    6.32
  -4  -1 -11  157.74    6.15
  -4  -1 -11  161.59    6.37
   4   1  12    1.16    1.18
   4   1  12    2.62    1.18
  -4  -1 -12    2.15    0.90
  -4  -1 -12    3.43    1.15
   4   1  13   44.67    3.56
   4   1  13   42.64    3.63
  -4  -1 -13   39.77    2.92
  -4  -1 -13   41.11    3.45
   4   1  14   47.17    4.28
   4   1  14   46.45    4.25
  -4  -1 -14   44.25    3.30
  -4  -1 -14   46.14    4.06
   4   1  15   52.01    5.02
   4   1  15   47.83    3.75
  -4  -1 -15   44.92    3.88
  -4  -1 -15   54.56    4.85
   4   1  16   45.80    5.41
   4   1  16   47.31    4.05
  -4  -1 -16   43.39    4.59
  -4  -1 -16   52.18    5.22
   4   1  17    5.26    2.49
   4   1  17    9.90    2.77
  -4  -1 -17    9.78    2.70
   4   2 -16    9.14    3.29
  -4  -2  16    8.89    2.58
   4   2 -15    3.76    1.63
  -4  -2  15    1.70    1.68
   4   2 -14    4.53    1.65
  -4  -2  14    3.94    1.66
   4   2 -13    4.87    1.35
   4   2 -13    6.26    2.01
  -4  -2  13    4.69    2.12
   4   2 -12   36.56    2.58
   4   2 -12   36.29    2.88
  -4  -2  12   27.90    2.48
  -4  -2  12   42.15    3.08
   4   2 -11   78.72    3.95
   4   2 -11   81.94    4.43
  -4  -2  11   70.29    3.79
  -4  -2  11  100.02    5.53
   4   2 -10   52.20    2.68
   4   2 -10   48.90    3.61
  -4  -2  10   50.33    2.57
  -4  -2  10   42.63    3.90
   4   2  -9   62.20    2.51
   4   2  -9   55.21    2.60
  -4  -2   9   43.52    2.30
  -4  -2   9   45.34    2.78
   4   2  -8   16.27    1.22
   4   2  -8   14.71    1.25
  -4  -2   8   13.01    1.07
  -4  -2   8   15.01    1.76
   4   2  -7  611.95   21.60
   4   2  -7  616.18   22.69
  -4  -2   7  641.29   25.86
  -4  -2   7  611.89   20.73
   4   2  -6  795.65   28.81
   4   2  -6  807.60   31.77
  -4  -2   6  815.97   33.23
  -4  -2   6  777.14   27.07
   4   2  -5  542.56   17.22
   4   2  -5  532.15   17.46
  -4  -2   5  536.55   16.23
  -4  -2   5  550.29   18.67
   4   2  -4  169.15    4.66
  -4  -2   4  168.16    5.64
  -4  -2   4  169.79    4.22
   4   2  -3  227.45    5.95
   4   2  -3  245.89    5.52
  -4  -2   3  224.30    6.08
  -4  -2   3  223.45    5.27
   4   2  -2   34.04    1.14
   4   2  -2   31.19    0.90
  -4  -2   2   32.57    1.07
  -4  -2   2   28.43    0.81
   4   2  -1  291.49    6.68
   4   2  -1  265.79    6.33
  -4  -2   1  275.83    7.24
  -4  -2   1  266.70    6.07
   4   2   0  304.69    7.07
   4   2   0  272.86    7.13
   4   2   0  278.38    6.52
  -4  -2   0  277.65    6.53
  -4  -2   0  303.97    6.71
   4   2   1 1207.65   46.07
   4   2   1 1220.03   43.30
  -4  -2  -1 1309.11   45.23
  -4  -2  -1 1218.09   44.12
   4   2   2  532.34   15.66
   4   2   2  546.39   14.04
  -4  -2  -2  541.56   15.32
  -4  -2  -2  575.75   14.47
  -4  -2  -3 5422.17  367.39
  -4  -2  -3 4982.75  336.74
   4   2   4  640.13   21.09
   4   2   4  635.38   20.05
  -4  -2  -4  629.94   17.08
  -4  -2  -4  663.65   18.60
  -4  -2  -4  653.76   19.72
   4   2   5  194.53    4.89
  -4  -2  -5  197.17    4.22
  -4  -2  -5  206.21    5.64
   4   2   6  897.67   33.59
  -4  -2  -6  892.62   29.06
  -4  -2  -6  918.70   34.18
   4   2   7 2193.69  114.95
   4   2   7 2219.51  114.13
  -4  -2  -7 2204.68  105.10
  -4  -2  -7 2240.37  116.25
   4   2   8   93.36    3.12
   4   2   8   98.73    3.73
  -4  -2  -8   88.96    2.64
   4   2   9   14.59    1.37
   4   2   9   14.47    1.13
  -4  -2  -9   14.37    0.94
   4   2  10  340.08   13.58
   4   2  10  339.55   13.55
  -4  -2 -10  333.50   10.94
   4   2  11   72.58    3.95
   4   2  11   78.37    4.07
  -4  -2 -11   74.88    4.14
  -4  -2 -11   66.79    2.96
   4   2  12   35.98    3.04
   4   2  12   37.32    3.18
  -4  -2 -12   44.66    2.30
  -4  -2 -12   40.01    3.12
   4   2  13  128.59    7.30
   4   2  13  141.07    6.83
  -4  -2 -13  131.13    5.98
  -4  -2 -13  152.43    8.25
   4   2  14  101.90    6.50
   4   2  14   96.78    5.86
  -4  -2 -14   84.34    4.93
  -4  -2 -14   97.68    6.31
   4   2  15   22.19    3.23
   4   2  15   21.81    2.18
  -4  -2 -15   18.47    2.39
  -4  -2 -15   19.00    3.13
   4   2  16  278.17   17.27
   4   2  16  301.22   18.54
  -4  -2 -16  283.31   15.32
   4   2  17   54.64    5.78
   4   2  17   67.51    6.60
  -4  -2 -17   62.00    6.34
   4   3 -16  181.19   15.71
  -4  -3  16  162.30   12.87
   4   3 -15    7.65    2.25
  -4  -3  15    7.76    2.32
   4   3 -14    8.77    2.06
   4   3 -14   12.57    2.91
  -4  -3  14   10.37    2.39
   4   3 -13  119.52    5.94
   4   3 -13  137.62    9.50
  -4  -3  13  135.61    9.74
   4   3 -12  188.11    9.36
   4   3 -12  199.81   11.86
  -4  -3  12  192.21   10.15
   4   3 -11   37.15    2.80
   4   3 -11   34.55    2.77
  -4  -3  11   38.80    2.90
   4   3 -10   14.25    1.62
   4   3 -10   15.48    2.11
  -4  -3  10   10.00    1.22
  -4  -3  10   17.05    1.73
   4   3  -9  185.98    7.26
   4   3  -9  184.82    8.44
  -4  -3   9  162.56    5.67
  -4  -3   9  182.07    8.79
   4   3  -8   55.24    2.50
   4   3  -8   49.76    2.36
  -4  -3   8   49.94    2.54
  -4  -3   8   41.05    1.69
   4   3  -7  439.09   15.69
   4   3  -7  456.12   17.45
  -4  -3   7  435.47   13.25
  -4  -3   7  448.45   16.35
   4   3  -6  186.12    5.98
   4   3  -6  193.18    6.84
  -4  -3   6  177.31    6.11
  -4  -3   6  173.91    4.52
   4   3  -5  278.13    7.77
  -4  -3   5  256.46    6.48
  -4  -3   5  279.43    9.65
   4   3  -4  338.03   10.44
  -4  -3   4  384.55    9.20
  -4  -3   4  347.24    8.67
  -4  -3   4  355.92   12.12
   4   3  -3 3653.15  223.41
   4   3  -3 3679.83  207.52
  -4  -3   3 3623.59  227.22
  -4  -3   3 3550.62  204.64
   4   3  -2  164.40    3.90
   4   3  -2  162.85    3.19
  -4  -3   2  144.87    2.90
  -4  -3   2  159.64    4.65
   4   3  -1  319.70    8.27
   4   3  -1  349.53    7.90
   4   3  -1  322.96    8.14
  -4  -3   1  328.33    8.70
  -4  -3   1  321.13    7.06
   4   3   0  703.89   19.62
   4   3   0  630.71   17.99
   4   3   0  637.22   20.21
  -4  -3   0  736.09   20.20
  -4  -3   0  634.69   17.52
  -4  -3   0  646.16   20.73
   4   3   1 1849.89   83.43
   4   3   1 1947.18   81.96
   4   3   1 1859.92   76.84
  -4  -3  -1 1959.12   79.47
  -4  -3  -1 1830.48   81.74
  -4  -3  -1 1800.03   75.57
   4   3   2  873.36   29.62
   4   3   2  903.95   26.31
  -4  -3  -2  879.89   27.51
  -4  -3  -2  908.17   26.26
   4   3   4  306.38    8.38
  -4  -3  -4  277.34    5.34
  -4  -3  -4  303.52    7.91
  -4  -3  -4  303.19    6.26
   4   3   5   93.55    2.50
  -4  -3  -5   91.38    1.67
  -4  -3  -5   90.81    1.57
  -4  -3  -5   93.66    2.36
   4   3   6  355.90    8.15
   4   3   6  363.68   11.31
  -4  -3  -6  359.54    8.16
  -4  -3  -6  377.89   10.61
   4   3   7  258.09    8.42
   4   3   7  255.29    8.29
  -4  -3  -7  259.01    7.49
  -4  -3  -7  253.49    5.90
   4   3   8  499.07   17.89
   4   3   8  511.19   18.83
  -4  -3  -8  522.73   18.42
  -4  -3  -8  497.14   14.14
   4   3   9  216.57    7.44
   4   3   9  208.11    7.09
  -4  -3  -9  206.01    5.41
   4   3  10   44.82    2.31
   4   3  10   48.37    2.56
  -4  -3 -10   35.75    1.52
   4   3  11  102.31    4.28
   4   3  11  105.01    4.07
  -4  -3 -11  102.93    3.58
   4   3  12  152.14    7.07
   4   3  12  155.68    6.62
  -4  -3 -12  162.45    6.77
  -4  -3 -12  151.00    5.55
   4   3  13   98.24    5.54
   4   3  13  105.63    6.26
  -4  -3 -13  100.35    4.39
  -4  -3 -13  108.07    5.09
   4   3  14  206.56   10.51
   4   3  14  220.49   12.35
  -4  -3 -14  202.59    8.71
  -4  -3 -14  217.53   11.84
   4   3  15   73.91    6.24
   4   3  15   71.08    4.07
  -4  -3 -15   68.12    4.11
  -4  -3 -15   83.10    4.82
   4   3  16    5.76    1.83
   4   3  16    8.11    2.35
  -4  -3 -16    5.21    2.26
   4   3  17   55.02    6.13
   4   3  17   47.91    4.92
  -4  -3 -17   59.89    5.92
   4   3  18    3.55    1.95
   4   3  18    5.06    2.50
  -4  -3 -18    4.99    2.45
   4   4 -15  108.72   10.62
  -4  -4  15   96.73   10.62
   4   4 -14   68.05    6.26
   4   4 -14   87.39    6.41
  -4  -4  14   84.37    8.32
   4   4 -13   99.63    6.84
   4   4 -13  102.96    8.60
  -4  -4  13  103.03    7.05
   4   4 -12  106.18    6.06
   4   4 -12   97.27    6.07
  -4  -4  12   85.84    7.76
   4   4 -11  234.26   11.51
   4   4 -11  255.40   11.94
  -4  -4  11  243.27   13.85
   4   4 -10    3.19    1.19
   4   4 -10    2.67    1.40
  -4  -4  10    3.29    1.44
   4   4  -9  472.12   20.04
   4   4  -9  489.22   22.67
  -4  -4   9  476.76   22.37
   4   4  -8    9.37    0.92
   4   4  -8    7.51    1.44
  -4  -4   8    6.43    1.49
  -4  -4   8    4.99    0.58
   4   4  -7 1700.54   84.89
   4   4  -7 1749.12   88.45
  -4  -4   7 1693.66   75.72
  -4  -4   7 1764.37   93.57
   4   4  -6  169.60    6.12
  -4  -4   6  159.37    3.90
  -4  -4   6  167.12    6.89
   4   4  -5   11.29    1.08
  -4  -4   5    8.74    0.54
  -4  -4   5   11.64    0.97
   4   4  -4 1191.31   49.25
  -4  -4   4 1246.24   54.39
  -4  -4   4 1297.40   44.75
  -4  -4   4 1189.58   41.90
   4   4  -3 2546.57  135.91
  -4  -4   3 2570.43  119.17
  -4  -4   3 2348.47  109.70
  -4  -4   3 2476.88  134.79
   4   4  -2 1694.87   76.43
   4   4  -2 1707.94   65.96
   4   4  -2 1647.97   72.31
  -4  -4   2 1641.97   74.29
   4   4  -1 1455.22   60.66
   4   4  -1 1492.47   59.74
   4   4  -1 1496.92   54.39
  -4  -4   1 1436.30   51.45
  -4  -4   1 1493.45   62.98
   4   4   0 1090.83   40.58
   4   4   0 1184.97   38.97
   4   4   0 1109.58   38.17
  -4  -4   0 1097.12   35.13
  -4  -4   0 1097.93   41.43
   4   4   1    8.73    0.53
   4   4   1    7.24    0.38
  -4  -4  -1    8.15    0.27
  -4  -4  -1    8.24    0.71
   4   4   2  556.39   17.18
   4   4   2  550.99   13.50
  -4  -4  -2  569.01   15.16
  -4  -4  -2  579.74   13.61
  -4  -4  -2  549.19   17.33
  -4  -4  -3 2242.47   92.52
  -4  -4  -3 2249.58  110.38
  -4  -4  -3 2241.55  103.25
   4   4   4   10.70    0.69
  -4  -4  -4   12.75    0.69
   4   4   5   80.58    2.42
  -4  -4  -5   88.68    1.33
  -4  -4  -5   83.04    2.55
   4   4   6 2095.99   87.20
   4   4   6 2082.76  100.62
   4   4   6 2204.95  110.16
  -4  -4  -6 2244.34  107.87
  -4  -4  -6 1832.12   75.60
   4   4   7  183.82    3.87
   4   4   7  186.76    6.42
   4   4   7  189.86    5.92
  -4  -4  -7  189.44    6.10
  -4  -4  -7  168.83    3.29
   4   4   8  360.15   12.27
   4   4   8  371.38   13.08
  -4  -4  -8  346.83    8.55
  -4  -4  -8  388.73   13.15
   4   4   9   27.99    1.90
   4   4   9   29.34    1.27
  -4  -4  -9   23.52    1.80
  -4  -4  -9   24.54    0.76
   4   4  10    4.20    0.86
   4   4  10    3.47    1.02
  -4  -4 -10    3.02    0.43
  -4  -4 -10    4.67    0.74
   4   4  11  273.32   11.62
   4   4  11  255.50    8.78
  -4  -4 -11  246.56    7.61
   4   4  12  405.09   16.74
   4   4  12  408.85   16.85
  -4  -4 -12  383.20   13.31
   4   4  13    7.07    1.37
   4   4  13    7.27    1.73
  -4  -4 -13    7.06    0.97
   4   4  14  449.36   21.07
   4   4  14  468.24   24.63
  -4  -4 -14  447.31   18.47
  -4  -4 -14  487.35   22.58
   4   4  15    8.50    2.21
   4   4  15    7.80    1.61
  -4  -4 -15    7.18    2.17
   4   4  16  344.23   18.87
   4   4  16  414.56   22.29
  -4  -4 -16  425.58   24.59
   4   4  17    7.60    1.81
   4   4  17    6.95    1.97
  -4  -4 -17    4.56    1.86
   4   4  18   78.33    7.32
   4   4  18  101.26    7.65
  -4  -4 -18  129.91   10.13
   4   5 -14  100.57    9.21
   4   5 -14   79.84    5.85
  -4  -5  14   78.37    6.78
   4   5 -13   20.16    2.41
   4   5 -13   18.54    2.75
  -4  -5  13   12.41    3.78
   4   5 -12  256.62   14.73
   4   5 -12  275.11   17.21
  -4  -5  12  251.03   14.06
   4   5 -11   11.08    2.04
   4   5 -11    8.72    1.77
  -4  -5  11    7.01    1.74
   4   5 -10   41.79    3.72
   4   5 -10   48.38    4.21
  -4  -5  10   47.21    3.26
   4   5  -9    7.16    1.62
   4   5  -9    9.04    1.75
  -4  -5   9    8.28    1.84
   4   5  -8    4.88    1.27
   4   5  -8    4.63    1.02
  -4  -5   8    4.81    1.39
   4   5  -7  623.06   26.63
  -4  -5   7  622.42   27.53
   4   5  -6 1012.13   43.72
  -4  -5   6  902.63   30.91
  -4  -5   6  990.19   44.35
   4   5  -5   25.80    1.93
  -4  -5   5   28.94    2.02
   4   5  -4 1206.41   51.49
  -4  -5   4 1237.26   55.13
   4   5  -3 1259.88   53.29
   4   5  -3 1220.00   50.19
  -4  -5   3 1096.23   35.32
  -4  -5   3 1256.76   53.62
  -4  -5   3 1205.63   37.58
   4   5  -2  184.48    5.84
   4   5  -2  184.44    5.26
  -4  -5   2  172.99    5.87
   4   5  -1  527.69   16.39
   4   5  -1  530.43   12.18
   4   5  -1  536.84   15.82
  -4  -5   1  469.74   10.12
  -4  -5   1  533.01   16.62
   4   5   0   17.38    1.17
   4   5   0   18.01    0.45
  -4  -5   0   20.22    0.92
   4   5   1  508.03   15.53
   4   5   1  533.54   13.88
   4   5   1  532.65   13.05
  -4  -5  -1  563.07   14.23
  -4  -5  -1  527.22   12.85
  -4  -5  -1  529.40   17.17
   4   5   2  259.92    5.40
   4   5   2  237.36    4.71
   4   5   2  231.42    6.18
  -4  -5  -2  248.30    5.37
  -4  -5  -2  261.73    4.98
  -4  -5  -2  239.04    7.10
   4   5   3  257.42    4.47
  -4  -5  -3  249.33    5.80
  -4  -5  -3  242.10    3.98
  -4  -5  -3  252.69    6.76
   4   5   4 1848.16   86.28
  -4  -5  -4 1878.85   82.48
   4   5   5  409.19   12.57
   4   5   5  414.96   13.53
  -4  -5  -5  411.99   11.97
   4   5   6  502.18   15.68
   4   5   6  537.76   18.56
  -4  -5  -6  525.56   15.83
   4   5   7  486.10   11.07
   4   5   7  510.54   16.44
   4   5   7  502.99   17.55
  -4  -5  -7  520.55   16.08
  -4  -5  -7  431.02    9.61
   4   5   8   60.50    1.22
   4   5   8   74.27    2.67
   4   5   8   71.57    3.20
  -4  -5  -8   72.73    2.97
  -4  -5  -8   67.45    1.39
   4   5   9  277.61   10.66
   4   5   9  262.41    8.69
  -4  -5  -9  292.99    9.94
  -4  -5  -9  249.03    5.90
   4   5  10  162.52    5.72
   4   5  10  166.53    6.95
  -4  -5 -10  151.37    3.75
  -4  -5 -10  160.76    5.60
   4   5  11   63.06    2.82
   4   5  11   58.49    3.00
  -4  -5 -11   63.89    2.80
   4   5  12   95.50    4.63
   4   5  12   95.56    4.23
  -4  -5 -12   89.26    2.91
  -4  -5 -12  105.47    4.66
   4   5  13  792.79   35.91
   4   5  13  823.29   39.24
  -4  -5 -13  748.64   30.05
   4   5  14  142.29    6.87
   4   5  14  148.18    7.60
   4   5  15   22.00    3.21
   4   5  15   17.38    2.19
  -4  -5 -15   24.70    3.08
   4   5  16   55.99    3.90
   4   5  16   56.89    5.85
  -4  -5 -16   51.45    5.65
   4   5  17   53.08    4.05
   4   5  17   54.14    6.37
  -4  -5 -17   52.03    4.77
   4   5  18   94.91    7.40
   4   5  18  130.80   11.14
  -4  -5 -18  128.61    8.72
   4   5  19   67.30    8.60
  -4  -5 -19   69.46    8.70
   4   6 -14   10.22    3.24
   4   6 -14   13.54    3.89
  -4  -6  14   11.34    3.51
   4   6 -13   21.15    3.83
   4   6 -13   25.71    4.39
  -4  -6  13   19.72    3.13
   4   6 -12   59.28    5.73
   4   6 -12   67.14    5.04
  -4  -6  12   57.86    6.29
   4   6 -11    8.07    1.70
   4   6 -11    9.06    2.51
  -4  -6  11    7.15    2.43
   4   6 -10  205.42   11.52
   4   6 -10  206.17   10.36
  -4  -6  10  205.20   12.14
   4   6  -9  314.90   15.68
   4   6  -9  316.76   16.60
  -4  -6   9  312.57   15.76
   4   6  -8   34.81    3.22
  -4  -6   8   36.45    2.57
   4   6  -7  186.43    7.45
  -4  -6   7  183.54    8.98
   4   6  -6  607.28   25.74
  -4  -6   6  565.66   22.92
   4   6  -5  131.25    4.86
  -4  -6   5  129.61    5.69
   4   6  -4  775.55   31.55
   4   6  -4  772.56   30.21
  -4  -6   4  739.30   30.50
   4   6  -3  192.77    6.32
   4   6  -3  197.47    6.57
  -4  -6   3  195.93    6.21
   4   6  -2 3737.97  242.19
   4   6  -2 3678.59  230.18
  -4  -6   2 3807.46  248.38
   4   6  -1  375.88   10.95
   4   6  -1  383.92   12.74
  -4  -6   1  380.70   12.66
   4   6   0 3806.92  206.59
   4   6   0 3673.07  231.41
   4   6   0 3665.34  218.89
  -4  -6   0 3755.25  238.76
  -4  -6   0 3447.31  184.93
   4   6   1  585.15   19.40
   4   6   1  564.28   15.51
   4   6   1  596.07   14.86
  -4  -6  -1  583.02   18.54
  -4  -6  -1  505.43   12.22
   4   6   2  163.15    3.09
   4   6   2  164.91    3.25
  -4  -6  -2  171.75    3.41
  -4  -6  -2  181.72    3.45
  -4  -6  -2  162.16    4.60
   4   6   3   53.14    0.91
  -4  -6  -3   54.33    0.84
  -4  -6  -3   59.55    1.43
  -4  -6  -3   59.03    2.26
   4   6   4   67.65    2.16
  -4  -6  -4   68.38    1.89
   4   6   5  772.47   29.23
   4   6   5  751.82   26.80
  -4  -6  -5  758.64   25.63
   4   6   6  127.75    3.91
   4   6   6  124.32    3.97
  -4  -6  -6  129.12    3.91
   4   6   7 2145.76  110.55
   4   6   7 2009.33   99.02
  -4  -6  -7 2107.22  103.93
   4   6   8 1682.58   62.81
   4   6   8 1875.36   90.53
   4   6   8 1808.81   84.05
  -4  -6  -8 1933.03   91.47
  -4  -6  -8 1435.52   53.87
   4   6   9  610.53   21.95
   4   6   9  621.62   25.81
  -4  -6  -9  590.60   16.38
  -4  -6  -9  628.68   24.54
   4   6  10  225.06    7.67
   4   6  10  223.95    8.14
  -4  -6 -10  197.16    4.70
  -4  -6 -10  226.03    7.75
   4   6  11   26.33    2.61
   4   6  11   35.56    1.61
  -4  -6 -11   26.74    0.92
  -4  -6 -11   34.54    1.91
   4   6  12    2.01    0.87
   4   6  12    2.76    0.74
  -4  -6 -12    1.47    0.38
  -4  -6 -12    1.72    1.08
   4   6  13   67.71    3.73
   4   6  13   96.82    4.32
  -4  -6 -13   99.56    5.43
   4   6  14   84.02    4.59
   4   6  14  120.75    6.72
   4   6  15    1.13    0.71
   4   6  15    0.49    1.04
   4   6  16  269.85   12.78
   4   6  16  319.21   18.87
   4   6  17   13.35    1.98
   4   6  17   14.13    3.55
  -4  -6 -17   18.01    2.67
   4   6  18    3.36    1.91
   4   6  18    4.79    1.44
  -4  -6 -18    4.18    2.54
   4   6  19   45.58    5.44
  -4  -6 -19   48.83    7.04
   4   7 -13  184.86   12.10
   4   7 -13  192.99   16.00
  -4  -7  13  174.36   14.89
   4   7 -12  425.17   27.61
   4   7 -12  453.44   27.07
  -4  -7  12  411.22   27.11
   4   7 -11    6.61    2.29
   4   7 -11    6.21    2.46
  -4  -7  11    6.66    2.29
   4   7 -10   71.42    4.85
  -4  -7  10   73.19    6.14
   4   7  -9  700.41   37.04
  -4  -7   9  664.96   32.60
   4   7  -8  136.10    7.91
  -4  -7   8  126.31    7.57
   4   7  -7   78.49    4.01
  -4  -7   7   75.08    3.85
   4   7  -6 1741.64   98.00
  -4  -7   6 1652.87   92.09
   4   7  -5  776.08   34.97
   4   7  -5  774.99   31.52
  -4  -7   5  739.17   31.11
   4   7  -4  236.10    8.54
   4   7  -4  236.11    8.91
  -4  -7   4  239.36    9.25
   4   7  -3 1254.01   59.55
   4   7  -3 1255.85   56.31
  -4  -7   3 1279.65   59.13
   4   7  -2  442.08   14.73
   4   7  -2  430.35   14.96
  -4  -7   2  441.34   16.07
   4   7  -1  384.08   13.09
   4   7  -1  424.86   13.11
  -4  -7   1  402.69   14.25
   4   7   0  186.69    5.57
   4   7   0  178.06    4.83
  -4  -7   0  193.03    6.46
   4   7   1  547.39   12.99
   4   7   1  539.97   15.28
  -4  -7  -1  474.77   11.31
  -4  -7  -1  550.44   18.74
   4   7   2  291.67    6.13
   4   7   2  276.42    6.38
  -4  -7  -2  288.09    9.35
  -4  -7  -2  279.56    6.38
   4   7   3  425.52   10.30
  -4  -7  -3  468.26   11.26
  -4  -7  -3  434.85   11.49
  -4  -7  -3  458.72   14.51
   4   7   4  204.00    5.70
  -4  -7  -4  204.66    5.26
   4   7   5  842.83   31.57
   4   7   5  867.11   32.90
  -4  -7  -5  852.41   30.27
   4   7   6    6.30    0.81
   4   7   6    8.63    1.04
  -4  -7  -6    6.29    0.60
   4   7   7   25.69    1.27
   4   7   7   29.54    2.08
  -4  -7  -7   35.37    1.72
   4   7   8   10.25    0.96
   4   7   8    9.29    1.35
  -4  -7  -8    8.97    1.19
   4   7   9  192.43    6.31
   4   7   9  198.21    7.10
  -4  -7  -9  202.78    7.64
   4   7  10  161.27    3.47
   4   7  10  177.13    5.93
   4   7  10  184.25    6.89
  -4  -7 -10  157.58    3.55
  -4  -7 -10  191.57    7.61
   4   7  11   51.56    2.34
   4   7  11   59.96    3.89
  -4  -7 -11   64.58    2.89
   4   7  12   26.37    1.67
   4   7  12   22.95    2.07
  -4  -7 -12   27.54    2.48
   4   7  13  413.09   16.33
   4   7  13  437.76   19.80
  -4  -7 -13  436.78   18.78
   4   7  14   72.42    5.32
   4   7  14   58.88    2.91
  -4  -7 -14   69.53    5.10
   4   7  15   31.93    2.33
   4   7  15   31.83    3.98
  -4  -7 -15   35.37    2.99
   4   7  16  127.13    6.67
   4   7  16  154.38   10.38
   4   7  17  261.59   13.08
   4   7  17  328.52   18.20
   4   7  18  120.03    7.69
   4   7  18  160.06   11.14
  -4  -7 -18  193.60   12.80
   4   7  19   53.15    6.57
  -4  -7 -19   79.17    8.23
   4   8 -12  261.54   16.66
   4   8 -12  293.60   21.81
  -4  -8  12  249.18   18.61
   4   8 -11  167.76   12.64
  -4  -8  11  148.76   11.87
   4   8 -10  285.39   18.40
  -4  -8  10  275.58   16.87
   4   8  -9  292.91   17.43
  -4  -8   9  289.78   16.60
   4   8  -8    5.31    1.98
  -4  -8   8    6.13    1.77
   4   8  -7  347.81   18.27
   4   8  -7  354.23   17.60
  -4  -8   7  348.13   14.97
   4   8  -6    6.20    1.68
   4   8  -6    7.07    1.13
  -4  -8   6    3.06    1.45
   4   8  -5   14.27    2.09
   4   8  -5   12.42    1.81
  -4  -8   5   14.20    1.79
   4   8  -4 1064.07   52.07
   4   8  -4 1049.87   48.82
  -4  -8   4  997.74   47.41
   4   8  -3  394.73   15.00
   4   8  -3  407.56   15.26
  -4  -8   3  395.92   15.69
   4   8  -2    8.93    1.10
   4   8  -2   10.99    0.83
  -4  -8   2   11.26    1.26
   4   8  -1   46.39    2.75
   4   8  -1   50.18    1.99
  -4  -8   1   53.33    2.59
   4   8   0  588.01   20.83
   4   8   0  561.81   18.76
  -4  -8   0  581.20   21.95
   4   8   1  673.67   18.23
   4   8   1  749.66   24.70
   4   8   1  723.95   18.79
  -4  -8  -1  744.93   28.33
   4   8   2  828.68   27.57
   4   8   2  892.72   26.86
  -4  -8  -2  849.03   33.85
  -4  -8  -2  804.02   25.34
   4   8   3   54.90    1.93
   4   8   3   48.73    1.08
  -4  -8  -3   50.19    1.25
  -4  -8  -3   53.79    1.98
   4   8   4  146.13    2.93
   4   8   4  159.69    5.22
  -4  -8  -4  143.02    2.91
  -4  -8  -4  158.88    4.85
  -4  -8  -4  151.38    3.98
   4   8   5  937.21   35.93
   4   8   5  809.05   23.54
  -4  -8  -5  934.56   34.11
   4   8   6  182.75    5.80
  -4  -8  -6  167.36    4.73
   4   8   7   40.35    2.07
  -4  -8  -7   47.81    2.11
   4   8   8  141.67    4.77
   4   8   8  148.58    5.32
  -4  -8  -8  139.31    5.26
   4   8   9   11.89    1.04
   4   8   9    8.01    1.51
  -4  -8  -9   10.80    1.04
   4   8  10   19.42    1.33
   4   8  10   22.93    2.15
  -4  -8 -10   20.94    1.88
   4   8  11  290.17    7.24
   4   8  11  343.17   11.88
   4   8  11  366.57   14.28
  -4  -8 -11  376.79   15.79
   4   8  12   31.33    1.61
   4   8  12   25.93    3.04
  -4  -8 -12   29.81    2.75
   4   8  13  340.92   12.41
   4   8  13  386.77   19.35
  -4  -8 -13  369.03   17.98
   4   8  14    1.73    0.82
   4   8  14    2.26    1.15
  -4  -8 -14    4.32    1.09
   4   8  15   83.67    5.23
   4   8  15   71.66    3.64
  -4  -8 -15   90.98    6.62
   4   8  16   10.96    1.37
   4   8  16    9.28    2.78
  -4  -8 -16   12.34    2.15
   4   8  17   86.54    7.66
   4   8  17   70.43    4.19
  -4  -8 -17   89.40    8.02
   4   8  18    5.86    2.75
   4   8  19   32.18    6.00
   4   9 -11   55.02    6.66
  -4  -9  11   39.57    4.46
   4   9 -10   32.69    4.76
  -4  -9  10   24.97    4.16
   4   9  -9  299.91   19.35
  -4  -9   9  279.29   16.97
   4   9  -8  941.10   52.59
   4   9  -8  993.74   57.01
  -4  -9   8  904.80   51.16
   4   9  -7   53.94    4.21
   4   9  -7   55.01    4.88
  -4  -9   7   54.79    4.53
   4   9  -6  128.89    8.08
   4   9  -6  115.28    5.93
  -4  -9   6  116.91    6.85
   4   9  -5   87.03    4.83
   4   9  -5   94.96    5.41
  -4  -9   5   86.85    5.21
   4   9  -4    7.59    1.44
   4   9  -4    9.07    1.77
  -4  -9   4    8.04    1.47
   4   9  -3  297.79   11.99
   4   9  -3  287.78   10.41
  -4  -9   3  298.98   12.19
   4   9  -2 1024.21   48.87
   4   9  -2 1008.26   44.27
  -4  -9   2  995.84   43.43
   4   9  -1  228.87    8.31
   4   9  -1  228.96    7.88
  -4  -9   1  220.91    8.57
   4   9   0 1179.45   50.68
  -4  -9   0 1206.98   55.78
   4   9   1  415.43   13.30
  -4  -9  -1  438.86   16.14
   4   9   2  186.19    4.01
   4   9   2  185.86    3.66
   4   9   2  164.13    4.39
  -4  -9  -2  179.28    6.78
   4   9   3    3.20    0.31
   4   9   3    3.46    0.83
  -4  -9  -3    1.99    0.31
  -4  -9  -3    2.78    0.82
   4   9   4   90.31    3.49
   4   9   4   78.57    1.71
  -4  -9  -4   78.56    2.24
  -4  -9  -4   86.97    3.59
   4   9   5  295.63   10.12
   4   9   5  288.08    6.91
   4   9   5  272.36    6.27
   4   9   5  305.67   10.08
  -4  -9  -5  291.37    8.65
   4   9   6  127.39    4.57
   4   9   6  123.52    2.35
  -4  -9  -6  126.42    4.18
   4   9   7  408.71   13.93
  -4  -9  -7  392.77   14.02
   4   9   8   55.54    2.33
  -4  -9  -8   49.10    2.07
   4   9   9  237.74    8.17
  -4  -9  -9  238.90    9.53
   4   9  10  204.54    9.33
   4   9  10  200.83    6.81
  -4  -9 -10  193.38    7.25
   4   9  11   26.95    1.69
   4   9  11   30.47    2.12
  -4  -9 -11   29.36    2.51
   4   9  12  770.95   31.32
   4   9  12  808.30   37.65
  -4  -9 -12  762.60   35.16
   4   9  13  511.68   20.24
   4   9  13  549.69   25.58
  -4  -9 -13  542.82   27.26
   4   9  14  456.89   17.44
   4   9  14  523.10   25.00
  -4  -9 -14  538.09   27.42
   4   9  15   29.37    3.42
   4   9  15   19.61    1.63
  -4  -9 -15   26.68    3.37
   4   9  16   18.62    1.73
   4   9  16   23.06    2.80
  -4  -9 -16   26.53    2.83
   4   9  17  132.05    6.52
   4   9  17  172.99   12.27
  -4  -9 -17  179.60   12.55
   4   9  18   48.85    6.71
  -4  -9 -18   53.76    6.64
   4   9  19   11.76    3.86
   4  10 -10   42.71    6.63
   4  10 -10   41.09    6.17
   4  10  -9    3.45    1.64
   4  10  -9    1.41    1.46
  -4 -10   9    2.84    1.73
   4  10  -8   26.77    3.31
   4  10  -8   25.37    3.11
  -4 -10   8   24.12    3.48
   4  10  -7    8.63    1.89
   4  10  -7    4.94    1.67
  -4 -10   7    8.18    1.96
   4  10  -6  468.58   24.08
   4  10  -6  457.93   24.33
  -4 -10   6  453.00   22.42
   4  10  -5  140.85    8.88
   4  10  -5  135.79    8.07
  -4 -10   5  133.92    7.39
   4  10  -4   55.24    3.52
   4  10  -4   53.16    3.78
  -4 -10   4   56.27    3.67
   4  10  -3  175.09    7.88
   4  10  -3  160.89    6.50
  -4 -10   3  170.30    7.82
   4  10  -2   79.55    3.95
   4  10  -2   68.78    5.08
  -4 -10   2   76.76    4.10
   4  10  -1   26.10    1.87
  -4 -10   1   27.40    2.19
   4  10   0  175.56    6.38
  -4 -10   0  178.86    7.33
   4  10   1    9.77    0.78
  -4 -10  -1    9.15    1.30
   4  10   2   25.91    1.58
   4  10   2   22.37    1.18
  -4 -10  -2   28.45    1.88
   4  10   3  425.20   15.91
   4  10   3  373.59   11.24
   4  10   3  379.51   10.41
  -4 -10  -3  400.36   15.45
   4  10   4   79.40    3.01
   4  10   4   73.38    1.90
   4  10   5  218.63    7.72
   4  10   5  187.87    4.41
   4  10   5  214.86    8.24
  -4 -10  -5  208.70    6.03
   4  10   6  120.31    3.80
   4  10   6  101.50    2.19
   4  10   6  122.82    5.16
   4  10   6  112.81    2.46
  -4 -10  -6  116.32    3.67
   4  10   7  204.55    6.44
   4  10   7  207.03    7.50
  -4 -10  -7  201.39    7.17
   4  10   8   59.26    2.58
   4  10   8   59.67    2.72
  -4 -10  -8   54.25    2.75
   4  10   9    5.36    0.89
  -4 -10  -9    5.64    1.11
   4  10  10   87.35    3.38
  -4 -10 -10   87.55    4.73
   4  10  11   96.84    3.80
  -4 -10 -11   96.83    5.41
   4  10  12   68.12    3.13
  -4 -10 -12   81.72    4.91
   4  10  13   49.08    2.46
   4  10  13   57.60    4.70
  -4 -10 -13   60.24    3.53
   4  10  14   40.20    3.19
   4  10  14   33.28    1.78
  -4 -10 -14   42.40    3.95
   4  10  15   18.29    1.58
   4  10  15   30.96    3.51
  -4 -10 -15   30.00    3.34
   4  10  16   15.94    1.29
   4  10  16   21.39    2.63
  -4 -10 -16   24.37    3.41
   4  10  17   43.53    5.46
  -4 -10 -17   41.25    5.52
   4  10  18    3.45    2.23
  -4 -10 -18    1.38    2.18
   4  10  19   21.46    4.99
  -4 -10 -19   22.35    3.81
   4  11  -9    3.49    2.69
   4  11  -9    5.16    2.49
   4  11  -8  169.83   11.63
   4  11  -8  162.40   10.61
   4  11  -7   13.50    2.43
   4  11  -7    9.14    2.12
  -4 -11   7   11.49    1.81
   4  11  -6    3.45    1.50
   4  11  -6    3.40    1.26
  -4 -11   6    2.57    1.46
   4  11  -5    3.83    1.25
   4  11  -5   -1.34    1.36
  -4 -11   5    2.56    1.23
   4  11  -4    4.81    1.42
   4  11  -4    3.43    1.42
  -4 -11   4    4.24    1.39
   4  11  -3  293.41   14.01
   4  11  -3  308.06   16.54
  -4 -11   3  289.38   13.43
   4  11  -2   61.97    3.61
   4  11  -2   52.07    3.58
  -4 -11   2   60.85    3.71
   4  11  -1   43.91    2.51
  -4 -11   1   38.08    2.86
   4  11   0   73.02    2.92
  -4 -11   0   75.18    4.02
   4  11   1  153.73    5.77
   4  11   1  167.39    6.77
  -4 -11  -1  160.47    6.87
   4  11   2  316.36   12.33
   4  11   2  299.99   10.47
  -4 -11  -2  313.61   12.94
   4  11   3  134.10    5.97
   4  11   3  115.33    3.71
   4  11   3  112.65    3.00
  -4 -11  -3  127.19    5.41
   4  11   4  143.68    5.94
   4  11   4  128.60    3.72
   4  11   4  130.40    3.58
   4  11   5    8.73    0.50
   4  11   5   10.63    1.09
   4  11   5   13.16    1.27
   4  11   5    8.20    0.73
   4  11   6   26.15    1.85
   4  11   6   20.79    0.81
   4  11   6   31.95    2.16
  -4 -11  -6   25.16    1.26
   4  11   7  229.06    8.46
   4  11   7  187.35    4.53
   4  11   7  239.46    9.85
  -4 -11  -7  225.57    8.14
   4  11   8  672.83   27.41
   4  11   8  672.19   30.80
  -4 -11  -8  655.84   27.97
   4  11   9   24.51    1.89
   4  11   9   24.67    1.68
  -4 -11  -9   20.40    1.98
   4  11  10   42.23    2.41
   4  11  10   46.80    3.44
  -4 -11 -10   37.95    2.98
   4  11  11  187.75    7.26
  -4 -11 -11  194.68    9.89
   4  11  12  678.96   28.11
  -4 -11 -12  765.13   38.40
   4  11  13    3.30    0.70
  -4 -11 -13    7.28    1.58
   4  11  14  430.02   16.11
  -4 -11 -14  475.39   25.54
   4  11  15   61.24    2.74
  -4 -11 -15   90.17    5.09
   4  11  16   15.02    3.25
  -4 -11 -16   13.14    2.42
   4  11  17  107.27   10.15
  -4 -11 -17  114.28    9.48
   4  11  18   29.12    4.11
  -4 -11 -18   31.07    5.27
   4  11  19    7.15    2.51
  -4 -11 -19    6.72    2.49
   4  12  -8    4.80    2.29
   4  12  -8    5.01    1.95
   4  12  -7    0.73    1.60
   4  12  -7    2.23    1.37
   4  12  -6    3.84    1.46
   4  12  -6    3.56    1.76
   4  12  -5  261.88   14.65
   4  12  -5  247.28   14.75
   4  12  -4    2.12    1.53
   4  12  -4    1.48    1.21
  -4 -12   4    0.42    1.12
   4  12  -3  213.48   12.74
   4  12  -3  190.39   10.09
  -4 -12   3  186.44    8.25
   4  12  -2  349.16   16.42
  -4 -12   2  332.18   15.78
   4  12  -1   16.78    1.79
  -4 -12   1   15.41    1.97
   4  12   0    5.99    1.09
  -4 -12   0    4.51    1.30
   4  12   1   45.23    3.28
   4  12   1   37.77    2.10
  -4 -12  -1   26.37    2.61
   4  12   2   92.48    5.44
   4  12   2   80.70    3.25
  -4 -12  -2   88.16    4.75
   4  12   3   88.69    4.79
   4  12   3   70.46    2.58
   4  12   3   77.85    2.11
  -4 -12  -3   85.79    4.27
   4  12   4  338.17   14.37
   4  12   4  283.27    9.00
   4  12   4  311.32   11.69
   4  12   4  304.92    9.03
   4  12   5   30.60    2.32
   4  12   5   30.47    2.27
   4  12   5   24.68    0.99
   4  12   6   33.34    1.12
   4  12   6   40.46    2.62
   4  12   6   36.53    2.84
   4  12   7   17.43    1.63
   4  12   7   16.92    1.11
   4  12   7   17.09    2.03
   4  12   8  409.31   16.65
   4  12   8  423.81   17.68
  -4 -12  -8  380.89   15.96
   4  12   9  208.14    8.26
   4  12   9  210.53   10.31
  -4 -12  -9  203.93    9.02
   4  12  10  723.74   31.97
   4  12  10  772.82   39.16
  -4 -12 -10  755.76   36.51
   4  12  11  143.10    5.57
   4  12  11  156.12    7.60
  -4 -12 -11  154.29    6.83
   4  12  12  117.10    5.00
   4  12  12  128.75    6.66
  -4 -12 -12  127.92    7.53
   4  12  13  160.01    9.75
   4  12  13  127.15    4.96
  -4 -12 -13  160.73    7.73
   4  12  14   44.90    2.15
  -4 -12 -14   52.54    3.77
   4  12  15    3.01    0.81
  -4 -12 -15    7.86    1.97
  -4 -12 -16    6.70    2.57
  -4 -12 -17    1.48    1.91
  -4 -12 -18    1.33    1.61
   4  12  19    3.73    3.02
  -4 -12 -19    4.57    2.24
   4  13  -6    3.80    2.02
   4  13  -6    3.82    2.13
   4  13  -5    3.71    2.19
   4  13  -5    1.59    1.78
   4  13  -4   69.20    6.76
   4  13  -4   60.55    5.26
   4  13  -3   18.02    2.66
   4  13  -2  198.42   10.62
  -4 -13   2  194.83   10.08
   4  13  -1   20.58    1.72
  -4 -13   1   16.62    2.26
   4  13   0  157.46    7.87
   4  13   0  133.93    5.78
  -4 -13   0  142.85    7.30
   4  13   1  215.21    9.53
   4  13   1  244.74   11.26
  -4 -13  -1  225.83   10.58
   4  13   2  101.99    5.05
   4  13   2   86.98    4.10
  -4 -13  -2   99.68    5.10
   4  13   3   50.50    3.12
   4  13   3   44.05    1.32
   4  13   3   52.14    2.35
  -4 -13  -3   51.78    3.17
   4  13   4  661.70   26.75
   4  13   4  648.51   22.94
   4  13   4  711.66   33.19
   4  13   4  785.58   37.36
   4  13   5 1650.10   91.14
   4  13   5 1410.75   68.85
   4  13   5 1574.96   87.68
   4  13   5 1475.60   70.25
   4  13   6  141.93    6.48
   4  13   6  126.75    4.39
   4  13   6  108.80    3.60
   4  13   6  134.24    6.58
   4  13   7  218.00    6.82
   4  13   7  277.79   11.41
   4  13   7  266.21   10.03
   4  13   7  264.02   12.02
   4  13   8   71.64    3.62
   4  13   8   69.31    3.65
   4  13   8   64.18    3.73
   4  13   9    4.98    1.47
   4  13   9    5.46    1.03
   4  13   9    5.66    0.92
   4  13   9    3.39    0.34
   4  13  10  169.25    6.93
   4  13  10  184.11    9.86
  -4 -13 -10  172.60    8.36
   4  13  11   82.98    4.23
   4  13  11  115.39    6.69
  -4 -13 -11   96.58    5.78
   4  13  12   65.07    3.41
   4  13  12   82.02    4.55
  -4 -13 -12   67.95    5.37
   4  13  13   56.30    2.80
   4  13  13   86.95    5.89
  -4 -13 -13   75.82    4.35
   4  13  14    4.02    0.73
   4  13  14    3.31    1.92
  -4 -13 -14    3.05    1.81
   4  13  15   13.26    3.33
  -4 -13 -15   16.26    3.09
   4  13  16   -0.62    1.16
  -4 -13 -16    0.27    1.48
  -4 -13 -17  122.35    8.78
  -4 -13 -18    5.78    2.97
  -4 -13 -19   -0.53    1.56
   4  14  -5    9.41    2.43
   4  14  -5   20.42    4.03
   4  14  -4   43.42    5.03
   4  14  -4   46.22    3.81
   4  14  -3  144.89    9.72
   4  14  -2  192.92   11.18
   4  14  -1  484.72   26.21
   4  14  -1  437.72   23.28
   4  14   0   40.22    4.17
   4  14   0   33.71    2.89
  -4 -14   0   25.68    2.90
   4  14   1  270.74   15.15
   4  14   1  230.26   10.86
  -4 -14  -1  236.98   11.61
   4  14   2   60.38    3.47
   4  14   2   81.02    5.33
  -4 -14  -2   59.52    4.23
   4  14   3   12.83    2.18
   4  14   3   10.43    1.10
   4  14   4  442.94   21.52
   4  14   4  361.38   13.71
   4  14   4  396.28   16.71
   4  14   5   48.42    2.03
   4  14   5   43.89    1.85
   4  14   5   49.00    3.61
   4  14   5   60.68    3.98
   4  14   6  432.69   19.11
   4  14   6  348.00   12.49
   4  14   6  409.68   18.76
   4  14   6  389.34   14.10
   4  14   7  457.06   20.35
   4  14   7  361.28   12.73
   4  14   7  443.64   16.94
   4  14   7  455.51   21.16
   4  14   8  117.08    5.96
   4  14   8  108.26    6.57
   4  14   8  115.48    5.52
   4  14   9   25.74    2.03
   4  14   9   23.51    2.45
   4  14   9   34.37    2.99
   4  14  10   75.78    4.07
   4  14  10   79.49    4.90
   4  14  10   79.19    5.56
   4  14  11   78.21    4.33
   4  14  11   84.86    5.64
   4  14  11   86.60    5.00
   4  14  12    8.50    2.14
   4  14  12    7.84    0.97
   4  14  12    4.64    1.46
   4  14  13   61.78    3.04
   4  14  13   81.44    6.25
  -4 -14 -13   75.14    4.59
   4  14  14   96.10    7.56
  -4 -14 -14   79.41    6.96
   4  14  15   17.02    2.64
  -4 -14 -15   13.43    2.44
   4  14  16   31.27    3.70
  -4 -14 -16   21.80    4.63
   4  14  17   12.67    2.83
  -4 -14 -17   10.94    2.63
   4  14  18   46.15    5.20
  -4 -14 -18   31.49    6.59
   4  15  -3    8.62    1.90
   4  15  -2   47.19    4.81
   4  15  -2   40.64    3.46
   4  15  -1    5.54    1.95
   4  15  -1    5.75    1.78
   4  15   0    4.95    2.16
   4  15   0    3.36    1.45
   4  15   1   27.16    2.93
   4  15   1   36.56    3.36
   4  15   2   13.66    2.67
   4  15   2   12.17    1.66
   4  15   3   85.39    4.83
   4  15   3   55.63    4.66
   4  15   3   67.40    3.75
   4  15   4    8.13    1.81
   4  15   4    5.22    0.88
   4  15   4    2.56    1.49
   4  15   5  206.57   10.74
   4  15   5  158.29    6.61
   4  15   5  187.31    9.51
   4  15   6    1.62    1.22
   4  15   6    2.15    0.67
   4  15   6    1.43    0.62
   4  15   6    3.17    1.18
   4  15   7   86.12    3.56
   4  15   7   93.08    5.40
   4  15   7   72.97    2.68
   4  15   7   97.45    5.56
   4  15   8  579.71   26.96
   4  15   8  629.58   29.79
   4  15   8  559.51   23.22
   4  15   8  442.94   16.03
   4  15   9   18.21    2.08
   4  15   9   17.68    2.08
   4  15   9   20.38    2.08
   4  15  10  167.77    9.16
   4  15  10  169.05    8.18
   4  15  10  181.75   10.64
   4  15  11   53.28    3.31
   4  15  11   48.53    4.39
   4  15  11   55.36    3.94
   4  15  12   42.86    2.93
   4  15  12   49.47    4.86
   4  15  12   51.89    4.50
   4  15  13    0.81    0.73
   4  15  13    1.17    1.34
   4  15  13    0.98    1.07
   4  15  14   55.40    6.23
   4  15  14   62.34    6.24
   4  15  15    9.64    2.77
   4  15  15    6.92    2.87
   4  15  16    4.04    1.85
   4  15  16    3.64    2.47
   4  15  17   12.94    3.06
   4  15  17   18.53    4.02
   4  15  18   15.05    3.98
   4  15  18    9.16    3.03
   4  16  -2    8.18    2.90
   4  16  -2    3.43    1.57
   4  16  -1   20.25    4.89
   4  16  -1   26.60    3.40
   4  16   0    5.56    2.52
   4  16   0    3.99    1.68
   4  16   1   91.52    8.43
   4  16   1   83.91    5.64
   4  16   2  239.82   15.30
   4  16   2  200.22   10.58
   4  16   2  195.34   10.94
   4  16   3   12.78    1.95
   4  16   3   13.52    2.74
   4  16   3    9.51    1.60
   4  16   4    1.17    0.86
   4  16   4    1.51    1.20
   4  16   4    4.13    1.56
   4  16   5   42.02    4.11
   4  16   5   31.63    2.38
   4  16   5   40.13    3.34
   4  16   6   57.93    3.44
   4  16   6   37.33    2.16
   4  16   6   52.00    3.99
   4  16   7   19.38    2.40
   4  16   7   12.58    1.21
   4  16   7   17.46    2.35
   4  16   8    3.10    1.31
   4  16   8    3.47    1.47
   4  16   8    2.86    0.97
   4  16   9   33.58    2.62
   4  16   9   33.26    2.90
   4  16   9   40.28    3.67
   4  16  10   30.33    2.79
   4  16  10   28.83    3.05
   4  16  10   33.70    3.58
   4  16  11   39.24    2.86
   4  16  11   44.68    4.12
   4  16  11   19.56    3.41
   4  16  12    7.77    1.49
   4  16  12   13.02    2.50
   4  16  12    9.04    2.17
   4  16  13    0.85    1.27
   4  16  13    2.61    1.50
   4  16  14  120.75    7.97
   4  16  14  105.55    9.16
   4  16  15   30.00    4.85
   4  16  15   34.54    5.01
   4  16  16    8.50    2.50
   4  16  16   12.39    3.25
   4  16  17    6.72    2.46
   4  16  17    8.96    3.27
   4  17   0   23.96    4.98
   4  17   0   21.97    3.24
   4  17   1    3.46    2.55
   4  17   1    4.14    1.65
   4  17   2    8.19    1.81
   4  17   2    8.96    2.93
   4  17   2    6.83    1.78
   4  17   3    7.02    1.80
   4  17   3    5.26    1.45
   4  17   3    3.39    1.60
   4  17   4    5.81    2.35
   4  17   4    7.32    1.35
   4  17   4    5.30    1.61
   4  17   5   -0.19    1.36
   4  17   5    1.42    0.76
   4  17   5   -0.26    1.06
   4  17   6    2.96    1.69
   4  17   6    3.01    0.91
   4  17   6    3.59    1.43
   4  17   7   38.82    4.11
   4  17   7   42.04    3.86
   4  17   8   36.99    3.67
   4  17   8   35.10    3.69
   4  17   9  113.24    5.83
   4  17   9  118.82    7.18
   4  17   9  119.35    7.81
   4  17  10    5.99    1.54
   4  17  10    6.80    1.58
   4  17  10    6.94    1.61
   4  17  11   14.90    2.08
   4  17  11   19.16    3.05
   4  17  11   18.56    2.60
   4  17  12   12.08    2.35
   4  17  12    9.92    2.72
   4  17  13    4.70    1.96
   4  17  13    3.95    2.08
   4  17  14    2.42    1.78
   4  17  14    0.73    1.78
   4  17  15   29.47    4.73
   4  17  15   31.53    4.97
   4  17  16   22.20    4.62
   4  17  16   24.75    3.63
   4  18   3   29.79    3.60
   4  18   3   20.88    2.96
   4  18   4   20.02    2.95
   4  18   4   17.26    2.30
   4  18   5    5.10    1.70
   4  18   5    5.97    2.31
   4  18   6    2.29    1.36
   4  18   6    2.40    1.40
   4  18   7  102.44    7.70
   4  18   7   88.41    6.70
   4  18   8    9.26    2.17
   4  18   8    7.43    2.07
   4  18   9   32.46    3.75
   4  18   9   36.92    3.93
   4  18  10    7.22    1.71
   4  18  10    4.20    2.08
   4  18  11    9.93    1.97
   4  18  11    3.91    2.46
   4  18  12   21.00    3.07
   4  18  12   16.32    3.47
   4  18  13   97.56    8.16
   4  18  14   30.84    4.57
   4  18  14   25.19    4.34
   4  19   7   25.59    3.94
   4  19   8    1.47    1.66
   4  19   8    2.70    1.50
   4  19   9   22.16    2.76
   4  19   9    3.27    2.83
   4  19  10    7.85    2.42
   4  19  11    1.84    1.68
  -5  15  13    1.44    2.10
  -5  15  13    3.07    2.01
  -5  15  12   23.39    5.10
  -5  15  12   19.67    4.01
  -5  15  11    7.14    2.67
  -5  15  11    7.13    2.42
  -5  15  10    0.90    1.89
  -5  15  10    2.80    1.60
  -5  15   9   22.19    4.16
  -5  15   9   25.79    4.43
  -5  15   8    9.66    2.71
  -5  15   8    7.27    2.91
  -5  15   7    7.75    2.70
  -5  15   7    7.97    2.64
  -5  15   6   57.02    6.46
  -5  15   6   57.97    6.07
  -5  15   5    7.50    2.98
  -5  15   5   12.26    2.51
  -5  15   5    9.58    1.98
  -5  15   4    6.82    2.84
  -5  15   4    8.05    2.20
  -5  15   3  132.81   11.95
  -5  15   3  118.15    8.38
   5 -14 -15   47.86    6.76
  -5  14  15   73.99    9.37
   5 -14 -14   -0.73    1.55
  -5  14  14    2.45    2.07
  -5  14  13   71.42    9.25
  -5  14  12   23.16    4.48
  -5  14  12   13.29    3.71
  -5  14  11   -0.21    1.35
  -5  14  11    1.85    1.56
  -5  14  10    5.58    2.51
  -5  14  10    8.77    2.92
  -5  14   9  119.44   10.18
  -5  14   9  135.43    9.56
  -5  14   8   11.02    2.79
  -5  14   8   10.28    3.03
  -5  14   7    5.12    2.43
  -5  14   7    8.67    2.42
  -5  14   6   64.59    6.17
  -5  14   6   55.92    5.76
  -5  14   6   47.81    3.62
  -5  14   5   19.52    3.76
  -5  14   5   20.50    2.60
  -5  14   4    4.33    1.63
  -5  14   4    3.75    1.74
  -5  14   3    8.99    2.82
  -5  14   3    9.07    2.10
  -5  14   2  100.95    9.12
  -5  14   2   90.11    6.47
   5 -14  -1   99.13    8.33
  -5  14   1  128.40   10.79
  -5  14   1  108.22    7.13
   5 -14   0   27.15    3.72
  -5  14   0   41.61    4.56
   5 -13 -16    1.05    2.02
  -5  13  16    2.51    1.63
   5 -13 -15    1.47    1.85
  -5  13  15   -1.42    2.53
  -5  13  15    2.48    1.38
   5 -13 -14    6.24    1.84
  -5  13  14    8.58    2.43
  -5  13  14    4.30    1.44
   5 -13 -13   57.34    5.92
  -5  13  13   66.05    7.64
  -5  13  13   43.90    3.31
   5 -13 -12  195.66   11.83
  -5  13  12  212.98   16.63
  -5  13  11    2.52    1.69
  -5  13  10   66.85    6.94
  -5  13  10   72.50    5.98
  -5  13   9  231.17   15.85
  -5  13   9  260.82   15.05
  -5  13   8   13.46    2.32
  -5  13   8   15.01    3.13
  -5  13   7   24.29    3.69
  -5  13   7   26.21    3.90
  -5  13   6    6.14    2.40
  -5  13   6    9.91    2.36
  -5  13   5  105.42    6.65
  -5  13   5  103.63    8.05
  -5  13   4   82.38    6.85
  -5  13   4   96.98    7.78
  -5  13   3   12.26    2.23
  -5  13   3   13.80    2.35
   5 -13  -2    4.67    1.79
  -5  13   2    6.50    2.28
  -5  13   2    5.70    1.68
   5 -13  -1    6.21    1.65
  -5  13   1    6.71    2.66
  -5  13   1    9.35    1.79
   5 -13   0   38.36    4.46
  -5  13   0   29.78    3.07
   5 -13   1   85.52    7.99
   5 -13   2    4.31    2.46
   5 -12 -17    3.75    2.33
  -5  12  17    3.64    2.41
  -5  12  17    2.34    2.08
   5 -12 -16   15.71    3.84
  -5  12  16   20.46    3.87
  -5  12  16   15.52    3.21
   5 -12 -15   58.67    7.20
  -5  12  15   67.07    5.75
   5 -12 -14   23.88    4.46
  -5  12  14   62.61    4.22
   5 -12 -13   47.45    5.36
  -5  12  13   44.42    4.94
  -5  12  13   40.74    3.55
   5 -12 -12  248.76   14.00
  -5  12  12  265.00   16.09
  -5  12  12  219.05   11.69
   5 -12 -11   14.22    2.07
  -5  12  11   10.35    1.30
  -5  12  11   14.31    3.28
   5 -12 -10   75.16    5.21
  -5  12  10   66.79    3.52
  -5  12  10  101.75    6.35
  -5  12   9  108.86    7.36
  -5  12   9  104.67    6.97
  -5  12   8   73.87    6.64
  -5  12   8   83.34    7.03
  -5  12   7   54.97    3.86
  -5  12   7   37.40    3.73
  -5  12   6   84.01    7.19
  -5  12   6  103.20    7.04
  -5  12   5  415.28   22.42
  -5  12   5  428.91   23.75
  -5  12   4   17.41    2.42
  -5  12   4   19.49    2.77
   5 -12  -3   56.14    4.18
  -5  12   3   72.56    5.76
  -5  12   3   54.33    4.53
   5 -12  -2    2.14    1.43
  -5  12   2    3.58    1.35
  -5  12   2    4.21    1.36
   5 -12  -1   10.29    2.38
  -5  12   1   13.47    2.04
   5 -12   0   12.46    2.63
  -5  12   0   12.62    1.95
   5 -12   1   29.04    3.22
  -5  12  -1   10.02    2.04
   5 -12   2    1.58    1.63
  -5  12  -2    0.83    0.96
   5 -12   3   16.31    2.90
  -5  12  -3   15.65    3.61
   5 -12   4   28.75    5.29
  -5  12  -4   29.33    3.85
   5 -11 -17   51.98    6.40
  -5  11  17   49.49    6.51
  -5  11  17   43.74    5.99
   5 -11 -16    3.21    1.59
  -5  11  16    2.90    2.05
  -5  11  16    1.59    1.85
   5 -11 -15    5.95    2.25
  -5  11  15    6.62    2.22
  -5  11  15    2.61    1.89
   5 -11 -14   31.99    5.31
  -5  11  14   46.46    3.99
   5 -11 -13   60.60    5.48
  -5  11  13   44.84    3.92
   5 -11 -12   19.73    3.14
  -5  11  12   34.96    2.32
   5 -11 -11   80.87    6.98
  -5  11  11   79.13    4.47
  -5  11  11  106.02    6.39
   5 -11 -10    5.39    1.52
  -5  11  10    6.08    2.24
  -5  11  10    5.85    1.02
   5 -11  -9   27.11    3.44
  -5  11   9   29.18    3.91
  -5  11   8    4.65    1.88
  -5  11   8    4.64    0.55
  -5  11   8    3.45    0.43
  -5  11   7  307.83   17.80
  -5  11   7  290.37   17.19
  -5  11   6  121.02    8.32
  -5  11   6  116.95    8.15
  -5  11   5    8.48    1.61
  -5  11   5    8.69    2.07
   5 -11  -4   18.35    1.66
  -5  11   4   20.20    2.41
  -5  11   4   20.97    2.72
   5 -11  -3   33.83    2.91
  -5  11   3   39.75    3.14
  -5  11   3   38.13    3.48
   5 -11  -2   77.05    4.77
  -5  11   2   73.48    3.99
   5 -11  -1   25.04    2.80
  -5  11   1   21.14    2.54
   5 -11   0  200.31   12.14
  -5  11   0  199.74    9.92
   5 -11   1  111.57    7.41
  -5  11  -1   84.56    5.05
   5 -11   2  114.76    7.35
  -5  11  -2   95.35    5.32
  -5  11  -2  107.94    8.93
   5 -11   3   40.08    4.80
  -5  11  -3   30.37    2.20
  -5  11  -3   29.93    4.39
   5 -11   4   13.52    2.48
  -5  11  -4   10.87    1.64
  -5  11  -4   14.24    3.06
   5 -11   5    5.23    1.74
  -5  11  -5    0.36    1.58
   5 -10 -18    4.48    2.57
  -5  10  18    3.47    2.41
  -5  10  18    3.33    1.96
   5 -10 -17  253.53   19.71
  -5  10  17  287.24   23.79
  -5  10  17  248.43   19.07
   5 -10 -16   14.68    2.52
  -5  10  16   15.62    3.01
  -5  10  16    6.90    3.15
   5 -10 -15  502.85   32.57
  -5  10  15  543.54   33.57
  -5  10  15  493.32   26.76
   5 -10 -14  165.36   11.71
  -5  10  14  165.74   11.17
  -5  10  14  144.11    9.56
   5 -10 -13   50.61    3.64
  -5  10  13   43.86    5.82
  -5  10  13   41.32    2.96
   5 -10 -12    3.85    1.91
  -5  10  12    5.05    1.34
   5 -10 -11   25.93    3.37
  -5  10  11   23.70    1.92
   5 -10 -10   33.70    3.51
  -5  10  10   28.32    1.96
   5 -10  -9    3.22    1.25
  -5  10   9    4.69    0.72
  -5  10   9    5.10    1.90
   5 -10  -8    1.93    1.01
  -5  10   8    1.42    0.48
  -5  10   8    3.38    1.12
   5 -10  -7    8.22    1.92
  -5  10   7   10.30    2.05
  -5  10   7    7.12    0.59
  -5  10   6 1662.46  103.36
  -5  10   6 1674.60  103.80
   5 -10  -5  233.67    8.58
  -5  10   5  261.21   13.43
  -5  10   5  248.19   10.94
   5 -10  -4   11.60    1.41
  -5  10   4   16.62    1.78
  -5  10   4   13.65    2.17
   5 -10  -3  198.68    8.73
  -5  10   3  199.44   10.20
   5 -10  -2  430.50   19.56
  -5  10   2  435.22   20.17
   5 -10  -1  124.41    5.80
  -5  10   1  137.93    6.88
   5 -10   0   97.18    5.19
  -5  10   0   66.09    4.52
   5 -10   1   13.00    1.73
  -5  10  -1   13.35    2.41
  -5  10  -1   10.44    1.70
   5 -10   2  248.75   14.50
  -5  10  -2  229.12   10.45
  -5  10  -2  250.54   12.76
   5 -10   3   52.02    4.23
  -5  10  -3   45.20    3.19
  -5  10  -3   53.55    4.04
   5 -10   4   79.28    6.44
  -5  10  -4   52.34    3.40
  -5  10  -4   64.61    5.74
   5 -10   5   38.47    4.79
  -5  10  -5   26.18    2.45
  -5  10  -5   34.92    3.32
   5 -10   6   28.43    4.94
  -5  10  -6   26.96    4.55
   5 -10   7   11.89    3.08
  -5  10  -7   13.72    2.64
   5  -9 -18  182.19   16.68
  -5   9  18  196.12   19.04
  -5   9  18  188.98   16.70
   5  -9 -17   28.10    4.95
  -5   9  17   28.25    4.48
  -5   9  17   28.22    4.73
   5  -9 -16   93.34    7.07
  -5   9  16   96.75   10.18
  -5   9  16   90.67    8.08
   5  -9 -15  122.69    9.06
  -5   9  15   97.21    8.20
  -5   9  15  107.87    8.01
   5  -9 -14   34.36    4.24
  -5   9  14   32.57    3.81
  -5   9  14   30.94    2.79
   5  -9 -13   31.17    4.02
  -5   9  13   31.26    4.63
  -5   9  13   31.80    3.18
   5  -9 -12    1.47    1.67
  -5   9  12    4.49    1.22
  -5   9  12    3.50    1.55
   5  -9 -11    6.40    1.44
  -5   9  11    7.16    1.65
  -5   9  11    4.56    1.27
   5  -9 -10    3.46    1.27
  -5   9  10    0.27    0.79
   5  -9  -9   57.04    4.41
  -5   9   9   53.55    2.72
   5  -9  -8  478.76   23.53
  -5   9   8  457.50   16.20
   5  -9  -7  366.59   17.16
  -5   9   7  325.14   10.23
  -5   9   7  384.75   16.48
   5  -9  -6  433.33   19.65
  -5   9   6  455.45   20.56
  -5   9   6  365.49   10.34
   5  -9  -5  460.56   16.39
  -5   9   5  515.01   23.66
   5  -9  -4  126.95    4.94
  -5   9   4  140.09    6.21
   5  -9  -3  455.30   18.69
  -5   9   3  481.32   21.94
   5  -9  -2   12.66    1.16
  -5   9   2   12.11    1.85
   5  -9  -1   54.38    3.64
  -5   9   1   65.42    3.54
  -5   9   1   60.80    3.73
   5  -9   0   65.36    4.57
  -5   9   0   79.93    4.96
  -5   9   0   67.49    4.04
   5  -9   1    6.30    1.26
  -5   9  -1    8.67    1.87
  -5   9  -1    7.32    1.34
   5  -9   2    3.56    1.63
  -5   9  -2    5.52    1.15
  -5   9  -2    3.79    1.65
   5  -9   3  184.16   10.99
  -5   9  -3  161.00    7.35
  -5   9  -3  170.68   10.43
   5  -9   4  101.03    7.54
  -5   9  -4   82.41    4.68
  -5   9  -4  100.75    7.32
   5  -9   5    1.80    1.58
  -5   9  -5    0.95    0.83
  -5   9  -5    0.77    1.42
   5  -9   6   25.31    3.87
  -5   9  -6   21.10    2.58
  -5   9  -6   14.78    1.94
   5  -9   7    5.33    2.63
  -5   9  -7    7.60    2.25
  -5   9  -7    3.11    1.26
   5  -9   8    9.49    2.56
  -5   9  -8    6.39    2.19
   5  -8 -18  159.57   13.67
  -5   8  18  166.54   14.66
  -5   8  18  129.16   16.20
   5  -8 -17  164.81   13.85
  -5   8  17  165.61   15.57
  -5   8  17  164.28   14.20
   5  -8 -16  272.54   19.65
  -5   8  16  294.08   19.17
  -5   8  16  308.54   20.31
   5  -8 -15  160.11   10.06
  -5   8  15  117.97   11.60
  -5   8  15  123.32    9.49
   5  -8 -14  216.51   13.94
  -5   8  14  214.74   15.18
  -5   8  14  207.51   12.55
   5  -8 -13  221.64   13.70
  -5   8  13  231.13   15.28
  -5   8  13  219.48   11.98
   5  -8 -12  205.04   12.15
  -5   8  12  208.35   11.36
  -5   8  12  206.79   10.46
   5  -8 -11  104.17    6.78
  -5   8  11   91.28    5.08
  -5   8  11   99.60    5.80
   5  -8 -10  102.62    6.24
  -5   8  10  101.61    5.89
  -5   8  10   90.75    4.71
   5  -8  -9   85.78    4.21
  -5   8   9   88.85    5.76
  -5   8   9   66.46    3.40
   5  -8  -8  199.52    8.66
  -5   8   8  187.00    6.38
   5  -8  -7   16.18    1.58
  -5   8   7   14.15    0.88
   5  -8  -6   14.69    1.73
   5  -8  -6    9.95    0.60
  -5   8   6   12.90    1.86
   5  -8  -5  485.24   15.37
   5  -8  -5  493.68   19.75
  -5   8   5  508.01   21.88
  -5   8   5  413.73   11.34
   5  -8  -4   94.47    3.29
  -5   8   4  112.60    5.77
   5  -8  -3   57.34    2.52
  -5   8   3   54.69    3.71
   5  -8  -2  611.09   25.62
  -5   8   2  649.44   30.31
  -5   8   2  623.37   27.89
   5  -8  -1    7.46    1.11
  -5   8   1   11.82    1.78
  -5   8   1   10.20    1.50
   5  -8   0    4.56    1.22
  -5   8   0    5.08    1.07
  -5   8   0    4.43    1.17
   5  -8   1   60.52    4.12
  -5   8  -1   62.66    3.54
  -5   8  -1   70.06    4.42
   5  -8   2  210.33   10.79
  -5   8  -2  200.90    9.31
  -5   8  -2  215.36    8.85
   5  -8   3   12.94    2.17
  -5   8  -3   10.97    2.09
  -5   8  -3    8.61    1.46
   5  -8   4  770.12   41.71
  -5   8  -4  661.79   30.21
  -5   8  -4  766.06   40.40
   5  -8   5  532.95   29.28
  -5   8  -5  456.42   20.06
  -5   8  -5  492.08   26.39
   5  -8   6  338.29   16.84
  -5   8  -6  300.17   16.37
  -5   8  -6  249.30   11.18
   5  -8   7    6.32    2.22
  -5   8  -7    5.61    1.48
  -5   8  -7    2.83    1.18
   5  -8   8  324.39   20.46
  -5   8  -8  297.68   20.05
   5  -8   9   31.63    4.93
  -5   8  -9   25.66    3.22
  -5   8  -9   19.31    2.44
   5  -7 -18   57.99    6.06
  -5   7  18   62.67    7.92
  -5   7  18   46.35    8.43
   5  -7 -17    4.64    2.37
  -5   7  17    5.21    2.42
  -5   7  17    1.04    2.60
   5  -7 -16   49.55    5.21
  -5   7  16   34.85    5.34
  -5   7  16   33.41    5.77
   5  -7 -15  290.92   18.34
  -5   7  15  302.78   18.64
  -5   7  15  286.35   17.11
   5  -7 -14  105.59    6.52
  -5   7  14  100.98    8.75
  -5   7  14  104.22    7.38
   5  -7 -13   38.25    3.32
  -5   7  13   42.92    4.67
  -5   7  13   38.50    3.80
   5  -7 -12  258.66   12.54
  -5   7  12  253.53   12.88
  -5   7  12  254.27   12.53
   5  -7 -11  889.63   48.00
  -5   7  11  871.29   47.78
  -5   7  11  838.04   40.57
   5  -7 -10  239.30   11.83
  -5   7  10  224.01   10.33
  -5   7  10  214.08    9.21
   5  -7  -9   34.10    2.43
  -5   7   9   32.67    3.40
  -5   7   9   34.65    2.12
   5  -7  -8  751.68   32.79
  -5   7   8  716.24   27.92
  -5   7   8  725.08   35.64
   5  -7  -7  104.29    5.37
  -5   7   7   92.92    3.28
   5  -7  -6  182.91    4.93
   5  -7  -6  190.34    7.49
  -5   7   6  180.50    4.98
   5  -7  -5  261.16    7.36
   5  -7  -5  282.89   12.13
  -5   7   5  262.83    7.06
   5  -7  -4  707.11   25.09
   5  -7  -4  722.56   29.55
  -5   7   4  755.68   32.54
  -5   7   4  632.98   18.43
   5  -7  -3  224.39    7.55
  -5   7   3  237.25    9.28
  -5   7   3  230.99    9.91
   5  -7  -2  538.16   20.55
  -5   7   2  564.46   23.92
  -5   7   2  574.21   24.85
   5  -7  -1  664.95   27.65
  -5   7   1  699.75   31.73
  -5   7   1  709.23   30.56
   5  -7   0  378.69   15.51
  -5   7   0  384.63   16.87
  -5   7   0  378.76   15.10
   5  -7   1    2.01    0.97
  -5   7  -1    1.36    1.00
  -5   7  -1    1.29    0.82
   5  -7   2  153.15    6.51
  -5   7  -2  157.96    7.85
  -5   7  -2  156.54    6.57
   5  -7   3    5.67    1.56
  -5   7  -3    4.86    1.12
  -5   7  -3    5.52    1.14
   5  -7   4  615.44   32.68
  -5   7  -4  559.35   24.25
  -5   7  -4  637.15   31.32
   5  -7   5  209.56    9.96
  -5   7  -5  179.48    7.82
  -5   7  -5  189.32   10.19
   5  -7   6   54.48    4.76
  -5   7  -6   36.67    2.88
  -5   7  -6   53.65    4.12
   5  -7   7   11.01    2.13
  -5   7  -7   12.32    2.32
  -5   7  -7    9.84    1.52
   5  -7   8    7.52    2.64
  -5   7  -8    6.86    2.24
  -5   7  -8    8.71    1.48
   5  -7   9  362.57   20.92
  -5   7  -9  344.68   17.82
  -5   7  -9  272.60   14.14
   5  -7  10   15.41    2.95
  -5   7 -10   15.15    3.15
  -5   7 -10   10.08    2.01
   5  -6 -18   54.29    5.61
  -5   6  18   58.87    6.05
  -5   6  18   40.65    7.61
   5  -6 -17   11.18    2.96
  -5   6  17    9.85    2.46
  -5   6  17    4.48    3.30
   5  -6 -16  188.85   12.23
  -5   6  16  207.19   12.63
  -5   6  16  188.03   15.32
   5  -6 -15  426.20   22.87
  -5   6  15  425.07   22.92
  -5   6  15  436.13   27.83
   5  -6 -14   17.01    2.54
  -5   6  14   19.86    2.34
  -5   6  14   22.17    3.48
   5  -6 -13  442.47   24.46
  -5   6  13  429.63   22.46
  -5   6  13  440.41   22.70
   5  -6 -12   65.52    4.92
  -5   6  12   60.19    5.28
  -5   6  12   57.09    3.35
   5  -6 -11  162.19    7.84
  -5   6  11  170.03    8.32
  -5   6  11  173.76    8.09
   5  -6 -10    4.45    1.43
  -5   6  10    3.50    1.17
  -5   6  10    5.06    1.10
   5  -6  -9  226.18    9.34
  -5   6   9  236.05   11.49
  -5   6   9  209.58    8.33
   5  -6  -8   65.11    3.17
  -5   6   8   66.79    2.67
  -5   6   8   56.53    4.22
   5  -6  -7  526.77   21.53
  -5   6   7  544.23   23.69
  -5   6   7  528.42   18.37
   5  -6  -6   13.13    0.52
   5  -6  -6   15.45    1.40
  -5   6   6   18.11    1.88
  -5   6   6   16.97    0.89
   5  -6  -5  132.18    5.17
   5  -6  -5  134.49    3.40
  -5   6   5  124.22    3.19
   5  -6  -4  330.62   13.42
   5  -6  -4  323.64    9.41
  -5   6   4  313.74    7.97
   5  -6  -3  677.80   23.27
   5  -6  -3  686.56   26.59
  -5   6   3  587.01   15.60
   5  -6  -2   65.52    2.86
  -5   6   2   92.44    4.09
  -5   6   2   79.15    3.95
   5  -6  -1    4.71    0.69
  -5   6   1    5.44    1.18
  -5   6   1    6.28    1.13
   5  -6   0   82.55    3.14
  -5   6   0   85.90    3.64
  -5   6   0   89.84    3.40
   5  -6   1    3.47    0.76
  -5   6  -1    4.09    1.14
  -5   6  -1    4.94    1.00
   5  -6   2  179.21    7.90
  -5   6  -2  182.08    8.23
  -5   6  -2  181.39    6.99
   5  -6   3   21.86    1.83
  -5   6  -3   22.58    1.79
  -5   6  -3   24.54    2.24
   5  -6   4  141.92    7.61
  -5   6  -4  129.40    5.53
  -5   6  -4  127.02    6.89
   5  -6   5  525.86   23.73
  -5   6  -5  489.69   20.49
  -5   6  -5  501.36   22.08
   5  -6   6    5.37    1.70
  -5   6  -6    2.75    1.08
  -5   6  -6    4.03    1.42
   5  -6   7   41.14    4.24
  -5   6  -7   41.06    3.68
  -5   6  -7   34.51    2.64
   5  -6   8   45.94    3.81
  -5   6  -8   43.74    4.09
  -5   6  -8   38.80    2.97
   5  -6   9    5.77    2.00
  -5   6  -9    7.69    1.59
  -5   6  -9    6.73    1.46
   5  -6  10   -1.33    1.78
  -5   6 -10    1.53    1.48
  -5   6 -10    1.14    1.01
  -5   6 -11   94.07    8.02
  -5   6 -11   80.40    5.78
   5  -5 -18    8.04    3.12
  -5   5  18    5.71    3.07
   5  -5 -17  706.29   46.84
  -5   5  17  754.20   51.02
  -5   5  17  695.40   48.57
   5  -5 -16   79.84    7.58
  -5   5  16   84.68    8.05
  -5   5  16   66.35    8.02
   5  -5 -15  324.49   20.69
  -5   5  15  346.64   21.42
  -5   5  15  339.88   21.81
   5  -5 -14   65.56    4.59
  -5   5  14   64.03    5.79
  -5   5  14   63.11    4.76
   5  -5 -13  186.88   11.11
  -5   5  13  187.31   11.59
  -5   5  13  176.31    8.92
   5  -5 -12 1039.07   54.01
  -5   5  12 1067.34   56.42
  -5   5  12 1052.48   55.44
   5  -5 -11  430.16   19.06
  -5   5  11  435.66   21.81
  -5   5  11  433.37   19.80
   5  -5 -10   75.49    4.51
  -5   5  10   66.77    3.71
  -5   5  10   68.70    3.81
   5  -5  -9    3.64    1.41
  -5   5   9    5.28    1.45
  -5   5   9    6.14    1.07
   5  -5  -8  343.83   14.93
  -5   5   8  343.96   14.96
  -5   5   8  327.91   11.89
   5  -5  -7  363.22   15.06
  -5   5   7  349.66   11.86
  -5   5   7  363.19   15.24
   5  -5  -6   32.92    2.64
   5  -5  -6   32.60    0.97
  -5   5   6   44.48    2.63
  -5   5   6   38.80    1.50
   5  -5  -5    3.78    0.35
   5  -5  -5    3.22    1.05
  -5   5   5    4.38    0.45
  -5   5   5    5.20    0.85
   5  -5  -4    5.88    0.55
   5  -5  -4    5.38    0.84
  -5   5   4    6.34    0.90
  -5   5   4    5.24    0.39
   5  -5  -3  387.81    9.41
   5  -5  -3  441.49   13.33
   5  -5  -3  459.54   15.81
  -5   5   3  433.88   10.76
   5  -5  -2  265.43   10.17
   5  -5  -2  262.71    8.24
   5  -5  -1  736.16   27.59
  -5   5   1  752.14   31.33
  -5   5   1  684.78   26.71
   5  -5   0  116.96    4.66
  -5   5   0  130.22    4.71
  -5   5   0   98.88    4.63
   5  -5   1   55.00    2.63
  -5   5  -1   46.31    2.29
  -5   5  -1   47.88    2.06
   5  -5   2  975.11   41.63
  -5   5  -2  970.84   43.83
  -5   5  -2  958.21   40.83
   5  -5   3  715.38   29.60
  -5   5  -3  715.13   26.87
  -5   5  -3  699.89   28.82
   5  -5   4   13.48    2.22
  -5   5  -4   23.67    1.72
  -5   5  -4   19.12    2.09
   5  -5   5  661.83   31.09
  -5   5  -5  624.66   28.21
  -5   5  -5  604.69   23.18
   5  -5   6  761.67   38.25
  -5   5  -6  668.83   29.12
  -5   5  -6  734.18   32.32
   5  -5   7  198.83   11.38
  -5   5  -7  179.05    9.31
  -5   5  -7  178.72    7.93
   5  -5   8   31.69    3.85
  -5   5  -8   30.86    3.16
   5  -5   9   10.43    2.61
  -5   5  -9   10.90    2.06
  -5   5  -9    8.25    1.59
  -5   5 -10  263.08   12.77
  -5   5 -10  236.87   11.87
  -5   5 -11  235.44   12.93
  -5   5 -11  302.55   16.91
   5  -5  12   63.61    6.80
  -5   5 -12   44.12    5.71
  -5   5 -12   42.27    4.14
   5  -4 -18   16.12    3.98
  -5   4  18   11.61    3.91
   5  -4 -17    7.30    3.00
  -5   4  17    7.03    2.81
   5  -4 -16    7.01    2.75
  -5   4  16    8.68    2.68
   5  -4 -15   10.24    1.97
  -5   4  15    7.93    2.63
   5  -4 -14 1876.29  129.14
  -5   4  14 1958.49  125.89
  -5   4  14 2092.63  138.63
   5  -4 -13   32.32    3.58
  -5   4  13   34.77    3.66
  -5   4  13   27.47    3.65
   5  -4 -12   10.96    1.60
  -5   4  12    8.73    2.17
  -5   4  12   11.86    2.06
   5  -4 -11    4.52    1.44
  -5   4  11    3.74    1.00
  -5   4  11    3.33    1.45
   5  -4 -10  102.63    5.07
  -5   4  10   91.91    5.07
  -5   4  10   74.39    3.66
   5  -4  -9  209.26    9.50
  -5   4   9  199.00    9.15
  -5   4   9  194.91    8.01
   5  -4  -8  244.68    9.32
  -5   4   8  255.34    9.26
  -5   4   8  239.26   10.22
   5  -4  -7  446.07   11.17
   5  -4  -7  589.90   22.74
  -5   4   7  556.67   19.09
  -5   4   7  487.71   12.73
  -5   4   7  576.04   21.11
   5  -4  -6  169.91    3.70
   5  -4  -6  167.06    7.09
  -5   4   6  168.85    3.83
  -5   4   6  161.84    6.99
  -5   4   6  169.63    5.26
   5  -4  -5 1159.91   41.63
   5  -4  -5 1153.28   53.82
  -5   4   5 1166.78   53.95
  -5   4   5 1149.77   45.39
   5  -4  -4  513.08   19.80
   5  -4  -4  484.84   13.90
  -5   4   4  528.35   20.28
  -5   4   4  498.44   14.52
   5  -4  -3 2305.14  118.00
   5  -4  -3 2452.76  118.23
   5  -4  -3 2428.32  136.65
  -5   4   3 2399.64  133.60
  -5   4   3 2342.53  113.35
   5  -4  -2 3032.93  168.93
   5  -4  -2 2957.60  149.79
   5  -4  -2 3038.65  183.94
  -5   4   2 2566.82  130.11
   5  -4  -1 3151.82  183.73
   5  -4  -1 3172.46  174.26
   5  -4  -1 3022.60  140.73
  -5   4   1 2187.73  102.91
   5  -4   0   18.62    1.47
  -5   4   0   20.89    1.68
   5  -4   1  184.01    5.66
  -5   4  -1  170.82    5.75
  -5   4  -1  192.74    6.76
   5  -4   2   52.82    2.59
  -5   4  -2   45.91    2.60
  -5   4  -2   50.27    1.85
   5  -4   3  362.40   14.18
  -5   4  -3  361.39   12.54
  -5   4  -3  351.62   13.38
   5  -4   4   28.03    1.74
  -5   4  -4   22.14    1.72
  -5   4  -4   29.58    2.02
   5  -4   5  998.65   45.99
  -5   4  -5  948.63   42.56
  -5   4  -5 1018.80   46.36
   5  -4   6  378.94   16.98
  -5   4  -6  354.34   14.98
  -5   4  -6  346.42   13.52
   5  -4   7  823.21   41.53
  -5   4  -7  776.63   36.62
  -5   4  -7  731.74   33.03
   5  -4   8  114.40    6.79
  -5   4  -8   94.65    5.40
  -5   4  -8   83.37    4.57
  -5   4  -9   14.89    1.64
  -5   4  -9   14.68    1.80
  -5   4 -10   91.22    6.17
  -5   4 -10   84.63    5.00
  -5   4 -11    3.73    1.56
  -5   4 -11    1.60    1.25
   5  -4  12   72.54    6.93
  -5   4 -12   54.26    4.46
  -5   4 -12   56.17    4.60
   5  -4  13  102.31    7.41
  -5   4 -13   62.34    5.80
  -5   4 -13   74.58    7.31
   5  -3 -18   46.50    7.29
  -5   3  18   57.54    8.04
  -5   3  18   47.82    6.49
   5  -3 -17   12.76    2.91
  -5   3  17   16.45    3.39
  -5   3  17   14.43    3.07
   5  -3 -16   49.88    4.66
  -5   3  16   45.97    5.58
   5  -3 -15  240.25   13.59
  -5   3  15  242.19   13.17
   5  -3 -14  196.61   12.61
  -5   3  14  194.13   12.03
   5  -3 -13  759.18   38.76
  -5   3  13  796.44   42.64
   5  -3 -12    7.14    1.67
  -5   3  12    2.81    1.61
   5  -3 -11 1114.16   55.68
  -5   3  11 1111.85   58.11
  -5   3  11 1111.27   54.13
   5  -3 -10 1855.79  102.08
  -5   3  10 1810.67  103.71
  -5   3  10 1815.66   97.93
   5  -3  -9  111.74    2.52
   5  -3  -9  120.13    5.83
  -5   3   9  121.58    5.78
  -5   3   9  115.41    5.35
   5  -3  -8  150.00    3.28
   5  -3  -8  160.42    5.98
  -5   3   8  157.29    6.20
  -5   3   8  157.18    5.86
   5  -3  -7   20.90    0.64
   5  -3  -7   21.90    1.52
  -5   3   7   22.07    1.52
  -5   3   7   23.87    1.51
   5  -3  -6   30.09    1.68
  -5   3   6   32.59    1.66
  -5   3   6   33.88    1.73
   5  -3  -5   25.65    0.80
   5  -3  -5   19.11    2.10
  -5   3   5   31.73    1.00
  -5   3   5   31.28    1.98
   5  -3  -4 2526.17  129.46
   5  -3  -4 2753.86  156.94
  -5   3   4 2633.29  138.57
  -5   3   4 2573.90  147.62
   5  -3  -3    5.20    0.56
   5  -3  -3    7.31    0.79
  -5   3   3    5.53    0.79
  -5   3   3    5.55    0.45
   5  -3  -2   12.54    0.95
   5  -3  -2   10.75    0.80
  -5   3   2   12.79    1.30
  -5   3   2   11.32    0.42
   5  -3  -1   19.30    1.04
   5  -3  -1   16.06    0.46
   5  -3  -1   17.66    1.40
  -5   3   1   15.40    1.09
  -5   3   1   14.66    0.46
   5  -3   0 3957.77  254.69
   5  -3   0 3955.68  221.68
  -5   3   0 3297.34  222.39
   5  -3   1  334.03    6.65
   5  -3   1  355.75   10.79
   5  -3   1  351.95    7.17
  -5   3  -1  373.31   11.69
   5  -3   2   10.29    0.85
   5  -3   2    9.26    0.27
  -5   3  -2    9.59    0.81
   5  -3   3    8.37    1.08
   5  -3   3    5.92    0.31
   5  -3   3    6.26    0.30
  -5   3  -3    8.17    0.94
  -5   3  -3    6.41    0.74
   5  -3   4   47.22    2.78
  -5   3  -4   44.71    2.26
  -5   3  -4   49.36    2.41
   5  -3   5   55.68    2.63
  -5   3  -5   57.95    2.62
  -5   3  -5   58.87    2.25
   5  -3   6   54.08    3.62
  -5   3  -6   56.56    2.97
  -5   3  -6   55.69    2.71
   5  -3   7  462.72   19.32
   5  -3   7  427.23   14.11
  -5   3  -7  450.27   18.48
  -5   3  -7  463.46   18.97
   5  -3   8  718.94   36.12
  -5   3  -8  671.73   31.56
  -5   3  -8  647.48   29.96
  -5   3  -9   88.56    4.55
  -5   3  -9   69.09    3.38
  -5   3 -10   28.25    2.72
  -5   3 -10   22.83    2.50
   5  -3  11    1.34    1.28
  -5   3 -11    0.87    1.31
  -5   3 -11    3.00    1.15
   5  -3  12  412.66   25.00
  -5   3 -12  369.15   20.42
  -5   3 -12  350.50   18.71
   5  -3  13  200.21   12.53
  -5   3 -13  182.33   11.59
  -5   3 -13  174.28   10.53
   5  -3  14  161.73   13.25
  -5   3 -14  143.59    8.76
  -5   3 -14  122.83    9.25
   5  -2 -18   46.68    7.34
  -5   2  18   48.13    7.83
   5  -2 -17  128.23   11.58
  -5   2  17   98.12    9.94
  -5   2  17  135.47   12.25
   5  -2 -16   27.65    4.97
  -5   2  16   35.07    5.14
  -5   2  16   28.90    3.26
   5  -2 -15  150.01    9.11
  -5   2  15  145.86   10.16
  -5   2  15  155.73   11.74
   5  -2 -14  342.14   17.35
  -5   2  14  342.64   19.14
  -5   2  14  356.31   21.03
   5  -2 -13  125.06    8.29
  -5   2  13  114.90    6.05
   5  -2 -12  241.32   11.08
  -5   2  12  236.82   11.95
   5  -2 -11   14.19    1.71
  -5   2  11   12.72    1.95
   5  -2 -10  893.33   32.05
   5  -2 -10  998.17   47.82
  -5   2  10  958.20   42.91
   5  -2  -9  241.12    6.04
   5  -2  -9  253.01   10.79
  -5   2   9  254.54    9.14
   5  -2  -8  313.55    8.11
   5  -2  -8  320.37   12.90
  -5   2   8  302.34   12.14
  -5   2   8  311.87   12.09
   5  -2  -7 1150.65   41.79
   5  -2  -7 1203.92   53.38
  -5   2   7 1159.05   51.20
  -5   2   7 1193.68   51.13
   5  -2  -6   79.38    3.13
   5  -2  -6   85.75    1.93
  -5   2   6   92.97    3.49
  -5   2   6   84.80    4.02
   5  -2  -5  405.72   10.58
   5  -2  -5  408.97   15.06
  -5   2   5  390.82   14.34
  -5   2   5  418.79   13.47
   5  -2  -4   32.75    1.91
   5  -2  -4   26.23    0.96
  -5   2   4   30.35    1.53
  -5   2   4   33.93    1.37
   5  -2  -3   26.56    0.86
   5  -2  -3   26.22    1.30
  -5   2   3   21.98    1.32
  -5   2   3   21.04    0.92
   5  -2  -2   13.14    0.81
   5  -2  -2   11.00    1.21
  -5   2   2   11.78    1.27
  -5   2   2   12.57    0.58
   5  -2  -1 4332.93  266.73
   5  -2  -1 4244.41  279.78
  -5   2   1 4107.80  283.05
  -5   2   1 4060.27  252.90
   5  -2   0   91.84    3.05
   5  -2   0   95.86    1.88
  -5   2   0   88.17    2.87
  -5   2   0   82.59    1.74
   5  -2   1 2173.82  110.99
   5  -2   1 2115.56   92.17
   5  -2   1 2092.36   91.10
  -5   2  -1 2193.57  111.24
  -5   2  -1 2119.36  107.62
   5  -2   2  685.78   25.01
   5  -2   2  652.29   18.43
   5  -2   2  695.02   19.63
  -5   2  -2  690.78   24.93
   5  -2   3  656.77   23.33
   5  -2   3  627.57   17.73
   5  -2   3  644.94   18.48
  -5   2  -3  669.00   22.78
   5  -2   4  779.86   24.92
   5  -2   4  828.14   33.60
  -5   2  -4  831.57   31.76
  -5   2  -4  806.11   31.04
   5  -2   5   64.77    3.27
   5  -2   5   56.45    1.58
  -5   2  -5   65.38    2.25
  -5   2  -5   60.05    2.68
   5  -2   6    5.57    1.22
   5  -2   6    5.66    0.54
  -5   2  -6    6.48    1.01
  -5   2  -6    8.57    1.00
   5  -2   7    3.33    1.07
   5  -2   7    1.84    0.47
  -5   2  -7    2.07    0.60
  -5   2  -7    1.28    0.80
   5  -2   8   63.61    2.38
  -5   2  -8   57.10    2.70
  -5   2  -8   63.15    3.39
   5  -2   9  919.33   39.69
  -5   2  -9  897.27   42.23
  -5   2  -9  919.61   42.89
   5  -2  10   45.11    2.85
  -5   2 -10   51.34    3.39
  -5   2 -10   53.48    3.40
   5  -2  11  137.28    8.82
  -5   2 -11  114.93    5.55
  -5   2 -11  122.15    6.69
   5  -2  12   13.44    2.40
  -5   2 -12   15.99    2.43
  -5   2 -12   19.90    2.42
   5  -2  13   86.66    7.88
  -5   2 -13   85.12    6.09
  -5   2 -13   75.24    5.97
   5  -2  14    5.41    2.52
  -5   2 -14    6.38    1.95
  -5   2 -14    3.57    1.35
   5  -2  15   78.58    6.90
  -5   2 -15   83.99    5.86
  -5   2 -15   74.95    6.75
   5  -1 -17   22.09    3.82
  -5   1  17   28.10    5.36
   5  -1 -16  147.29   11.96
  -5   1  16  139.23   12.25
   5  -1 -15   82.77    7.73
  -5   1  15   89.91    8.66
  -5   1  15   90.58    6.58
   5  -1 -14  306.89   17.94
  -5   1  14  310.02   16.55
  -5   1  14  277.42   15.71
   5  -1 -13   30.46    3.54
  -5   1  13   28.12    3.05
  -5   1  13   29.50    2.91
   5  -1 -12    6.62    1.86
  -5   1  12    7.79    1.65
  -5   1  12    8.77    1.55
   5  -1 -11  232.73    7.19
   5  -1 -11  248.35   12.35
  -5   1  11  249.60   12.33
  -5   1  11  240.31    9.69
   5  -1 -10  280.24    8.23
   5  -1 -10  301.88   13.52
  -5   1  10  294.39   12.42
   5  -1  -9   77.50    2.19
   5  -1  -9   82.60    4.49
  -5   1   9   79.68    4.04
   5  -1  -8  118.16    2.95
   5  -1  -8  121.82    5.53
  -5   1   8  123.72    5.21
   5  -1  -7 3136.96  176.11
   5  -1  -7 3129.23  197.06
  -5   1   7 3116.83  195.81
   5  -1  -6 1140.59   42.69
   5  -1  -6 1208.13   54.49
  -5   1   6 1222.93   53.24
  -5   1   6 1214.67   53.33
   5  -1  -5  750.06   23.75
   5  -1  -5  754.01   29.19
  -5   1   5  745.77   28.52
  -5   1   5  750.13   27.97
   5  -1  -4   19.93    0.84
   5  -1  -4   19.42    1.19
  -5   1   4   23.40    1.22
  -5   1   4   21.54    1.17
   5  -1  -3  327.75    8.73
   5  -1  -3  342.09   11.21
  -5   1   3  334.16   10.80
  -5   1   3  331.83    9.39
   5  -1  -2   31.70    1.22
  -5   1   2   38.26    1.74
  -5   1   2   34.06    1.08
   5  -1  -1  577.90   18.04
  -5   1   1  576.55   18.70
  -5   1   1  577.73   16.41
   5  -1   0  170.61    4.92
   5  -1   0  178.84    3.72
  -5   1   0  163.97    5.22
  -5   1   0  165.16    3.58
   5  -1   1  825.41   30.10
   5  -1   1  830.99   24.90
  -5   1  -1  792.55   24.54
  -5   1  -1  835.05   29.50
   5  -1   2    9.14    0.40
   5  -1   2    6.98    0.77
   5  -1   2    8.66    0.38
  -5   1  -2    8.31    0.72
  -5   1  -2    8.64    0.83
   5  -1   3    5.68    0.38
   5  -1   3    6.09    0.96
  -5   1  -3    7.00    0.77
   5  -1   4  120.34    3.81
   5  -1   4  112.98    2.66
  -5   1  -4  114.15    3.13
   5  -1   5   64.96    2.89
   5  -1   5   55.02    1.72
  -5   1  -5   53.14    2.22
   5  -1   6  277.21   10.57
   5  -1   6  254.38    7.27
  -5   1  -6  254.47    7.65
  -5   1  -6  270.63    9.35
   5  -1   7   45.21    3.19
   5  -1   7   44.47    1.94
  -5   1  -7   45.54    2.73
  -5   1  -7   48.99    1.97
   5  -1   8   81.24    3.27
  -5   1  -8   88.62    3.80
  -5   1  -8   90.04    4.09
   5  -1   9   81.09    3.48
  -5   1  -9   75.27    3.05
  -5   1  -9   77.09    4.05
   5  -1  10    4.81    1.24
   5  -1  10    5.43    1.10
  -5   1 -10    3.73    1.22
  -5   1 -10    5.46    1.00
   5  -1  11  186.30    8.39
   5  -1  11  192.82    9.25
  -5   1 -11  177.89    8.51
  -5   1 -11  189.75    9.40
   5  -1  12  757.14   36.65
   5  -1  12  759.06   42.96
  -5   1 -12  724.54   36.49
  -5   1 -12  746.57   38.76
   5  -1  13   30.43    4.09
  -5   1 -13   27.90    3.28
  -5   1 -13   28.89    2.34
   5  -1  14   20.88    3.85
  -5   1 -14   16.95    2.86
  -5   1 -14   20.89    2.97
   5  -1  15   13.47    2.67
  -5   1 -15   16.77    3.01
  -5   1 -15   15.53    2.91
   5   0 -17  256.76   21.13
  -5   0  17  262.61   18.78
   5   0 -16   21.56    4.47
  -5   0  16   23.32    3.69
   5   0 -15   47.00    5.90
  -5   0  15   49.81    4.91
   5   0 -14  369.63   21.65
  -5   0  14  323.13   17.46
  -5   0  14  361.80   22.26
   5   0 -13 1131.03   61.88
  -5   0  13 1062.15   57.73
  -5   0  13 1203.75   70.87
   5   0 -12  287.52   13.34
  -5   0  12  272.19   13.06
  -5   0  12  295.48   16.21
   5   0 -11  311.77   11.03
   5   0 -11  332.91   14.19
  -5   0  11  314.92   13.72
  -5   0  11  334.85   14.63
   5   0 -10  130.70    4.17
   5   0 -10  137.00    6.94
  -5   0  10  120.68    4.78
  -5   0  10  133.88    7.17
   5   0  -9  434.03   14.43
   5   0  -9  454.32   19.31
  -5   0   9  445.07   17.36
  -5   0   9  465.51   18.22
   5   0  -8 1177.53   47.30
   5   0  -8 1180.92   53.91
  -5   0   8 1172.68   53.18
   5   0  -7   15.41    0.74
   5   0  -7   16.44    1.57
  -5   0   7   12.17    1.27
   5   0  -6  135.65    5.51
   5   0  -6  138.61    3.71
  -5   0   6  137.10    4.96
   5   0  -5  471.80   13.46
   5   0  -5  474.03   15.92
  -5   0   5  484.19   16.36
   5   0  -4   54.40    1.65
   5   0  -4   54.13    2.44
  -5   0   4   51.05    1.82
   5   0  -3  111.24    2.91
  -5   0   3  112.29    3.66
  -5   0   3  118.19    3.48
   5   0  -2  664.96   20.92
  -5   0   2  662.72   21.68
  -5   0   2  686.14   21.74
   5   0  -1  814.34   27.02
  -5   0   1  827.10   28.56
  -5   0   1  858.41   28.11
   5   0   0    6.70    0.66
  -5   0   0    5.59    0.56
  -5   0   0    6.90    0.50
   5   0   1   54.18    1.89
   5   0   1   57.37    1.75
  -5   0  -1   57.59    2.12
  -5   0  -1   61.20    1.52
   5   0   2  116.03    3.22
   5   0   2  109.46    2.50
  -5   0  -2  116.90    3.09
  -5   0  -2  113.55    3.29
   5   0   3 1254.72   53.90
   5   0   3 1261.11   48.04
  -5   0  -3 1271.52   53.03
  -5   0  -3 1266.91   50.91
   5   0   4  300.27    8.09
   5   0   4  317.80   10.73
  -5   0  -4  322.03    9.29
  -5   0  -4  321.90    9.23
   5   0   5  840.94   29.93
   5   0   5  893.58   34.34
  -5   0  -5  869.58   31.62
   5   0   6   49.58    1.70
   5   0   6   64.18    2.70
  -5   0  -6   46.43    1.96
   5   0   7   29.20    1.51
  -5   0  -7   31.31    1.53
   5   0   8  132.80    4.76
  -5   0  -8  127.26    3.96
  -5   0  -8  139.79    5.58
   5   0   9  163.11    7.70
   5   0   9  144.52    5.69
  -5   0  -9  149.34    5.73
  -5   0  -9  159.50    6.73
   5   0  10  271.93   11.41
   5   0  10  262.25   10.71
  -5   0 -10  248.23    9.87
  -5   0 -10  259.80   11.12
   5   0  11    9.33    1.52
   5   0  11   11.46    1.52
  -5   0 -11    8.73    1.38
  -5   0 -11    9.75    1.66
   5   0  12    9.41    1.98
   5   0  12    5.88    1.54
  -5   0 -12    7.69    1.34
  -5   0 -12    6.36    1.43
   5   0  13  379.02   21.04
   5   0  13  369.60   18.34
  -5   0 -13  331.36   17.64
  -5   0 -13  352.71   16.75
   5   0  14   43.89    4.19
   5   0  14   55.81    5.18
  -5   0 -14   46.83    4.39
  -5   0 -14   41.73    3.77
   5   0  15    8.16    2.52
  -5   0 -15    3.93    1.92
  -5   0 -15    8.76    1.71
   5   0  16   29.26    4.88
  -5   0 -16   33.84    4.54
   5   1 -16   14.29    3.00
  -5  -1  16   14.35    4.12
   5   1 -15   30.42    3.79
  -5  -1  15   40.13    5.30
   5   1 -14    9.63    2.66
  -5  -1  14    8.88    2.18
   5   1 -13  290.54   16.75
  -5  -1  13  266.18   13.11
  -5  -1  13  296.90   17.75
   5   1 -12   12.46    1.47
   5   1 -12   19.34    2.61
  -5  -1  12   12.32    1.83
  -5  -1  12   15.26    2.11
   5   1 -11  400.02   15.40
   5   1 -11  431.02   18.68
  -5  -1  11  444.67   19.70
  -5  -1  11  412.02   16.81
   5   1 -10  692.28   27.33
   5   1 -10  731.46   34.89
  -5  -1  10  696.06   30.02
  -5  -1  10  739.04   33.31
   5   1  -9  140.96    4.85
   5   1  -9  148.18    6.99
  -5  -1   9  143.90    5.71
  -5  -1   9  151.47    7.39
   5   1  -8  150.15    4.78
   5   1  -8  148.28    6.66
  -5  -1   8  149.28    5.48
  -5  -1   8  160.54    7.20
   5   1  -7  705.04   24.60
   5   1  -7  689.32   26.74
  -5  -1   7  676.34   25.49
  -5  -1   7  725.60   28.15
   5   1  -6   62.41    2.16
  -5  -1   6   50.80    2.19
  -5  -1   6   54.27    2.28
   5   1  -5  208.38    5.52
   5   1  -5  209.37    7.19
  -5  -1   5  201.87    6.25
   5   1  -4 1169.47   45.07
  -5  -1   4 1180.31   47.39
   5   1  -3  429.81   12.47
  -5  -1   3  444.14   13.47
   5   1  -2 2807.14  151.57
  -5  -1   2 2867.81  157.10
   5   1  -1   46.30    1.61
   5   1  -1   45.48    1.71
  -5  -1   1   45.47    1.63
  -5  -1   1   47.96    1.60
   5   1   0  120.92    3.44
   5   1   0  120.54    3.31
  -5  -1   0  117.57    2.94
  -5  -1   0  121.91    3.11
   5   1   1  216.89    5.60
   5   1   1  213.83    5.68
  -5  -1  -1  209.38    5.28
  -5  -1  -1  215.24    5.36
   5   1   2 1447.03   61.13
   5   1   2 1458.93   59.19
  -5  -1  -2 1429.50   60.18
  -5  -1  -2 1467.00   59.65
   5   1   3  194.24    4.92
   5   1   3  201.05    6.12
  -5  -1  -3  188.86    4.78
  -5  -1  -3  186.95    4.89
   5   1   4  331.80   10.87
   5   1   4  319.48    8.74
  -5  -1  -4  321.73    8.65
  -5  -1  -4  324.02    9.97
   5   1   5    5.23    0.71
   5   1   5    4.94    0.60
  -5  -1  -5    4.74    0.53
  -5  -1  -5    3.19    0.57
   5   1   6  619.21   21.24
  -5  -1  -6  628.89   20.27
  -5  -1  -6  620.05   21.36
   5   1   7    5.89    0.83
  -5  -1  -7    5.67    0.67
   5   1   8  147.35    5.37
  -5  -1  -8  146.90    4.69
   5   1   9  221.81    9.35
   5   1   9  209.91    7.96
  -5  -1  -9  208.83    7.11
  -5  -1  -9  204.36    7.22
   5   1  10  415.97   18.42
   5   1  10  390.77   15.99
  -5  -1 -10  367.01   13.63
  -5  -1 -10  404.36   16.91
   5   1  11   87.78    4.36
   5   1  11   87.69    4.63
  -5  -1 -11   86.70    3.99
  -5  -1 -11   82.26    4.79
   5   1  12  171.56    8.89
   5   1  12  183.09    9.82
  -5  -1 -12  165.81    7.28
  -5  -1 -12  193.31    9.53
   5   1  13  573.09   30.20
   5   1  13  573.30   28.40
  -5  -1 -13  549.70   25.66
  -5  -1 -13  518.71   23.67
   5   1  14  119.42    6.98
   5   1  14  115.08    7.61
  -5  -1 -14  113.97    7.61
  -5  -1 -14  105.83    6.24
   5   1  15    8.00    2.30
   5   1  15    7.51    2.16
  -5  -1 -15    5.65    1.74
  -5  -1 -15    7.56    2.19
   5   1  16   56.59    6.03
   5   1  16   53.78    6.14
  -5  -1 -16   63.32    6.10
   5   2 -16  109.21   11.44
  -5  -2  16  108.79    9.45
   5   2 -15    5.48    2.82
  -5  -2  15    8.20    3.02
   5   2 -14  144.78   11.33
  -5  -2  14  147.44   11.89
   5   2 -13  188.51   10.36
  -5  -2  13  200.31   11.19
   5   2 -12    8.43    1.48
   5   2 -12   11.05    2.41
  -5  -2  12   12.21    1.90
   5   2 -11  156.71    7.40
   5   2 -11  149.99    6.51
  -5  -2  11  147.26    6.57
  -5  -2  11  165.93    8.26
   5   2 -10   16.76    1.55
   5   2 -10   17.09    2.19
  -5  -2  10   19.78    1.92
  -5  -2  10   14.21    1.56
   5   2  -9  453.28   16.85
   5   2  -9  486.80   21.13
  -5  -2   9  440.73   16.72
  -5  -2   9  472.45   21.35
   5   2  -8   27.97    1.55
   5   2  -8   26.99    1.73
  -5  -2   8   22.04    1.48
  -5  -2   8   20.62    2.41
   5   2  -7  829.21   31.85
   5   2  -7  865.11   36.71
  -5  -2   7  809.88   30.95
  -5  -2   7  860.78   35.74
   5   2  -6 1701.33   80.36
   5   2  -6 1727.98   84.73
  -5  -2   6 1702.82   79.27
  -5  -2   6 1738.99   89.06
   5   2  -5  146.10    4.42
  -5  -2   5  146.77    5.62
  -5  -2   5  139.60    4.20
   5   2  -4  609.68   19.97
  -5  -2   4  614.64   21.16
  -5  -2   4  592.56   19.16
   5   2  -3  302.92    8.62
  -5  -2   3  298.83    8.27
  -5  -2   3  306.40    8.92
   5   2  -2  981.48   35.36
  -5  -2   2  955.31   33.47
   5   2  -1 2063.96   99.11
   5   2  -1 2126.52  100.68
  -5  -2   1 2063.75   97.13
   5   2   0  572.94   18.12
   5   2   0  586.48   17.47
  -5  -2   0  576.46   17.23
   5   2   1 2382.27  121.98
   5   2   1 2385.60  116.94
  -5  -2  -1 2365.86  117.53
   5   2   2  145.48    3.85
   5   2   2  149.48    3.26
  -5  -2  -2  140.45    3.36
  -5  -2  -2  138.26    3.36
   5   2   3  676.41   22.14
   5   2   3  677.23   22.63
  -5  -2  -3  694.79   20.74
  -5  -2  -3  687.18   22.55
   5   2   4    7.12    0.67
   5   2   4    5.93    0.63
  -5  -2  -4    3.83    0.36
  -5  -2  -4    2.83    0.68
   5   2   5   14.03    1.02
   5   2   5   17.10    1.06
  -5  -2  -5   16.72    0.69
   5   2   6  229.84    7.24
  -5  -2  -6  225.09    5.68
  -5  -2  -6  230.93    7.42
   5   2   7 1344.57   60.19
  -5  -2  -7 1318.04   53.32
  -5  -2  -7 1404.70   61.28
   5   2   8   73.33    3.10
   5   2   8   67.72    2.83
  -5  -2  -8   69.90    2.04
   5   2   9   79.07    3.92
   5   2   9   78.89    3.02
  -5  -2  -9   76.17    2.65
   5   2  10  247.62   10.40
   5   2  10  244.42    9.92
  -5  -2 -10  226.61    7.66
   5   2  11  277.72   13.07
   5   2  11  270.41   12.22
  -5  -2 -11  268.00    9.91
  -5  -2 -11  299.88   13.12
   5   2  12  712.94   33.75
   5   2  12  734.48   36.53
  -5  -2 -12  651.95   27.88
  -5  -2 -12  742.33   36.04
   5   2  13   24.21    2.84
   5   2  13   26.55    2.25
  -5  -2 -13   19.84    2.04
  -5  -2 -13   26.95    2.29
   5   2  14   12.33    2.27
   5   2  14    9.36    2.22
  -5  -2 -14   11.14    1.58
  -5  -2 -14   11.00    1.69
   5   2  15    5.44    1.99
   5   2  15    6.55    2.08
  -5  -2 -15    7.80    1.61
   5   2  16   68.29    5.12
   5   2  16   62.58    6.15
  -5  -2 -16   59.79    6.22
   5   2  17   21.71    4.12
   5   2  17   29.85    3.45
  -5  -2 -17   31.64    4.56
   5   3 -15   69.94    8.31
  -5  -3  15   81.73    8.69
   5   3 -14   18.07    3.89
  -5  -3  14   21.75    4.01
   5   3 -13  235.84   12.42
   5   3 -13  275.76   17.08
  -5  -3  13  267.13   14.84
   5   3 -12  302.28   14.37
   5   3 -12  337.78   19.19
  -5  -3  12  319.40   16.34
   5   3 -11  480.39   21.71
   5   3 -11  529.47   24.29
  -5  -3  11  500.82   27.14
   5   3 -10  459.58   19.15
   5   3 -10  494.24   23.62
  -5  -3  10  474.30   21.30
  -5  -3  10  431.57   16.23
   5   3  -9  470.58   18.63
   5   3  -9  473.80   19.52
  -5  -3   9  437.22   15.98
  -5  -3   9  481.32   22.19
   5   3  -8  221.35    8.31
   5   3  -8  223.42    8.18
  -5  -3   8  197.78    6.37
  -5  -3   8  222.40    9.74
   5   3  -7  519.11   18.98
  -5  -3   7  507.80   16.74
  -5  -3   7  527.45   20.15
   5   3  -6  436.22   14.80
  -5  -3   6  399.14   12.37
  -5  -3   6  438.34   17.15
   5   3  -5  392.54   12.65
  -5  -3   5  390.40   14.47
  -5  -3   5  364.20   10.56
   5   3  -4  145.97    4.54
  -5  -3   4  129.48    3.50
  -5  -3   4  140.89    4.53
   5   3  -3  191.28    5.69
   5   3  -3  188.86    5.87
  -5  -3   3  191.60    6.46
  -5  -3   3  178.60    4.38
   5   3  -2  912.25   32.75
   5   3  -2  940.46   33.91
  -5  -3   2  887.97   29.70
  -5  -3   2  942.07   34.76
   5   3  -1    4.73    0.64
   5   3  -1    5.56    0.56
  -5  -3   1    4.62    0.45
  -5  -3   1    2.83    0.52
   5   3   0  640.86   21.31
   5   3   0  665.45   20.14
  -5  -3   0  652.17   19.38
   5   3   1  396.35   11.38
   5   3   1  392.67   10.30
  -5  -3  -1  387.60   10.44
  -5  -3  -1  443.65   10.89
   5   3   2  838.19   29.65
   5   3   2  842.20   26.60
  -5  -3  -2  859.49   28.86
  -5  -3  -2  885.84   27.20
   5   3   3   71.66    2.65
   5   3   3   67.21    1.36
  -5  -3  -3   71.52    1.78
  -5  -3  -3   74.05    1.39
   5   3   4   31.29    1.26
   5   3   4   30.99    1.10
  -5  -3  -4   25.10    1.29
   5   3   5  594.11   20.61
  -5  -3  -5  590.37   15.94
  -5  -3  -5  630.64   21.04
  -5  -3  -5  583.28   16.83
   5   3   6   61.48    2.43
  -5  -3  -6   52.79    1.16
  -5  -3  -6   59.96    2.38
   5   3   7  304.38   10.55
  -5  -3  -7  294.63    7.34
  -5  -3  -7  311.37   10.50
   5   3   8  181.56    6.93
   5   3   8  169.45    5.44
  -5  -3  -8  166.97    4.30
  -5  -3  -8  183.73    6.38
   5   3   9   64.43    2.67
   5   3   9   61.05    3.12
  -5  -3  -9   60.89    1.84
  -5  -3  -9   65.91    2.66
   5   3  10  277.72   11.72
   5   3  10  282.85   11.45
  -5  -3 -10  268.58    8.38
   5   3  11   64.69    3.81
   5   3  11   64.42    3.95
  -5  -3 -11   60.85    2.55
   5   3  12  130.50    6.73
   5   3  12  128.64    6.82
  -5  -3 -12  118.65    4.59
   5   3  13  522.03   25.63
   5   3  13  533.28   26.67
  -5  -3 -13  503.86   20.71
  -5  -3 -13  555.96   25.16
   5   3  14   11.72    2.27
   5   3  14   14.59    2.53
  -5  -3 -14   16.13    2.02
   5   3  15    9.85    1.72
   5   3  15   11.52    2.45
  -5  -3 -15   13.05    2.47
   5   3  16    0.40    1.46
   5   3  16    2.65    1.31
  -5  -3 -16    3.10    1.77
   5   3  17  101.18    8.33
   5   3  17  100.32    7.10
  -5  -3 -17  115.58    7.65
   5   4 -15    4.12    2.21
  -5  -4  15    5.76    2.92
   5   4 -14   35.42    5.70
  -5  -4  14   41.23    5.77
   5   4 -13   50.46    4.41
   5   4 -13   60.71    6.15
  -5  -4  13   48.91    4.87
   5   4 -12   16.47    2.29
   5   4 -12   14.84    2.96
  -5  -4  12   11.87    2.34
   5   4 -11    1.11    0.80
   5   4 -11    0.71    1.37
  -5  -4  11    1.27    1.08
   5   4 -10    7.10    1.52
   5   4 -10    8.95    1.95
  -5  -4  10    8.65    1.59
   5   4  -9    4.69    1.12
   5   4  -9    4.14    1.23
  -5  -4   9    4.84    1.58
   5   4  -8   23.42    1.95
  -5  -4   8   19.86    1.04
  -5  -4   8   27.07    2.50
   5   4  -7  139.58    5.66
  -5  -4   7  134.74    3.83
  -5  -4   7  137.79    5.60
   5   4  -6  117.70    4.41
  -5  -4   6  107.24    2.82
  -5  -4   6  116.50    4.50
   5   4  -5   21.85    1.11
  -5  -4   5   17.48    1.71
  -5  -4   5   16.57    0.67
   5   4  -4 1352.40   59.52
   5   4  -4 1408.06   63.15
  -5  -4   4 1358.01   52.68
  -5  -4   4 1387.77   65.19
  -5  -4   4 1465.48   56.14
   5   4  -3 2771.53  155.12
   5   4  -3 2745.99  153.98
   5   4  -3 2724.44  137.43
  -5  -4   3 2739.91  139.62
  -5  -4   3 2814.97  163.26
   5   4  -2 1207.80   50.49
   5   4  -2 1285.32   46.69
   5   4  -2 1232.76   50.04
  -5  -4   2 1168.16   41.92
  -5  -4   2 1206.68   50.81
   5   4  -1 1054.53   40.81
   5   4  -1 1131.07   39.36
   5   4  -1 1093.99   40.63
  -5  -4   1 1094.27   42.94
  -5  -4   1 1052.34   35.79
   5   4   0 1481.33   64.60
   5   4   0 1483.06   59.44
  -5  -4   0 1461.33   56.30
  -5  -4   0 1513.64   67.14
   5   4   1  694.14   24.00
   5   4   1  690.32   20.30
  -5  -4  -1  694.52   20.76
  -5  -4  -1  731.51   20.79
  -5  -4  -1  678.47   24.01
   5   4   2 1309.01   47.84
   5   4   2 1319.13   55.12
  -5  -4  -2 1352.54   52.35
  -5  -4  -2 1373.73   58.74
  -5  -4  -2 1456.70   52.44
   5   4   3  123.86    4.11
   5   4   3  120.95    2.34
  -5  -4  -3  120.26    3.17
  -5  -4  -3  125.39    2.32
   5   4   4  307.66    8.85
  -5  -4  -4  313.42    6.50
  -5  -4  -4  326.39    9.08
  -5  -4  -4  297.69    6.05
   5   4   5  558.15   19.52
  -5  -4  -5  539.96   13.27
  -5  -4  -5  568.55   18.55
  -5  -4  -5  562.19   14.50
   5   4   6   77.52    3.20
  -5  -4  -6   79.86    1.71
  -5  -4  -6   79.75    3.06
   5   4   7  527.91   18.73
   5   4   7  502.82   17.18
  -5  -4  -7  465.03   12.00
  -5  -4  -7  494.30   12.49
  -5  -4  -7  525.63   17.12
   5   4   8  286.13   10.32
   5   4   8  293.53   10.77
  -5  -4  -8  276.66    6.67
  -5  -4  -8  304.20   10.57
   5   4   9   35.85    1.79
   5   4   9   39.04    1.76
  -5  -4  -9   31.59    2.21
   5   4  10  143.88    6.12
   5   4  10  143.92    6.27
  -5  -4 -10  128.58    3.55
  -5  -4 -10  152.60    6.40
   5   4  11  174.48    7.47
   5   4  11  176.93    7.05
  -5  -4 -11  154.90    4.69
  -5  -4 -11  182.20    7.07
   5   4  12    6.97    1.01
   5   4  12    6.36    1.63
  -5  -4 -12    6.84    0.83
   5   4  13    4.74    1.35
   5   4  13    5.79    1.56
  -5  -4 -13    3.93    0.81
   5   4  14   12.23    2.25
   5   4  14    9.68    1.84
  -5  -4 -14   10.40    1.74
   5   4  15   27.18    3.69
   5   4  15   28.33    3.06
  -5  -4 -15   32.00    3.67
   5   4  16    1.93    1.47
   5   4  16    3.81    1.89
  -5  -4 -16    3.16    1.47
   5   4  17   26.96    4.54
   5   4  17   30.01    3.52
  -5  -4 -17   28.09    4.53
   5   4  18   -0.29    1.07
   5   4  18    2.82    1.86
  -5  -4 -18    2.43    1.88
   5   5 -14    5.58    2.25
  -5  -5  14    7.00    3.00
   5   5 -13  542.04   32.18
   5   5 -13  629.31   39.52
  -5  -5  13  604.15   39.25
   5   5 -12  141.86    9.29
   5   5 -12  157.09   11.19
  -5  -5  12  149.93    9.28
   5   5 -11   77.96    5.35
   5   5 -11   79.90    6.67
  -5  -5  11   75.85    5.26
   5   5 -10   67.28    4.41
   5   5 -10   65.52    5.37
  -5  -5  10   59.18    5.55
   5   5  -9   54.30    3.94
  -5  -5   9   69.41    3.84
   5   5  -8 1334.36   68.75
  -5  -5   8 1344.96   69.86
   5   5  -7   78.10    3.90
  -5  -5   7   66.27    3.58
   5   5  -6  874.27   37.29
  -5  -5   6  859.31   36.34
  -5  -5   6  812.09   26.80
   5   5  -5  183.06    6.83
   5   5  -5  189.36    7.00
  -5  -5   5  168.37    3.92
  -5  -5   5  181.09    7.47
   5   5  -4  177.12    5.61
   5   5  -4  182.64    5.63
  -5  -5   4  177.43    3.77
  -5  -5   4  185.19    7.09
  -5  -5   4  182.05    3.83
   5   5  -3  131.34    4.36
   5   5  -3  126.32    4.02
  -5  -5   3  123.58    2.49
  -5  -5   3  119.53    2.33
  -5  -5   3  124.69    4.94
   5   5  -2   82.06    2.68
   5   5  -2   77.37    1.65
   5   5  -2   84.53    2.82
  -5  -5   2   75.63    1.43
  -5  -5   2   80.26    2.78
   5   5  -1 1745.83   83.41
   5   5  -1 1722.87   77.26
   5   5  -1 1738.63   70.27
  -5  -5   1 1727.16   68.92
  -5  -5   1 1768.62   85.67
   5   5   0  436.69   13.57
   5   5   0  473.64   12.03
   5   5   0  452.30   12.69
  -5  -5   0  435.83   10.52
  -5  -5   0  432.63   13.85
   5   5   1  127.64    2.76
   5   5   1  124.88    3.61
  -5  -5  -1  126.34    2.58
  -5  -5  -1  130.55    4.35
   5   5   2  440.26   13.59
   5   5   2  459.30   11.48
  -5  -5  -2  439.35   11.77
  -5  -5  -2  445.15   14.98
  -5  -5  -2  458.76   10.84
   5   5   3  724.47   25.94
   5   5   3  669.25   18.12
  -5  -5  -3  731.41   22.84
  -5  -5  -3  706.22   18.39
  -5  -5  -3  716.15   24.99
   5   5   4   58.18    1.99
  -5  -5  -4   62.76    1.91
  -5  -5  -4   56.19    0.75
   5   5   5  942.80   38.03
  -5  -5  -5  908.62   32.15
   5   5   6 4290.16  276.55
   5   5   6 4182.26  270.76
  -5  -5  -6 4206.40  261.58
  -5  -5  -6 3178.73  173.67
   5   5   7 4614.22  314.53
   5   5   7 4543.66  311.97
  -5  -5  -7 4580.97  271.63
  -5  -5  -7 3365.76  197.78
  -5  -5  -7 4549.81  303.35
   5   5   8  506.91   18.24
   5   5   8  498.03   19.12
  -5  -5  -8  450.50   11.37
  -5  -5  -8  517.68   18.67
   5   5   9   38.04    2.07
   5   5   9   36.26    1.82
  -5  -5  -9   32.14    2.22
   5   5  10  231.92    9.76
   5   5  10  230.24    8.85
  -5  -5 -10  203.35    5.18
  -5  -5 -10  235.60    8.17
   5   5  11    3.73    0.88
   5   5  11    2.67    0.94
  -5  -5 -11    1.71    0.39
  -5  -5 -11    4.40    1.06
   5   5  12  625.37   27.41
   5   5  12  653.02   31.57
  -5  -5 -12  584.57   20.80
  -5  -5 -12  659.89   27.98
   5   5  13    7.02    1.48
   5   5  13   10.68    1.90
   5   5  14  204.88   10.36
   5   5  14  214.57   12.62
   5   5  15    3.80    1.97
   5   5  15    6.07    1.49
   5   5  16    2.28    1.22
   5   5  16    0.34    1.76
  -5  -5 -16    1.87    1.71
   5   5  17    4.73    1.64
   5   5  17    4.61    1.78
  -5  -5 -17    3.08    2.36
   5   5  18   13.15    2.63
   5   5  18   14.79    3.73
  -5  -5 -18   15.35    2.93
   5   6 -13    9.86    2.64
   5   6 -13    5.24    3.20
  -5  -6  13   10.23    3.04
   5   6 -12   23.30    3.45
   5   6 -12   25.24    3.33
  -5  -6  12   19.48    4.03
   5   6 -11   28.22    3.27
   5   6 -11   21.11    3.76
  -5  -6  11   20.68    3.83
   5   6 -10  253.65   12.09
  -5  -6  10  276.54   15.57
   5   6  -9  167.70    7.77
  -5  -6   9  171.45   10.07
   5   6  -8  398.26   18.62
  -5  -6   8  394.21   19.78
   5   6  -7 1556.75   85.63
  -5  -6   7 1578.23   88.66
   5   6  -6  360.68   15.23
   5   6  -6  364.57   15.16
  -5  -6   6  357.50   15.64
   5   6  -5  195.09    8.22
   5   6  -5  199.15    6.94
  -5  -6   5  192.81    8.40
   5   6  -4   19.70    1.38
   5   6  -4   22.68    1.22
  -5  -6   4   22.43    1.81
   5   6  -3   64.74    3.09
   5   6  -3   63.75    2.23
  -5  -6   3   66.59    2.67
   5   6  -2  710.31   26.43
   5   6  -2  679.07   23.63
  -5  -6   2  624.44   15.75
  -5  -6   2  686.52   26.21
   5   6  -1  348.80   12.21
   5   6  -1  355.22    7.85
   5   6  -1  333.85    9.51
  -5  -6   1  337.59    6.94
  -5  -6   1  352.77   12.57
   5   6   0   23.87    1.13
   5   6   0   19.05    0.61
   5   6   0   19.05    0.94
  -5  -6   0   23.13    1.49
   5   6   1 4293.73  297.99
   5   6   1 4355.02  271.62
   5   6   1 4312.39  275.49
  -5  -6  -1 4237.15  261.48
  -5  -6  -1 4307.22  298.24
   5   6   2   39.05    1.84
   5   6   2   32.67    0.96
  -5  -6  -2   39.58    1.49
   5   6   3  557.04   13.98
  -5  -6  -3  558.56   13.61
  -5  -6  -3  544.60   15.86
  -5  -6  -3  551.70   19.90
  -5  -6  -4   23.60    0.32
  -5  -6  -4   25.25    1.03
  -5  -6  -4   21.81    1.63
   5   6   5 2612.38  145.43
  -5  -6  -5 2505.23  130.46
   5   6   6    3.42    0.80
   5   6   6    2.98    0.65
  -5  -6  -6    4.33    0.66
   5   6   7 2236.28  122.47
   5   6   7 2341.89  132.05
  -5  -6  -7 2420.27  129.04
   5   6   8  487.40   17.88
   5   6   8  480.64   17.77
  -5  -6  -8  511.41   18.69
   5   6   9  263.13    5.87
   5   6   9  282.20   11.44
   5   6   9  268.60    9.66
  -5  -6  -9  279.22    9.32
   5   6  10   56.96    2.77
   5   6  10   53.71    2.62
  -5  -6 -10   59.80    2.46
   5   6  11  443.72   18.04
   5   6  11  457.18   20.93
  -5  -6 -11  461.16   17.85
   5   6  12    8.05    1.32
   5   6  12    8.87    1.37
  -5  -6 -12    9.37    1.30
   5   6  13  235.25   12.35
   5   6  13  214.94    9.64
  -5  -6 -13  238.10   11.98
   5   6  14    5.95    1.24
   5   6  14    3.60    1.74
  -5  -6 -14    1.52    1.75
   5   6  15    4.23    1.36
   5   6  15    5.27    1.49
   5   6  16  122.04    8.59
   5   6  16   93.14    6.17
   5   6  17   84.01    5.89
   5   6  17   94.57    7.02
  -5  -6 -17   85.27    6.47
   5   6  18  115.67    8.51
   5   6  18  140.79   10.19
  -5  -6 -18  137.02    9.54
   5   7 -13  151.22   12.79
   5   7 -13  153.60   14.43
  -5  -7  13  150.05   11.17
   5   7 -12  275.12   15.83
   5   7 -12  297.38   21.34
  -5  -7  12  283.26   20.02
   5   7 -11   43.52    4.81
  -5  -7  11   39.95    5.36
   5   7 -10   57.44    4.28
  -5  -7  10   60.03    4.50
   5   7  -9  933.97   48.78
  -5  -7   9  959.22   54.40
   5   7  -8   52.99    4.36
  -5  -7   8   51.50    4.34
   5   7  -7   16.31    2.41
   5   7  -7   17.16    2.38
  -5  -7   7   20.00    1.91
   5   7  -6   77.27    4.72
   5   7  -6   81.43    4.55
  -5  -7   6   73.34    4.85
   5   7  -5 1651.15   89.35
   5   7  -5 1681.38   88.85
  -5  -7   5 1650.89   89.91
   5   7  -4  104.16    4.92
   5   7  -4   95.18    4.48
  -5  -7   4  102.45    4.95
   5   7  -3  389.48   15.29
   5   7  -3  388.76   14.05
  -5  -7   3  385.59   13.87
   5   7  -2  186.49    6.40
   5   7  -2  202.00    6.51
  -5  -7   2  194.57    6.48
   5   7  -1  117.82    4.83
   5   7  -1  115.90    3.72
  -5  -7   1  118.59    4.77
   5   7   0  198.73    3.71
   5   7   0  194.47    6.89
   5   7   0  176.36    4.91
  -5  -7   0  189.77    5.95
  -5  -7   0  172.09    3.08
   5   7   1    5.11    0.69
   5   7   1    4.46    0.39
   5   7   1    3.37    0.30
  -5  -7  -1    5.97    0.65
   5   7   2  845.29   26.96
  -5  -7  -2  839.35   26.46
  -5  -7  -2  880.31   35.50
   5   7   3   23.95    0.64
  -5  -7  -3   23.89    0.56
  -5  -7  -3   24.93    0.81
   5   7   4 1873.23   74.62
  -5  -7  -4 1852.99   73.23
  -5  -7  -4 1983.00   91.03
  -5  -7  -4 1991.40   99.79
   5   7   5   55.63    2.38
   5   7   5   48.43    2.10
  -5  -7  -5   51.75    1.87
   5   7   6   17.04    1.06
   5   7   6   17.41    1.51
  -5  -7  -6   14.83    1.09
   5   7   7 2744.80  163.56
   5   7   7 2837.78  171.25
  -5  -7  -7 2886.75  167.41
   5   7   8  286.00   10.07
   5   7   8  291.16   10.46
  -5  -7  -8  294.38    9.37
   5   7   9    7.17    1.07
   5   7   9    7.25    1.34
  -5  -7  -9    9.64    1.18
   5   7  10  284.37    6.30
   5   7  10  321.45   11.83
   5   7  10  338.03   13.12
  -5  -7 -10  368.36   14.24
   5   7  11    3.85    0.31
   5   7  11    3.97    1.35
   5   7  11    5.63    0.99
  -5  -7 -11    4.70    0.95
   5   7  12   26.19    2.30
   5   7  12   25.65    2.14
  -5  -7 -12   30.93    2.14
   5   7  13   76.66    4.47
   5   7  13  109.68    6.29
  -5  -7 -13  108.94    5.92
   5   7  14  151.98    7.50
   5   7  14  164.32   10.29
  -5  -7 -14  176.35   10.09
   5   7  15   54.91    3.85
   5   7  15   67.99    4.49
  -5  -7 -15   71.92    5.64
   5   7  16  150.14    8.06
   5   7  16  179.65   12.21
   5   7  17  182.39   11.50
   5   7  17  163.25    9.21
   5   7  18    4.85    2.56
   5   7  18    3.66    1.43
   5   7  19   69.49    9.90
  -5  -7 -19   85.86    9.69
   5   8 -12  440.77   30.28
  -5  -8  12  416.21   29.85
   5   8 -11  308.61   20.71
  -5  -8  11  299.50   20.68
   5   8 -10  116.65    9.59
  -5  -8  10  131.06    9.61
   5   8  -9   65.95    5.97
  -5  -8   9   59.98    5.77
   5   8  -8  274.56   15.38
   5   8  -8  262.94   12.98
  -5  -8   8  259.47   12.59
   5   8  -7   78.10    5.59
   5   8  -7   77.71    5.40
  -5  -8   7   71.07    5.53
   5   8  -6 1235.52   67.79
   5   8  -6 1242.15   66.14
  -5  -8   6 1206.56   61.72
   5   8  -5  400.95   16.90
   5   8  -5  408.86   17.82
  -5  -8   5  423.02   17.35
   5   8  -4  254.60   11.53
   5   8  -4  241.35   10.21
  -5  -8   4  258.99   11.25
   5   8  -3   66.76    3.88
   5   8  -3   67.76    3.09
  -5  -8   3   62.06    3.65
   5   8  -2  104.91    4.83
   5   8  -2   99.28    3.29
  -5  -8   2   95.33    4.63
   5   8  -1  280.85   10.72
   5   8  -1  265.76    8.57
  -5  -8   1  273.44   10.68
   5   8   0  742.97   26.74
   5   8   0  813.14   33.32
  -5  -8   0  777.45   32.17
   5   8   1  168.93    6.12
   5   8   1  154.89    4.12
   5   8   1  157.54    2.88
  -5  -8  -1  161.73    5.24
   5   8   2   72.11    1.41
   5   8   2   62.64    1.57
  -5  -8  -2   61.56    1.34
  -5  -8  -2   66.62    2.58
   5   8   3   98.60    2.22
  -5  -8  -3  103.61    2.24
  -5  -8  -3   99.79    2.40
  -5  -8  -3  104.18    3.57
   5   8   4   75.00    3.28
  -5  -8  -4   76.04    1.54
  -5  -8  -4   78.82    2.14
  -5  -8  -4   81.93    3.60
   5   8   5  521.39   19.23
   5   8   5  517.93   17.87
  -5  -8  -5  527.48   17.04
   5   8   6   37.25    1.99
   5   8   6   35.20    1.84
  -5  -8  -6   28.73    1.59
   5   8   7  245.10    7.81
   5   8   7  244.64    8.69
  -5  -8  -7  234.33    8.14
   5   8   8   81.30    3.34
   5   8   8   72.78    3.23
  -5  -8  -8   68.33    2.61
   5   8   9   59.08    2.88
   5   8   9   66.36    3.50
  -5  -8  -9   54.63    2.49
   5   8  10   51.66    2.49
   5   8  10   44.63    3.28
  -5  -8 -10   41.48    2.20
   5   8  11   72.48    3.65
   5   8  11   72.78    4.03
  -5  -8 -11   93.99    4.47
   5   8  12  104.39    4.81
   5   8  12  110.86    6.63
  -5  -8 -12  103.14    4.97
   5   8  13  529.95   27.70
   5   8  13  490.99   20.82
  -5  -8 -13  529.02   26.44
   5   8  14    8.21    2.11
   5   8  14    6.30    1.24
  -5  -8 -14    7.74    1.50
   5   8  15    2.21    1.55
   5   8  15    1.07    0.76
  -5  -8 -15    1.36    1.44
   5   8  16   35.44    2.98
   5   8  16   41.41    3.97
  -5  -8 -16   46.74    3.80
   5   8  17  169.04   11.28
   5   8  17  110.59    6.85
  -5  -8 -17  138.96    9.03
   5   8  18   64.64    6.93
   5   8  18   49.05    3.97
   5   8  19   42.65    5.47
   5   9 -11   76.38    8.25
  -5  -9  11   68.15    5.91
   5   9 -10  166.45   11.00
   5   9 -10  168.10   10.94
  -5  -9  10  166.27   12.30
   5   9  -9  243.16   16.47
   5   9  -9  245.21   16.05
  -5  -9   9  231.37   15.32
   5   9  -8  108.77    8.63
   5   9  -8  107.39    6.67
  -5  -9   8  115.52    7.87
   5   9  -7  425.45   21.47
   5   9  -7  441.99   23.90
  -5  -9   7  441.53   20.94
   5   9  -6   17.17    2.91
   5   9  -6   18.67    1.89
  -5  -9   6   19.45    2.61
   5   9  -5  203.98    9.49
   5   9  -5  207.54   10.18
  -5  -9   5  192.75   10.25
   5   9  -4 1458.66   79.40
   5   9  -4 1501.00   79.69
  -5  -9   4 1499.77   81.45
   5   9  -3 1078.90   54.92
   5   9  -3 1062.20   49.75
  -5  -9   3 1055.10   52.00
   5   9  -2  571.65   25.15
   5   9  -2  550.97   21.86
  -5  -9   2  561.90   24.28
   5   9  -1   16.45    1.46
   5   9  -1   16.19    1.33
  -5  -9   1   18.29    1.41
   5   9   0  168.51    7.18
   5   9   0  160.47    5.25
  -5  -9   0  162.56    6.88
   5   9   1  597.13   15.13
   5   9   1  618.68   15.39
   5   9   1  648.90   21.66
  -5  -9  -1  670.33   26.64
   5   9   2  343.60    7.88
   5   9   2  372.14   10.10
  -5  -9  -2  401.86   13.74
  -5  -9  -2  352.31    8.96
   5   9   3  848.39   28.62
  -5  -9  -3  914.72   39.40
  -5  -9  -3  880.22   29.95
   5   9   4   27.56    1.48
  -5  -9  -4   32.20    2.05
  -5  -9  -4   27.32    1.00
   5   9   5    2.16    0.17
   5   9   5    2.25    0.20
   5   9   6   19.50    1.76
  -5  -9  -6   23.37    1.54
   5   9   7   84.60    3.76
  -5  -9  -7   91.45    3.74
   5   9   8 1266.28   63.34
   5   9   8 1200.51   55.17
  -5  -9  -8 1194.48   56.32
   5   9   9   78.97    3.14
   5   9   9   55.64    4.03
  -5  -9  -9   65.10    3.33
   5   9  10    5.96    1.03
   5   9  10    6.45    1.48
  -5  -9 -10    6.40    1.24
   5   9  11   64.47    3.48
   5   9  11   60.85    2.70
  -5  -9 -11   58.37    3.12
   5   9  12   70.51    3.81
   5   9  12   88.51    5.57
  -5  -9 -12   89.28    4.22
   5   9  13   27.58    2.16
   5   9  13   30.86    3.50
  -5  -9 -13   30.23    2.42
   5   9  14  374.05   20.44
   5   9  14  315.20   12.89
  -5  -9 -14  354.63   19.01
   5   9  15    0.84    0.77
   5   9  15    1.38    1.27
  -5  -9 -15    4.77    1.19
   5   9  16    0.53    0.78
   5   9  16    0.80    1.54
  -5  -9 -16    0.60    1.16
   5   9  17   23.51    2.47
   5   9  17   25.13    3.47
  -5  -9 -17   35.52    4.57
   5   9  18   94.98    9.79
  -5  -9 -18   94.48    9.90
   5   9  19   14.82    4.27
   5  10 -10   76.56    8.42
   5  10 -10   71.66    8.21
  -5 -10  10   67.22    5.85
   5  10  -9   79.56    7.55
   5  10  -9   71.57    5.80
  -5 -10   9   58.70    6.71
   5  10  -8  149.78    9.74
   5  10  -8  150.41   11.04
  -5 -10   8  152.63   10.69
   5  10  -7  105.36    9.04
   5  10  -7  105.52    7.85
  -5 -10   7  114.92    7.70
   5  10  -6  692.70   39.34
   5  10  -6  660.58   35.43
  -5 -10   6  650.46   31.95
   5  10  -5 1132.90   62.12
   5  10  -5 1146.95   62.71
  -5 -10   5 1132.58   61.68
   5  10  -4  208.28   10.00
   5  10  -4  208.94   10.05
  -5 -10   4  212.40   10.55
   5  10  -3    4.14    1.69
   5  10  -3    4.97    1.29
  -5 -10   3    5.87    1.46
   5  10  -2  242.22   10.29
   5  10  -2  238.31    8.62
  -5 -10   2  238.79    9.54
   5  10  -1  305.89   12.55
   5  10  -1  310.86   10.72
  -5 -10   1  313.21   13.77
   5  10   0    6.65    0.89
  -5 -10   0    4.84    1.26
   5  10   1  252.45    8.20
  -5 -10  -1  258.22   10.73
   5  10   2    4.64    0.64
  -5 -10  -2    6.81    1.15
   5  10   3  409.67   14.62
   5  10   3  371.41   10.80
  -5 -10  -3  378.69   10.41
  -5 -10  -3  405.46   16.15
   5  10   4  218.37    8.27
   5  10   4  188.11    4.49
  -5 -10  -4  216.22    8.54
  -5 -10  -4  188.13    5.17
   5  10   5  392.41   13.38
   5  10   5  403.90   14.57
   5  10   5  340.88    8.65
  -5 -10  -5  380.88   12.00
   5  10   6  138.87    5.69
  -5 -10  -6  136.13    4.63
   5  10   7   39.58    2.17
  -5 -10  -7   31.08    1.88
   5  10   8   47.82    2.19
  -5 -10  -8   47.04    2.14
   5  10   9  266.99   10.27
  -5 -10  -9  242.54   10.27
   5  10  10  152.70    6.26
  -5 -10 -10  148.30    7.00
   5  10  11  304.20   11.94
   5  10  11  337.52   16.38
  -5 -10 -11  312.45   12.97
   5  10  12   73.09    3.97
   5  10  12  107.62    5.90
  -5 -10 -12   99.04    5.44
   5  10  13   10.40    1.39
   5  10  13   10.99    2.39
  -5 -10 -13   14.86    2.16
   5  10  14  377.39   15.87
   5  10  14  447.86   24.64
  -5 -10 -14  435.23   23.91
   5  10  15   22.40    1.74
   5  10  15   28.43    2.91
  -5 -10 -15   25.83    3.67
   5  10  16    6.34    1.07
   5  10  16    8.09    2.58
  -5 -10 -16    8.13    2.54
   5  10  17  128.00    6.40
   5  10  17  166.98   10.60
  -5 -10 -17  166.62   10.48
   5  10  18   16.38    3.93
  -5 -10 -18   11.80    3.87
   5  10  19    2.91    2.94
  -5 -10 -19    5.45    2.84
   5  11  -9   22.08    3.87
   5  11  -9   21.79    4.63
   5  11  -8   14.15    2.59
   5  11  -8    8.03    2.35
  -5 -11   8   10.88    2.80
   5  11  -7   81.84    5.86
   5  11  -7   54.83    6.31
  -5 -11   7   63.98    6.07
   5  11  -6  148.51    9.10
   5  11  -6  149.91    9.73
  -5 -11   6  144.81    9.44
   5  11  -5   90.56    7.31
   5  11  -5   85.52    5.13
  -5 -11   5   82.83    6.13
   5  11  -4   46.41    4.57
   5  11  -4   41.17    3.82
  -5 -11   4   49.96    3.96
   5  11  -3   61.84    5.53
   5  11  -3   71.98    4.21
  -5 -11   3   60.48    3.69
   5  11  -2    9.40    1.57
   5  11  -2   11.02    1.15
  -5 -11   2    8.00    1.37
   5  11  -1  506.97   24.40
   5  11  -1  453.90   19.16
  -5 -11   1  476.29   21.68
   5  11   0  133.87    5.57
  -5 -11   0  142.54    6.89
   5  11   1  555.96   21.38
  -5 -11  -1  587.85   25.98
   5  11   2   27.12    0.48
   5  11   2   21.39    0.41
   5  11   3    6.68    0.96
   5  11   3    3.76    0.57
  -5 -11  -3    4.58    1.21
   5  11   4  300.92   11.18
   5  11   4  272.07    7.78
  -5 -11  -4  316.43   13.40
   5  11   5  475.17   17.81
   5  11   5  408.15   11.60
   5  11   5  493.42   20.62
  -5 -11  -5  450.43   15.00
   5  11   6    0.42    0.24
   5  11   6    0.70    0.73
   5  11   6    1.33    0.89
   5  11   6    0.81    0.20
  -5 -11  -6    0.56    0.50
   5  11   7  224.45    7.99
   5  11   7  233.77   10.32
  -5 -11  -7  214.03    7.97
   5  11   8   73.77    3.76
   5  11   8   76.62    4.77
  -5 -11  -8   67.10    3.57
   5  11   9    3.20    0.90
  -5 -11  -9    1.48    0.71
   5  11  10  814.54   36.45
  -5 -11 -10  812.14   39.92
   5  11  11  372.40   15.24
  -5 -11 -11  397.84   18.69
   5  11  12   21.40    1.84
  -5 -11 -12   26.70    2.79
   5  11  13   72.13    3.45
   5  11  13   85.25    4.78
  -5 -11 -13   74.64    4.45
   5  11  14  129.65    5.54
   5  11  14  159.10    8.55
  -5 -11 -14  157.34   10.01
   5  11  15   67.91    3.69
   5  11  15   71.94    6.87
  -5 -11 -15   79.39    5.27
   5  11  16   56.87    5.00
  -5 -11 -16   53.99    4.79
   5  11  17   62.47    6.59
  -5 -11 -17   41.48    5.08
   5  11  18   11.64    3.56
  -5 -11 -18   11.32    3.56
   5  11  19   32.18    5.06
  -5 -11 -19   39.18    6.31
   5  12  -8    5.27    2.25
   5  12  -8    4.13    2.71
   5  12  -7   33.00    5.01
   5  12  -7   22.59    3.21
   5  12  -6   61.05    5.13
   5  12  -6   57.82    5.63
  -5 -12   6   50.20    5.44
   5  12  -5   73.77    7.84
   5  12  -5   78.31    6.47
  -5 -12   5   89.43    5.21
   5  12  -4   30.47    3.55
   5  12  -4   35.53    3.55
  -5 -12   4   37.08    2.85
   5  12  -3    2.20    1.52
   5  12  -3    0.94    1.10
  -5 -12   3    1.52    1.21
   5  12  -2   54.44    4.20
   5  12  -2   64.14    3.85
  -5 -12   2   64.01    4.43
   5  12  -1   53.05    2.62
  -5 -12   1   51.63    3.95
   5  12   0   68.89    3.67
  -5 -12   0   78.07    4.51
   5  12   1   11.34    1.23
  -5 -12  -1   11.76    1.83
   5  12   2    7.35    1.71
   5  12   2    5.00    0.93
  -5 -12  -2   11.34    1.52
   5  12   3    4.82    1.40
   5  12   3    4.42    0.40
   5  12   3    6.40    0.70
  -5 -12  -3    6.47    1.01
   5  12   4  241.34   10.55
   5  12   4  190.78    5.58
   5  12   4  212.48    6.28
  -5 -12  -4  223.37   10.15
   5  12   5    2.50    0.55
   5  12   5    5.23    1.19
   5  12   5    4.48    0.41
   5  12   5    4.94    0.96
   5  12   6  140.77    6.69
   5  12   6  148.60    7.24
  -5 -12  -6  122.51    4.30
   5  12   7  749.09   33.62
   5  12   7  746.17   36.01
  -5 -12  -7  688.53   28.29
   5  12   8  501.93   21.69
   5  12   8  517.62   22.71
  -5 -12  -8  494.27   20.81
   5  12   9  200.16    8.84
   5  12   9  217.57   11.17
  -5 -12  -9  193.93    9.18
   5  12  10   32.17    2.33
   5  12  10   32.64    3.23
  -5 -12 -10   28.97    2.59
   5  12  11 1169.65   58.91
   5  12  11 1290.58   71.26
  -5 -12 -11 1156.74   65.01
   5  12  12   26.13    2.09
  -5 -12 -12   29.93    3.05
   5  12  13  481.52   19.80
  -5 -12 -13  514.03   27.84
   5  12  14   69.51    3.81
  -5 -12 -14   94.94    6.36
   5  12  15  259.84   11.28
  -5 -12 -15  326.51   18.65
   5  12  16    0.91    2.13
  -5 -12 -16    3.66    1.52
   5  12  17   28.24    4.17
  -5 -12 -17   38.60    5.08
   5  12  18   28.50    4.24
  -5 -12 -18   28.35    5.32
   5  12  19   13.27    4.47
  -5 -12 -19   15.27    4.46
   5  13  -6   89.65    8.13
   5  13  -6  102.96    8.35
   5  13  -5    4.94    2.16
   5  13  -5    9.74    2.28
   5  13  -4  194.84   14.28
   5  13  -4  167.96   11.02
  -5 -13   4  166.96   10.75
   5  13  -3   23.04    4.23
   5  13  -3   24.90    3.12
  -5 -13   3   29.08    3.21
   5  13  -2   52.23    3.88
  -5 -13   2   51.91    4.28
   5  13  -1   45.99    3.35
  -5 -13   1   54.50    3.97
   5  13   0  153.53    7.32
  -5 -13   0  157.05    8.52
   5  13   1    8.09    1.98
   5  13   1    6.57    1.13
  -5 -13  -1    6.75    1.65
   5  13   2    6.85    1.72
   5  13   2    5.60    0.94
  -5 -13  -2    3.56    1.45
   5  13   3   15.57    2.18
   5  13   3   11.49    0.96
  -5 -13  -3   12.41    1.95
   5  13   4  153.06    4.50
   5  13   4  180.80    7.61
   5  13   4  145.07    4.70
   5  13   5  264.29   11.92
   5  13   5  207.69    6.72
   5  13   5  201.94    6.36
   5  13   5  265.64   10.33
   5  13   6  276.20   10.17
   5  13   6  298.25   13.66
   5  13   6  308.19   14.66
   5  13   7   66.14    4.18
   5  13   7   60.30    2.97
   5  13   7   49.60    2.24
   5  13   8  185.45    8.46
   5  13   8  186.47    8.69
  -5 -13  -8  183.58    7.79
   5  13   9   18.67    2.10
   5  13   9   25.97    2.78
  -5 -13  -9   21.61    2.09
   5  13  10   80.57    4.29
   5  13  10   73.26    5.69
  -5 -13 -10   73.81    4.71
   5  13  11  282.80   12.81
   5  13  11  300.51   16.84
  -5 -13 -11  298.91   15.25
   5  13  12  700.70   34.16
   5  13  12  824.03   43.21
  -5 -13 -12  794.67   43.90
   5  13  13    4.96    1.09
   5  13  13    4.53    1.54
  -5 -13 -13    3.79    1.81
   5  13  14  138.72    6.05
   5  13  14  179.56   11.77
  -5 -13 -14  164.49   10.66
   5  13  15   16.58    1.71
  -5 -13 -15   20.84    3.35
  -5 -13 -16    2.81    1.63
  -5 -13 -17    1.47    2.01
  -5 -13 -18    7.38    2.53
   5  14  -5   61.19    5.89
   5  14  -5   41.82    4.68
   5  14  -4    6.07    2.86
   5  14  -4    6.21    2.20
   5  14  -3   33.30    3.90
   5  14  -2  194.93   11.49
   5  14  -1  180.53    9.87
  -5 -14   1  206.82   11.34
   5  14   0  158.96   10.47
   5  14   0  128.02    6.90
  -5 -14   0  141.87    8.37
   5  14   1  359.87   19.78
   5  14   1  279.97   12.90
  -5 -14  -1  318.13   16.21
   5  14   2  334.73   18.47
   5  14   2  270.28   11.88
  -5 -14  -2  297.67   15.04
   5  14   3    6.60    1.60
   5  14   3    8.82    1.11
  -5 -14  -3    9.30    1.79
   5  14   4    8.87    1.58
   5  14   4   10.27    1.02
   5  14   4   11.41    1.87
   5  14   5   56.25    4.20
   5  14   5   47.87    4.12
   5  14   6  110.82    6.40
   5  14   6   93.48    3.97
   5  14   6  115.57    6.66
   5  14   7   97.38    5.65
   5  14   7   92.86    4.13
   5  14   7   97.79    6.12
   5  14   8  143.48    7.34
   5  14   8  133.29    5.78
   5  14   8  145.18    8.29
   5  14   9   18.13    2.13
   5  14   9   16.83    1.53
   5  14   9   21.01    2.81
   5  14  10  192.31    9.32
   5  14  10  213.47   11.91
  -5 -14 -10  186.74    9.54
   5  14  11  141.11    7.18
   5  14  11  147.08    8.04
  -5 -14 -11  144.03    8.12
   5  14  12   17.53    1.88
   5  14  12   18.64    3.12
  -5 -14 -12   16.40    2.52
   5  14  13   53.38    3.48
   5  14  13   67.13    6.00
  -5 -14 -13   63.83    5.26
   5  14  14   15.11    1.48
   5  14  14   22.80    2.58
  -5 -14 -14   13.30    2.33
   5  14  15   24.68    3.27
  -5 -14 -15   23.28    2.99
   5  14  16    3.03    1.94
  -5 -14 -16    0.53    1.42
   5  14  17   15.73    3.90
  -5 -14 -17   11.16    3.65
  -5 -14 -18   38.41    6.57
   5  15  -3  114.28    8.69
   5  15  -2   66.52    5.78
   5  15  -1   37.16    5.39
   5  15  -1   34.54    3.76
   5  15   0   41.52    3.77
   5  15   0   26.16    2.98
   5  15   1  306.99   18.43
   5  15   1  242.85   12.20
  -5 -15  -1  268.62   14.46
   5  15   2  118.27    8.12
   5  15   2   83.59    4.24
  -5 -15  -2   99.77    6.42
   5  15   3   14.72    1.97
   5  15   3    9.80    1.38
   5  15   4   42.22    3.78
   5  15   4   27.08    2.00
   5  15   4   32.91    3.20
   5  15   5   98.81    7.02
   5  15   5  113.87    6.70
   5  15   6  136.83    7.41
   5  15   6  112.65    3.96
   5  15   6   97.98    3.46
   5  15   6  122.04    7.03
   5  15   7  129.81    7.25
   5  15   7  114.07    5.10
   5  15   7  115.60    7.50
   5  15   8    9.08    1.20
   5  15   8    9.43    1.80
   5  15   8   10.55    1.65
   5  15   9  317.32   15.64
   5  15   9  300.04   13.58
   5  15   9  332.38   17.96
   5  15  10    4.73    1.49
   5  15  10    6.66    2.05
   5  15  10    8.19    1.53
   5  15  11  147.13    7.87
   5  15  11  157.45    9.12
   5  15  11  158.74    8.87
   5  15  12   51.43    3.18
   5  15  12   69.45    5.92
   5  15  13    2.72    0.87
   5  15  13    1.80    1.33
  -5 -15 -13    1.73    1.21
   5  15  14   13.05    2.84
  -5 -15 -14    7.89    1.97
   5  15  15    4.77    2.09
  -5 -15 -15    0.47    1.91
   5  15  16   13.21    2.62
  -5 -15 -16    7.63    3.22
   5  15  17    3.42    1.92
  -5 -15 -17    1.67    2.35
   5  16  -2   35.52    6.26
   5  16  -2   31.90    4.23
   5  16  -1    4.88    2.97
   5  16  -1    6.42    2.00
   5  16   0   -0.36    2.04
   5  16   0    2.28    1.26
   5  16   1   93.15    9.54
   5  16   1   98.51    6.10
   5  16   2  317.36   16.81
   5  16   2  239.23   12.45
   5  16   3   45.30    4.54
   5  16   3   53.93    3.48
   5  16   3   66.08    4.72
   5  16   4    6.94    1.68
   5  16   4    4.90    2.03
   5  16   4    4.22    1.04
   5  16   5   23.31    3.12
   5  16   5   17.02    1.49
   5  16   5   24.86    2.89
   5  16   6   81.66    5.58
   5  16   6   54.49    2.67
   5  16   6   70.28    4.33
   5  16   7   13.51    2.46
   5  16   7   14.24    2.54
   5  16   8   29.81    2.96
   5  16   8   25.51    2.61
   5  16   8   24.16    2.11
   5  16   9    2.56    1.38
   5  16   9    2.72    1.14
   5  16   9    5.08    1.66
   5  16  10   -0.09    1.02
   5  16  10    1.58    1.03
   5  16  10    1.29    1.00
   5  16  11   16.56    1.82
   5  16  11   14.51    2.36
   5  16  11   17.57    3.06
   5  16  12   19.89    3.39
   5  16  12   29.06    2.77
   5  16  12   41.56    4.41
   5  16  13   30.24    2.86
   5  16  13   33.93    4.17
   5  16  13   40.65    3.71
   5  16  14   43.36    4.68
   5  16  14   27.07    5.00
   5  16  15   64.83    7.14
   5  16  15   59.64    7.17
   5  16  16    1.33    1.60
   5  16  16    3.21    2.23
   5  16  17  108.43    9.22
   5  16  17  126.68   12.15
   5  17   0   11.56    4.03
   5  17   0   11.42    2.43
   5  17   1   12.36    2.69
   5  17   1    9.19    2.08
   5  17   2    9.41    2.25
   5  17   2   11.05    3.36
   5  17   2   11.03    1.91
   5  17   3   77.23    7.07
   5  17   3   60.03    4.40
   5  17   3   62.17    5.60
   5  17   4    0.60    1.65
   5  17   4    2.42    1.31
   5  17   4    0.88    0.86
   5  17   5   57.32    5.70
   5  17   5   50.72    4.72
   5  17   6    2.52    1.60
   5  17   6    1.85    1.46
   5  17   7   62.27    5.73
   5  17   7   59.70    4.59
   5  17   8   70.11    5.65
   5  17   8   61.74    5.89
   5  17   9    3.19    1.39
   5  17   9    0.53    1.56
   5  17  10   30.93    3.29
   5  17  10   33.58    3.18
   5  17  10   40.90    4.29
   5  17  11   61.09    4.05
   5  17  11   55.35    4.03
   5  17  11   69.09    4.86
   5  17  12    8.04    1.74
   5  17  12    8.10    2.10
   5  17  12    8.72    2.03
   5  17  13   12.55    2.99
   5  17  13   10.31    2.58
   5  17  14   18.23    3.39
   5  17  14   17.06    3.78
   5  17  15    4.41    2.33
   5  17  15    5.15    2.62
   5  17  16    0.01    2.33
   5  17  16    3.84    2.14
   5  18   3    1.99    1.61
   5  18   3    1.58    1.50
   5  18   4    5.88    1.74
   5  18   4    1.63    1.44
   5  18   5   19.27    3.73
   5  18   5   18.05    2.97
   5  18   6    3.86    2.06
   5  18   6    3.16    1.72
   5  18   7    5.62    2.35
   5  18   7    8.36    2.13
   5  18   8   17.95    2.36
   5  18   8   18.57    3.09
   5  18   9    1.79    1.62
   5  18   9    4.68    1.82
   5  18  10    8.24    1.99
   5  18  10    7.80    2.45
   5  18  11    1.12    1.20
   5  18  11    1.75    1.71
   5  18  12    6.96    2.14
   5  18  12    8.97    2.72
   5  18  13    2.53    1.66
   5  18  13    1.48    1.97
   5  18  14    5.25    2.53
   5  18  14    9.40    2.86
   5  19   7    3.17    2.19
   5  19   7    5.10    1.92
   5  19   8    5.44    2.21
   5  19   8    4.45    2.11
   5  19   9    1.21    1.73
   5  19   9    4.35    1.82
   5  19  10    2.94    1.62
   5  19  10    2.00    1.83
   5  19  11    9.62    2.18
  -6  15  10   22.61    4.70
  -6  15  10   25.51    5.21
  -6  15   9    5.23    2.06
  -6  15   9    4.84    2.80
  -6  15   8   13.40    2.96
  -6  15   8   17.61    2.95
  -6  15   7    6.70    3.00
  -6  15   7    8.95    2.93
  -6  15   6    5.11    2.62
  -6  15   6    4.12    2.38
  -6  14  13    9.13    4.04
  -6  14  12  163.42   15.49
  -6  14  12  128.88    9.75
  -6  14  11   54.79    7.22
  -6  14  11   64.30    6.65
  -6  14  10   16.14    3.81
  -6  14  10   17.90    4.36
  -6  14   9   22.46    3.23
  -6  14   9   22.85    4.65
  -6  14   8   -1.82    1.16
  -6  14   8    1.31    1.22
  -6  14   7   22.63    3.26
  -6  14   7   25.01    4.23
  -6  14   6   44.78    4.46
  -6  14   6   42.86    5.59
  -6  14   5   80.16    6.54
  -6  14   5   90.81    8.12
  -6  14   4    2.34    2.03
  -6  14   4    1.96    1.67
  -6  14   3   42.42    6.10
  -6  14   3   45.40    4.92
  -6  14   2   51.83    7.02
  -6  14   2   51.23    5.04
   6 -13 -15   30.57    5.34
   6 -13 -14   22.47    4.14
  -6  13  14   15.43    4.06
   6 -13 -13    8.05    3.33
  -6  13  13   45.84    4.32
   6 -13 -12    9.83    3.05
  -6  13  12   10.61    2.87
  -6  13  11    5.65    2.61
  -6  13  11    2.77    1.07
  -6  13  10    6.19    2.72
  -6  13  10    7.62    2.30
  -6  13   9    0.76    1.58
  -6  13   9    0.69    1.32
  -6  13   8    2.79    2.22
  -6  13   8    4.53    1.78
  -6  13   7   34.89    4.08
  -6  13   7   48.39    5.48
  -6  13   6    0.88    1.18
  -6  13   6    0.32    1.48
  -6  13   5  111.14    9.83
  -6  13   5  132.92    9.72
  -6  13   4   27.22    4.51
  -6  13   4   30.43    4.04
  -6  13   3   27.86    3.41
  -6  13   3   28.34    3.63
  -6  13   2   12.43    2.23
  -6  13   2    4.49    3.03
   6 -13  -1   13.20    3.05
  -6  13   1   15.52    2.50
   6 -13   0    6.02    1.63
  -6  13   0    1.93    1.55
   6 -12 -16    5.52    2.57
  -6  12  16    8.02    2.51
  -6  12  16    1.14    1.45
   6 -12 -15    6.88    2.14
  -6  12  15    5.74    2.03
   6 -12 -14    0.61    1.37
  -6  12  14    1.15    1.02
   6 -12 -13   47.55    5.77
  -6  12  13   40.26    3.54
   6 -12 -12  156.36   12.87
  -6  12  12  180.87   15.33
   6 -12 -11   51.42    6.39
  -6  12  11   70.73    7.31
   6 -12 -10   40.28    5.25
  -6  12  10   52.57    6.06
  -6  12   9  413.34   27.60
  -6  12   9  404.08   26.63
  -6  12   8  223.86   16.09
  -6  12   8  235.33   16.45
  -6  12   7   77.94    7.35
  -6  12   7   85.39    6.09
  -6  12   6    6.37    1.88
  -6  12   6    7.62    2.36
  -6  12   5  359.44   23.68
  -6  12   5  367.66   22.25
  -6  12   4   18.56    2.72
  -6  12   4   18.56    3.13
  -6  12   3   79.81    7.55
  -6  12   3   75.21    6.22
   6 -12  -2    5.31    1.29
  -6  12   2    4.62    1.77
   6 -12  -1  151.93   10.41
  -6  12   1  154.64    9.53
   6 -12   0    8.89    2.56
  -6  12   0   10.57    2.06
   6 -12   1    4.34    1.98
  -6  12  -1    1.67    1.36
  -6  12  -1    4.10    2.12
   6 -12   2   19.85    3.29
  -6  12  -2    7.80    2.02
  -6  12  -2   11.83    2.63
   6 -12   3   12.66    3.63
   6 -11 -16  321.57   25.07
  -6  11  16  293.49   20.93
  -6  11  16  341.12   29.33
   6 -11 -15  102.68   10.34
  -6  11  15  142.19   13.41
  -6  11  15  109.99    8.69
   6 -11 -14   73.45    7.71
  -6  11  14   85.04    8.90
  -6  11  14   61.06    5.46
   6 -11 -13  131.77   10.06
  -6  11  13   98.77    6.93
   6 -11 -12  241.59   13.86
  -6  11  12  218.33   11.33
   6 -11 -11  293.46   18.19
  -6  11  11  243.40   11.51
  -6  11  11  311.81   20.11
   6 -11 -10   21.60    3.45
  -6  11  10   17.19    1.40
  -6  11  10   25.94    2.94
   6 -11  -9   76.11    7.05
  -6  11   9   95.33    7.82
  -6  11   8  351.95   18.55
  -6  11   8  194.96   10.28
  -6  11   7   72.29    6.47
  -6  11   7   69.46    6.57
  -6  11   6  221.83   12.83
  -6  11   6  226.22   12.25
  -6  11   5   28.49    3.95
  -6  11   5   30.85    3.75
  -6  11   4    8.75    2.26
   6 -11  -3   30.53    2.91
  -6  11   3   33.18    3.47
   6 -11  -2   48.63    3.31
  -6  11   2   58.50    4.52
   6 -11  -1   54.05    4.80
  -6  11   1   61.59    4.52
   6 -11   0   98.13    7.84
  -6  11   0  114.64    9.05
  -6  11   0   99.69    6.42
   6 -11   1   89.73    6.49
  -6  11  -1   59.96    4.85
  -6  11  -1   69.67    5.64
   6 -11   2   43.50    5.24
  -6  11  -2   34.23    3.42
  -6  11  -2   52.97    5.30
   6 -11   3    3.06    1.89
  -6  11  -3    2.04    1.13
  -6  11  -3    0.36    1.41
   6 -11   4   26.42    4.82
  -6  11  -4   22.85    2.68
  -6  11  -4   29.71    4.47
   6 -10 -17   90.55    9.36
  -6  10  17   81.01    8.71
  -6  10  17   68.12    8.13
   6 -10 -16   11.63    3.34
  -6  10  16   10.69    3.83
  -6  10  16    7.52    2.03
   6 -10 -15  100.55    9.31
  -6  10  15  107.48   10.88
  -6  10  15   80.00    7.43
   6 -10 -14   81.23    7.61
  -6  10  14   94.55    8.74
  -6  10  14   60.84    5.63
   6 -10 -13    4.17    1.97
  -6  10  13    1.77    1.71
  -6  10  13    2.90    1.32
   6 -10 -12   10.95    2.27
  -6  10  12   15.46    2.67
  -6  10  12   12.32    1.84
   6 -10 -11  251.30   15.28
  -6  10  11  221.40   10.25
   6 -10 -10   10.61    2.43
  -6  10  10    7.40    1.17
   6 -10  -9  175.71    9.13
  -6  10   9  146.47    5.65
  -6  10   9  187.54   11.78
   6 -10  -8  101.96    7.29
  -6  10   8  118.26    8.38
   6 -10  -7   67.17    4.46
  -6  10   7   76.55    6.01
  -6  10   6  305.38   18.35
  -6  10   6  317.85   18.22
  -6  10   5  116.76    7.69
   6 -10  -4  117.73    5.60
  -6  10   4  130.40    6.62
   6 -10  -3   11.31    1.57
  -6  10   3   14.11    2.26
   6 -10  -2  199.87   10.05
  -6  10   2  213.95   11.10
   6 -10  -1   49.32    3.75
  -6  10   1   47.52    4.59
  -6  10   1   48.19    4.02
   6 -10   0   11.99    2.09
  -6  10   0   10.09    2.39
  -6  10   0    9.68    1.45
   6 -10   1  107.56    6.34
  -6  10  -1  103.97    6.53
  -6  10  -1   99.95    6.16
   6 -10   2   54.23    5.69
  -6  10  -2   55.43    3.94
  -6  10  -2   61.93    4.66
   6 -10   3    8.95    2.00
  -6  10  -3    5.82    1.63
  -6  10  -3   11.40    2.50
   6 -10   4   -1.15    1.12
  -6  10  -4    1.10    0.88
  -6  10  -4    0.47    1.36
   6 -10   5    4.10    1.67
  -6  10  -5    1.65    1.21
  -6  10  -5    2.88    1.56
   6 -10   6    2.81    1.68
  -6  10  -6    0.72    1.97
  -6  10  -6    1.27    1.14
   6  -9 -17   99.41    8.26
  -6   9  17   79.67   11.59
   6  -9 -16    2.55    1.83
  -6   9  16    0.50    1.58
  -6   9  16   -0.18    1.55
   6  -9 -15  168.78   13.34
  -6   9  15  168.81   12.48
  -6   9  15  153.69   11.31
   6  -9 -14  147.20   11.50
  -6   9  14  140.76   10.35
  -6   9  14  132.86    9.11
   6  -9 -13   17.88    3.53
  -6   9  13   23.04    4.09
  -6   9  13   18.82    2.60
   6  -9 -12  249.81   13.65
  -6   9  12  266.18   14.98
  -6   9  12  238.64   12.11
   6  -9 -11    0.95    1.59
  -6   9  11    1.94    1.35
  -6   9  11    2.22    0.98
   6  -9 -10   57.72    5.16
  -6   9  10   51.88    3.04
   6  -9  -9   50.34    3.38
  -6   9   9   38.50    1.99
   6  -9  -8  103.65    5.82
  -6   9   8   67.21    2.73
   6  -9  -7  210.62    9.97
  -6   9   7  227.14   12.31
  -6   9   7  181.03    5.55
   6  -9  -6   44.57    3.10
  -6   9   6   44.20    3.29
   6  -9  -5    6.33    0.79
  -6   9   5   11.01    1.93
   6  -9  -4  287.59   11.64
  -6   9   4  329.16   15.91
   6  -9  -3    7.42    1.24
  -6   9   3    6.08    1.81
   6  -9  -2   56.18    3.45
  -6   9   2   68.51    4.68
  -6   9   2   43.72    4.04
   6  -9  -1   97.33    4.79
  -6   9   1  108.97    5.90
  -6   9   1  111.12    6.17
   6  -9   0   93.06    5.79
  -6   9   0   95.76    5.70
  -6   9   0   92.24    5.42
   6  -9   1    3.22    1.53
  -6   9  -1    3.49    1.66
  -6   9  -1    4.26    1.24
   6  -9   2   34.85    3.91
  -6   9  -2   39.83    2.99
  -6   9  -2   31.61    3.98
   6  -9   3  257.68   16.03
  -6   9  -3  219.36   10.96
  -6   9  -3  262.95   13.80
   6  -9   4  105.61    9.19
  -6   9  -4  100.36    6.11
  -6   9  -4  119.81    7.39
   6  -9   5  120.17    8.65
  -6   9  -5   77.28    5.00
  -6   9  -5   90.93    6.13
   6  -9   6   49.45    5.61
  -6   9  -6   43.74    4.85
  -6   9  -6   26.89    3.02
   6  -9   7   58.06    6.14
  -6   9  -7   71.98    5.39
  -6   9  -7   48.48    4.22
   6  -8 -18   96.48   10.85
  -6   8  18   87.91    9.35
  -6   8  18   91.79   10.43
   6  -8 -17    9.73    3.05
  -6   8  17    8.39    2.71
  -6   8  17    2.10    2.50
   6  -8 -16    4.65    2.51
  -6   8  16    3.22    2.66
  -6   8  16    3.66    1.71
   6  -8 -15   11.17    2.39
  -6   8  15   10.71    3.48
  -6   8  15   10.43    2.67
   6  -8 -14  458.29   29.41
  -6   8  14  496.77   32.69
  -6   8  14  453.95   23.37
   6  -8 -13   15.49    3.29
  -6   8  13   20.35    3.54
  -6   8  13   14.56    2.46
   6  -8 -12  281.50   14.89
  -6   8  12  268.84   12.01
  -6   8  12  300.49   16.50
   6  -8 -11  271.79   15.52
  -6   8  11  273.61   14.51
  -6   8  11  251.33   11.85
   6  -8 -10   25.55    3.24
  -6   8  10   22.96    2.00
  -6   8  10   24.78    2.66
   6  -8  -9   95.56    6.61
  -6   8   9  111.87    5.71
   6  -8  -8  646.90   31.91
  -6   8   8  577.27   21.93
   6  -8  -7   19.13    1.97
  -6   8   7   17.29    0.96
   6  -8  -6  158.05    7.06
  -6   8   6  133.89    4.04
   6  -8  -5   30.54    1.47
   6  -8  -5   33.52    3.21
  -6   8   5   39.69    2.70
   6  -8  -4   10.05    1.16
  -6   8   4   10.96    1.99
   6  -8  -3  155.34    6.59
  -6   8   3  169.00    9.23
  -6   8   3  163.30    8.68
   6  -8  -2  154.93    7.02
  -6   8   2  169.12    7.83
  -6   8   2  169.13    8.58
   6  -8  -1   63.69    3.57
  -6   8   1   70.17    4.60
  -6   8   1   51.57    4.08
   6  -8   0   74.57    4.72
  -6   8   0   81.08    4.47
  -6   8   0   71.16    3.83
   6  -8   1   63.25    4.25
  -6   8  -1   67.27    4.75
  -6   8  -1   56.11    4.02
   6  -8   2   13.11    2.23
  -6   8  -2   14.15    2.30
  -6   8  -2   10.59    1.39
   6  -8   3    3.10    1.41
  -6   8  -3    2.06    1.00
  -6   8  -3    0.28    1.01
   6  -8   4    2.29    1.57
  -6   8  -4    0.85    1.03
  -6   8  -4    2.40    1.07
   6  -8   5    4.44    1.49
  -6   8  -5    2.78    1.23
  -6   8  -5    3.42    1.32
   6  -8   6   16.21    2.44
  -6   8  -6   12.84    2.74
  -6   8  -6   10.57    1.86
   6  -8   7   57.87    6.20
  -6   8  -7   46.26    5.18
  -6   8  -7   38.49    3.42
   6  -8   8   68.75    5.77
  -6   8  -8   58.25    5.00
  -6   8  -8   43.62    4.14
   6  -7 -18   14.36    4.64
  -6   7  18   17.77    3.91
  -6   7  18   21.78    4.62
   6  -7 -17  331.80   25.26
  -6   7  17  319.19   22.41
  -6   7  17  321.61   24.02
   6  -7 -16   26.40    4.89
  -6   7  16   25.51    5.14
  -6   7  16   28.93    3.49
   6  -7 -15  106.36    9.79
  -6   7  15  120.30    8.98
  -6   7  15  112.52    8.63
   6  -7 -14   73.29    7.50
  -6   7  14   75.06    7.76
  -6   7  14   83.79    6.23
   6  -7 -13  668.69   39.33
  -6   7  13  650.86   35.78
  -6   7  13  630.90   34.01
   6  -7 -12  113.67    7.69
  -6   7  12  105.07    8.27
  -6   7  12   90.50    5.97
   6  -7 -11  149.73    7.81
  -6   7  11  148.23    8.13
  -6   7  11  131.39    5.86
   6  -7 -10  197.10    9.59
  -6   7  10  188.34    8.53
  -6   7  10  218.48   11.84
   6  -7  -9   63.35    4.93
  -6   7   9   77.26    4.10
  -6   7   9   59.12    3.11
   6  -7  -8  401.83   17.96
  -6   7   8  372.94   13.78
  -6   7   8  405.38   17.79
   6  -7  -7  506.58   24.32
  -6   7   7  463.71   16.00
  -6   7   7  513.32   22.25
   6  -7  -6   20.74    0.91
   6  -7  -6   19.39    1.99
  -6   7   6   20.16    0.96
   6  -7  -5  592.39   20.30
   6  -7  -5  682.29   30.46
  -6   7   5  563.74   17.24
   6  -7  -4   14.64    1.52
   6  -7  -4   12.66    1.06
  -6   7   4   14.40    2.11
   6  -7  -3   25.27    1.66
  -6   7   3   25.54    2.55
  -6   7   3   25.17    2.14
   6  -7  -2    5.62    0.98
  -6   7   2    5.05    1.41
  -6   7   2    3.87    1.40
   6  -7  -1   28.31    1.71
  -6   7   1   31.12    2.86
  -6   7   1   30.01    2.53
   6  -7   0   55.63    3.37
  -6   7   0   51.98    3.89
  -6   7   0   52.48    3.54
   6  -7   1    7.76    1.56
  -6   7  -1   10.37    1.72
  -6   7  -1    7.85    1.56
   6  -7   2  431.37   18.40
  -6   7  -2  404.75   18.21
  -6   7  -2  431.95   18.56
   6  -7   3  650.48   31.23
  -6   7  -3  599.73   25.39
  -6   7  -3  670.07   33.75
   6  -7   4   24.22    2.96
  -6   7  -4   17.40    2.09
  -6   7  -4   22.54    2.80
   6  -7   5   25.34    2.65
  -6   7  -5   24.22    2.26
  -6   7  -5   19.14    2.41
   6  -7   6   21.14    3.36
  -6   7  -6   16.90    1.62
  -6   7  -6   19.32    2.17
   6  -7   7   30.00    3.47
  -6   7  -7   29.95    2.88
  -6   7  -7   26.11    2.64
   6  -7   8    5.12    2.36
  -6   7  -8    4.12    1.99
  -6   7  -8    3.57    1.02
   6  -7   9   10.57    3.26
  -6   7  -9    9.34    2.65
  -6   7  -9    7.49    1.83
   6  -7  10    0.99    2.58
  -6   7 -10    3.47    1.63
  -6   7 -10    2.45    1.41
   6  -6 -18   25.52    6.15
  -6   6  18   29.16    4.75
  -6   6  18   39.25    4.79
   6  -6 -17    3.13    2.14
  -6   6  17    1.25    1.62
  -6   6  17    0.89    1.59
   6  -6 -16    8.02    2.25
  -6   6  16    7.07    2.96
  -6   6  16    7.29    2.05
   6  -6 -15   10.13    2.41
  -6   6  15   13.08    2.89
  -6   6  15   10.85    3.30
   6  -6 -14  124.20    8.11
  -6   6  14  133.67   10.44
  -6   6  14  119.92    7.26
   6  -6 -13   27.37    3.85
  -6   6  13   27.72    3.89
  -6   6  13   27.15    3.14
   6  -6 -12    4.81    1.71
  -6   6  12    1.24    1.31
  -6   6  12    3.83    1.38
   6  -6 -11  156.58    8.10
  -6   6  11  167.99   10.06
  -6   6  11  146.58    7.74
   6  -6 -10  293.25   15.36
  -6   6  10  308.41   16.23
  -6   6  10  276.50   12.22
   6  -6  -9  412.20   20.11
  -6   6   9  404.35   17.97
  -6   6   9  393.97   15.72
   6  -6  -8  404.51   17.16
  -6   6   8  383.19   14.37
  -6   6   8  389.09   16.90
   6  -6  -7  413.01   16.94
  -6   6   7  375.33   13.23
  -6   6   7  407.11   16.74
   6  -6  -6  145.86    3.89
   6  -6  -6  160.14    7.80
  -6   6   6  155.27    6.61
  -6   6   6  145.17    4.33
   6  -6  -5  338.67   10.11
   6  -6  -5  349.20   13.81
  -6   6   5  319.73    8.96
   6  -6  -4  510.96   20.57
   6  -6  -4  513.58   16.96
  -6   6   4  458.23   12.76
   6  -6  -3  250.88    8.61
   6  -6  -3  249.47    9.71
   6  -6  -2  658.57   26.58
  -6   6   2  675.65   31.60
  -6   6   2  686.06   30.70
   6  -6  -1  109.45    3.93
  -6   6   1  109.70    5.82
  -6   6   1  114.51    5.52
   6  -6   0   13.00    1.46
  -6   6   0   10.48    1.35
  -6   6   0   12.20    1.59
   6  -6   1   20.63    2.20
  -6   6  -1   19.04    1.90
  -6   6  -1   29.76    2.15
   6  -6   2   61.12    3.08
  -6   6  -2   63.83    3.22
  -6   6  -2   57.67    2.82
   6  -6   3   32.16    2.91
  -6   6  -3   26.91    2.38
  -6   6  -3   30.86    2.18
   6  -6   4  653.44   31.44
  -6   6  -4  641.68   28.95
  -6   6  -4  678.13   33.54
   6  -6   5 1045.23   54.73
  -6   6  -5  965.36   49.39
  -6   6  -5 1057.27   53.39
   6  -6   6  211.35   12.39
  -6   6  -6  174.88    8.30
  -6   6  -6  180.38   10.08
   6  -6   7    3.93    2.06
  -6   6  -7    4.45    1.65
  -6   6  -7    4.03    1.31
   6  -6   8   53.22    4.54
  -6   6  -8   52.77    4.69
  -6   6  -8   41.58    3.54
   6  -6   9   -0.07    1.39
  -6   6  -9    2.09    1.52
  -6   6  -9    1.49    1.08
   6  -6  10   50.34    4.76
  -6   6 -10   32.65    3.90
  -6   6 -10   31.49    3.61
  -6   6 -11    6.99    2.47
  -6   6 -11    4.24    1.78
   6  -5 -18   47.49    5.65
  -6   5  18   34.30    6.85
  -6   5  18   50.93    5.85
   6  -5 -17   75.04    8.19
  -6   5  17   57.14    7.86
  -6   5  17   65.60    8.21
   6  -5 -16   41.88    5.95
  -6   5  16   37.89    6.01
  -6   5  16   50.72    5.84
   6  -5 -15   33.34    4.72
  -6   5  15   28.38    4.66
  -6   5  15   32.28    4.51
   6  -5 -14  122.40    9.80
  -6   5  14  126.75    9.96
  -6   5  14  135.41    7.58
   6  -5 -13    2.23    1.66
  -6   5  13    0.82    1.61
  -6   5  13    2.65    1.41
   6  -5 -12   31.97    3.75
  -6   5  12   30.07    3.73
  -6   5  12   29.06    3.09
   6  -5 -11  110.67    7.29
  -6   5  11  102.58    5.90
  -6   5  11  103.26    4.84
   6  -5 -10   49.95    3.07
  -6   5  10   44.26    3.18
  -6   5  10   40.25    2.98
   6  -5  -9    3.31    1.11
  -6   5   9    3.11    1.54
  -6   5   9    5.33    1.05
   6  -5  -8  120.83    6.68
  -6   5   8  114.19    4.78
  -6   5   8  117.95    6.57
   6  -5  -7   91.19    4.39
   6  -5  -7   79.87    2.05
  -6   5   7   96.90    5.34
  -6   5   7   92.94    3.25
   6  -5  -6  170.94    4.35
   6  -5  -6  179.96    8.39
  -6   5   6  179.81    5.59
  -6   5   6  180.13    7.31
   6  -5  -5  504.13   15.36
   6  -5  -5  526.95   22.54
  -6   5   5  524.33   22.47
  -6   5   5  487.79   15.51
   6  -5  -4  352.90   10.74
   6  -5  -4  361.98   15.35
  -6   5   4  352.79   13.43
  -6   5   4  338.58    9.20
   6  -5  -3  894.81   38.32
   6  -5  -3  899.08   34.03
  -6   5   3  778.89   24.99
   6  -5  -2  296.03   12.55
   6  -5  -2  310.92   10.61
   6  -5  -1 1518.86   74.21
  -6   5   1 1554.54   79.38
   6  -5   0    2.08    0.82
  -6   5   0    1.38    0.73
  -6   5   0    2.66    0.93
   6  -5   1  415.36   15.74
  -6   5  -1  447.39   18.65
  -6   5  -1  414.17   16.74
   6  -5   2   32.38    2.43
  -6   5  -2   29.77    1.89
  -6   5  -2   30.90    1.73
   6  -5   3  252.64   11.70
  -6   5  -3  258.22   10.07
  -6   5  -3  253.48   11.09
   6  -5   4  396.15   18.38
  -6   5  -4  379.99   15.48
  -6   5  -4  369.65   16.62
   6  -5   5  193.76   10.48
  -6   5  -5  181.60    8.17
  -6   5  -5  187.22    8.09
   6  -5   6  480.78   24.72
  -6   5  -6  429.54   17.42
  -6   5  -6  462.68   22.20
   6  -5   7   66.93    6.12
  -6   5  -7   73.98    4.03
  -6   5  -7   66.87    3.48
   6  -5   8   10.77    2.39
  -6   5  -8    7.79    1.92
  -6   5  -8    5.99    1.56
   6  -5   9   10.53    2.67
  -6   5  -9    8.49    2.09
  -6   5  -9    6.46    1.66
   6  -5  10  166.55   12.46
  -6   5 -10  141.23    8.05
  -6   5 -10  126.33    6.49
  -6   5 -11    1.93    1.32
  -6   5 -11    2.19    1.37
  -6   5 -12   76.45    6.13
  -6   5 -12   75.73    7.72
   6  -4 -18   15.67    4.39
  -6   4  18   12.29    4.02
   6  -4 -17   44.89    6.66
  -6   4  17   36.85    4.62
  -6   4  17   57.59    6.98
   6  -4 -16   27.37    3.65
  -6   4  16   27.69    3.37
  -6   4  16   23.82    3.70
   6  -4 -15    2.03    2.13
  -6   4  15    3.00    1.54
  -6   4  15    4.09    1.58
   6  -4 -14   80.65    5.62
  -6   4  14   75.20    6.78
  -6   4  14   76.75    6.75
   6  -4 -13    1.34    1.15
  -6   4  13    0.79    1.42
  -6   4  13    2.08    1.43
   6  -4 -12  122.82    8.43
  -6   4  12  124.60    8.08
  -6   4  12  119.22    7.59
   6  -4 -11   46.71    3.84
  -6   4  11   38.41    3.00
  -6   4  11   36.88    3.45
   6  -4 -10  187.01   10.25
  -6   4  10  194.54   10.51
  -6   4  10  181.30    7.49
   6  -4  -9  202.08    8.81
  -6   4   9  203.23    8.71
  -6   4   9  197.82    8.42
   6  -4  -8  479.46   21.67
  -6   4   8  472.60   19.23
  -6   4   8  482.35   18.81
   6  -4  -7  230.27    5.46
   6  -4  -7  251.80    9.90
  -6   4   7  244.92    8.66
  -6   4   7  242.95    9.54
   6  -4  -6    7.34    0.46
   6  -4  -6    8.83    1.55
  -6   4   6    9.40    0.90
  -6   4   6   10.68    1.51
   6  -4  -5   41.70    2.14
  -6   4   5   44.62    2.26
  -6   4   5   39.38    1.44
   6  -4  -4   11.27    0.75
   6  -4  -4   10.23    1.53
  -6   4   4   12.77    1.47
  -6   4   4   10.79    0.63
   6  -4  -3  106.99    3.12
   6  -4  -3  112.70    4.27
  -6   4   3  122.02    5.30
  -6   4   3  103.09    2.45
   6  -4  -2  133.17    4.39
   6  -4  -2  132.61    5.01
   6  -4  -2  138.84    3.09
  -6   4   2  130.59    4.89
  -6   4   2  120.63    2.76
   6  -4  -1  197.78    3.50
  -6   4   1  192.84    3.55
   6  -4   0  951.11   40.91
  -6   4   0 1003.99   45.13
   6  -4   1   22.20    1.54
  -6   4  -1   14.22    1.30
  -6   4  -1   15.25    1.65
   6  -4   2  247.11    8.68
  -6   4  -2  235.18    8.47
  -6   4  -2  242.17    9.34
   6  -4   3    2.34    1.07
  -6   4  -3    2.88    0.92
  -6   4  -3    4.05    1.00
   6  -4   4   30.22    2.90
  -6   4  -4   26.32    1.85
  -6   4  -4   40.90    2.15
   6  -4   5   29.67    2.34
  -6   4  -5   31.12    2.31
  -6   4  -5   32.22    2.65
   6  -4   6  530.52   24.52
  -6   4  -6  521.06   23.12
  -6   4  -6  519.11   23.95
   6  -4   7  317.69   16.87
  -6   4  -7  305.38   13.21
  -6   4  -7  284.53   13.50
   6  -4   8 1588.16   96.66
  -6   4  -8 1423.74   82.39
  -6   4  -8 1379.34   79.97
   6  -4   9  712.57   36.68
  -6   4  -9  631.28   32.78
  -6   4  -9  590.82   30.17
  -6   4 -10    2.31    1.40
  -6   4 -10    1.54    1.21
  -6   4 -11   47.26    4.68
  -6   4 -11   44.33    4.13
   6  -4  12   30.52    4.66
  -6   4 -12   19.15    2.76
  -6   4 -12   21.33    3.02
   6  -3 -17   15.48    4.02
  -6   3  17   11.49    3.43
   6  -3 -16   19.34    4.03
  -6   3  16   15.26    3.56
   6  -3 -15  127.45   11.02
  -6   3  15  142.57    9.74
   6  -3 -14   98.63    6.33
  -6   3  14   94.95    5.92
  -6   3  14   88.78    7.85
   6  -3 -13   31.36    3.89
  -6   3  13   23.31    3.51
  -6   3  13   32.63    2.91
   6  -3 -12    4.52    1.80
  -6   3  12    2.81    1.71
  -6   3  12    6.08    1.29
   6  -3 -11 1099.63   56.88
  -6   3  11 1066.03   54.46
  -6   3  11 1104.15   54.81
   6  -3 -10   27.13    2.36
  -6   3  10   30.44    2.92
  -6   3  10   31.99    2.74
   6  -3  -9   75.87    4.80
  -6   3   9   78.21    3.75
  -6   3   9   75.87    4.03
   6  -3  -8   19.03    2.15
  -6   3   8   20.62    2.05
  -6   3   8   16.91    1.72
   6  -3  -7  683.69   21.43
   6  -3  -7  746.88   31.39
  -6   3   7  727.03   31.73
  -6   3   7  725.06   28.76
   6  -3  -6   25.55    0.86
   6  -3  -6   30.65    1.79
  -6   3   6   26.31    1.27
  -6   3   6   31.33    2.27
   6  -3  -5 1099.42   50.77
   6  -3  -5 1025.79   37.86
  -6   3   5 1062.26   46.43
  -6   3   5 1077.48   42.89
   6  -3  -4    3.45    0.53
   6  -3  -4    4.66    0.85
  -6   3   4    6.89    1.11
  -6   3   4    4.39    0.62
   6  -3  -3  722.02   24.88
   6  -3  -3  714.45   27.92
  -6   3   3  721.50   27.81
  -6   3   3  685.17   22.38
   6  -3  -2  422.20   13.47
  -6   3   2  412.07   15.79
  -6   3   2  404.29   10.87
   6  -3  -1   45.14    2.02
   6  -3  -1   45.31    1.03
  -6   3   1   57.18    2.68
   6  -3   0  108.70    4.15
   6  -3   0  110.54    2.23
   6  -3   1  897.04   36.31
   6  -3   1  829.30   25.11
   6  -3   1  849.37   25.71
  -6   3  -1  922.75   38.13
   6  -3   2 1564.54   73.52
   6  -3   2 1261.84   45.54
  -6   3  -2 1621.39   75.43
   6  -3   3  448.90   17.40
   6  -3   3  390.38    9.94
  -6   3  -3  421.71   14.26
  -6   3  -3  430.34   16.33
   6  -3   4    5.17    1.18
   6  -3   4    3.62    0.35
  -6   3  -4    6.35    0.97
  -6   3  -4    4.78    0.74
   6  -3   5  250.33   10.37
  -6   3  -5  253.61   10.38
  -6   3  -5  269.82   11.03
   6  -3   6  729.49   34.77
  -6   3  -6  678.48   28.08
  -6   3  -6  697.43   30.07
   6  -3   7   11.25    1.56
  -6   3  -7    9.40    1.21
  -6   3  -7   12.02    1.52
   6  -3   8   19.74    3.38
  -6   3  -8   15.92    2.65
  -6   3  -8   30.52    2.03
   6  -3   9  126.96    7.07
  -6   3  -9  113.14    5.35
  -6   3  -9  122.66    6.43
  -6   3 -10   56.57    4.31
  -6   3 -10   54.33    4.03
  -6   3 -11   36.06    3.57
  -6   3 -11   30.43    2.61
   6  -3  12   61.32    6.80
  -6   3 -12   62.08    4.13
  -6   3 -12   53.11    3.90
   6  -3  13    2.49    1.77
  -6   3 -13    2.16    1.77
  -6   3 -13    2.26    1.21
   6  -2 -17  193.72   14.66
  -6   2  17  213.13   18.63
   6  -2 -16  289.83   18.25
  -6   2  16  262.17   18.05
   6  -2 -15  290.18   16.41
  -6   2  15  251.01   16.75
   6  -2 -14    3.72    1.61
  -6   2  14    4.98    1.78
   6  -2 -13  266.78   16.07
  -6   2  13  266.90   14.62
   6  -2 -12  152.20    9.47
  -6   2  12  144.98    7.23
   6  -2 -11 1523.41   90.52
  -6   2  11 1621.90   89.28
  -6   2  11 1549.77   88.66
   6  -2 -10 1003.70   49.41
  -6   2  10  996.51   47.04
  -6   2  10 1049.81   52.43
   6  -2  -9    6.78    0.52
   6  -2  -9   10.07    1.24
  -6   2   9    8.76    1.18
  -6   2   9    7.83    1.05
   6  -2  -8 2685.91  146.22
   6  -2  -8 2931.41  188.69
  -6   2   8 2797.12  179.98
  -6   2   8 2869.51  178.72
   6  -2  -7  983.73   35.57
   6  -2  -7 1040.09   48.31
  -6   2   7  987.78   43.60
  -6   2   7 1040.19   45.39
   6  -2  -6 1014.20   37.28
   6  -2  -6 1065.15   48.89
  -6   2   6 1053.31   44.71
  -6   2   6 1039.48   47.19
   6  -2  -5  691.24   22.26
   6  -2  -5  701.29   27.63
  -6   2   5  675.81   26.34
  -6   2   5  711.14   26.10
   6  -2  -4 2152.54  107.18
   6  -2  -4 2263.13  124.59
  -6   2   4 2220.70  120.82
  -6   2   4 2253.61  115.40
   6  -2  -3  636.39   20.95
  -6   2   3  641.79   20.62
  -6   2   3  621.04   23.02
   6  -2  -2  394.19   12.12
  -6   2   2  387.11   12.89
  -6   2   2  373.77   10.36
   6  -2  -1   23.19    1.37
  -6   2   1   24.64    1.39
  -6   2   1   22.88    0.77
   6  -2   0  622.25   17.96
   6  -2   0  596.16   21.32
  -6   2   0  587.94   20.84
  -6   2   0  553.04   15.91
   6  -2   1  234.17    8.35
   6  -2   1  233.50    5.30
  -6   2  -1  240.36    7.81
  -6   2  -1  220.45    8.33
   6  -2   2   12.71    0.95
   6  -2   2    8.48    0.47
   6  -2   2   10.79    0.39
  -6   2  -2   10.48    1.19
   6  -2   3  298.84   10.83
   6  -2   3  265.83    6.40
   6  -2   3  287.40    7.31
  -6   2  -3  287.30    9.99
   6  -2   4  310.39   11.94
   6  -2   4  283.57    7.20
  -6   2  -4  302.76   10.87
   6  -2   5   92.96    4.44
   6  -2   5   79.63    2.12
  -6   2  -5   87.75    3.91
  -6   2  -5   85.81    3.73
   6  -2   6   73.04    4.13
   6  -2   6   58.66    1.82
  -6   2  -6   61.29    3.08
  -6   2  -6   66.55    3.35
   6  -2   7   88.54    5.04
   6  -2   7   74.00    2.70
  -6   2  -7   72.84    3.07
  -6   2  -7   73.59    3.96
   6  -2   8  150.30    8.80
  -6   2  -8  140.37    5.96
  -6   2  -8  143.09    6.22
  -6   2  -9  253.63   11.36
  -6   2  -9  267.77   12.15
  -6   2 -10    7.09    1.59
  -6   2 -10    7.52    1.61
   6  -2  11  226.36   13.84
  -6   2 -11  188.36    9.98
  -6   2 -11  188.36   10.22
   6  -2  12  129.05    8.34
  -6   2 -12  115.01    7.47
  -6   2 -12  119.70    7.57
   6  -2  13   25.75    4.22
  -6   2 -13   21.28    2.47
  -6   2 -13   22.22    3.20
   6  -2  14  273.38   21.02
  -6   2 -14  248.51   15.89
  -6   2 -14  249.65   15.79
   6  -1 -17    8.28    2.57
  -6   1  17    4.88    3.46
   6  -1 -16    5.01    2.52
  -6   1  16    2.41    2.53
   6  -1 -15   38.29    6.06
  -6   1  15   45.49    4.78
  -6   1  15   56.35    4.87
   6  -1 -14    2.08    2.02
  -6   1  14    3.37    1.61
  -6   1  14    4.79    2.06
   6  -1 -13    7.74    2.33
  -6   1  13    7.54    1.44
   6  -1 -12  109.90    6.13
  -6   1  12  102.95    6.45
   6  -1 -11  289.81   13.10
  -6   1  11  275.15   13.06
   6  -1 -10  586.82   20.12
   6  -1 -10  626.51   27.95
  -6   1  10  613.30   27.99
   6  -1  -9  532.62   17.32
   6  -1  -9  566.28   25.69
  -6   1   9  580.09   25.02
   6  -1  -8   13.54    0.73
   6  -1  -8   12.77    1.82
  -6   1   8   12.61    1.68
  -6   1   8   18.18    1.79
   6  -1  -7  222.91    6.14
   6  -1  -7  240.92    9.86
  -6   1   7  224.29    8.82
  -6   1   7  235.31    9.12
   6  -1  -6  398.81   11.49
   6  -1  -6  408.66   16.29
  -6   1   6  424.72   15.06
  -6   1   6  390.99   13.79
   6  -1  -5  109.08    3.01
   6  -1  -5  109.35    3.96
  -6   1   5  109.15    4.06
  -6   1   5  111.28    4.64
   6  -1  -4   12.14    0.84
  -6   1   4   13.31    1.36
  -6   1   4   15.57    1.12
   6  -1  -3 1132.46   44.40
  -6   1   3 1132.78   47.47
  -6   1   3 1156.48   45.78
   6  -1  -2 3080.28  178.59
  -6   1   2 3008.26  181.77
  -6   1   2 3138.58  178.58
   6  -1  -1 1911.10   91.42
  -6   1   1 1941.67   98.81
  -6   1   1 1910.72   87.75
   6  -1   0   20.22    1.00
   6  -1   0   20.86    1.43
  -6   1   0   24.47    1.48
  -6   1   0   16.96    0.70
   6  -1   1  639.38   23.40
   6  -1   1  667.80   22.91
  -6   1  -1  616.39   18.76
  -6   1  -1  679.97   23.77
   6  -1   2  144.15    5.14
   6  -1   2  129.78    2.97
  -6   1  -2  131.06    4.52
  -6   1  -2  132.31    4.06
   6  -1   3  912.82   37.83
   6  -1   3  877.42   29.69
  -6   1  -3  888.93   34.38
  -6   1  -3  924.52   36.39
   6  -1   4  149.80    3.80
   6  -1   4  153.03    6.19
  -6   1  -4  159.08    4.75
   6  -1   5  223.23    7.94
   6  -1   5  215.13    5.86
  -6   1  -5  220.50    6.91
   6  -1   6   25.11    1.36
   6  -1   6   27.01    2.52
  -6   1  -6   33.04    1.93
  -6   1  -6   37.84    2.10
   6  -1   7  293.99   13.16
   6  -1   7  270.03    9.08
  -6   1  -7  280.61   10.62
  -6   1  -7  290.91   10.54
   6  -1   8  266.79    9.22
  -6   1  -8  272.64   10.74
  -6   1  -8  291.96   12.24
   6  -1   9  965.67   43.31
  -6   1  -9  939.15   45.03
  -6   1  -9 1028.87   48.11
   6  -1  10   96.57    4.69
  -6   1 -10  101.32    5.14
  -6   1 -10  103.74    4.63
   6  -1  11  216.55   11.18
  -6   1 -11  197.70    9.24
  -6   1 -11  199.48    8.87
   6  -1  12    6.86    2.41
  -6   1 -12    9.02    1.70
  -6   1 -12    6.25    1.92
   6  -1  13   10.57    2.78
  -6   1 -13    8.16    2.19
  -6   1 -13    9.01    1.94
   6  -1  14   64.46    6.63
  -6   1 -14   46.42    4.94
  -6   1 -14   55.91    4.28
   6  -1  15   58.52    6.22
  -6   1 -15   72.51    6.57
   6   0 -17   62.18    8.69
  -6   0  17   56.48    8.93
   6   0 -16    3.83    2.07
  -6   0  16    4.77    2.83
   6   0 -15  109.09    9.18
  -6   0  15   83.95    7.57
   6   0 -14  229.21   13.44
  -6   0  14  203.20   12.10
  -6   0  14  238.17   16.09
   6   0 -13   25.19    2.96
  -6   0  13   20.09    2.85
  -6   0  13   30.00    2.93
   6   0 -12    0.53    1.46
  -6   0  12    0.94    1.08
  -6   0  12    2.21    1.07
   6   0 -11    1.54    1.38
  -6   0  11    2.22    1.03
  -6   0  11    1.95    1.08
   6   0 -10  408.74   14.18
   6   0 -10  447.86   21.10
  -6   0  10  415.27   17.90
   6   0  -9  210.53    6.42
   6   0  -9  220.83   10.35
  -6   0   9  221.11    9.21
   6   0  -8  361.70   11.41
   6   0  -8  376.99   16.11
  -6   0   8  371.24   13.31
   6   0  -7 1361.60   57.71
   6   0  -7 1416.47   70.44
  -6   0   7 1354.43   65.36
   6   0  -6   91.73    2.61
   6   0  -6   94.49    4.45
  -6   0   6  104.34    4.30
  -6   0   6   95.72    3.39
   6   0  -5  128.42    3.66
  -6   0   5  127.62    4.20
  -6   0   5  123.89    4.75
   6   0  -4  227.81    6.51
  -6   0   4  230.11    7.96
  -6   0   4  235.65    7.62
   6   0  -3  129.34    3.84
  -6   0   3  129.71    4.54
  -6   0   3  130.04    4.14
   6   0  -2  928.67   34.70
  -6   0   2  950.96   37.54
  -6   0   2  955.89   35.46
   6   0  -1 2975.49  171.57
   6   0  -1 3012.68  178.74
  -6   0   1 3023.56  176.61
  -6   0   1 3007.12  169.24
   6   0   0 1628.54   75.03
   6   0   0 1635.15   76.49
  -6   0   0 1684.01   73.08
  -6   0   0 1622.68   76.60
   6   0   1  294.91    8.82
   6   0   1  286.03    9.15
  -6   0  -1  289.61    8.76
  -6   0  -1  309.78    8.05
   6   0   2 1875.28   82.86
   6   0   2 1332.36   56.74
  -6   0  -2 1879.47   83.78
  -6   0  -2 1490.02   66.72
   6   0   3  554.90   16.92
   6   0   3  543.98   19.14
  -6   0  -3  556.10   20.03
  -6   0  -3  565.46   19.25
   6   0   4  542.59   16.97
   6   0   4  587.26   22.27
  -6   0  -4  553.81   19.00
  -6   0  -4  561.39   19.17
   6   0   5  214.96    8.36
   6   0   5  204.84    6.03
  -6   0  -5  208.04    6.61
   6   0   6   28.22    2.28
   6   0   6   27.02    1.39
  -6   0  -6   31.41    1.63
   6   0   7    2.30    0.66
   6   0   7    2.54    1.08
  -6   0  -7    2.93    0.71
   6   0   8  269.79    9.25
  -6   0  -8  264.78    9.61
  -6   0  -8  291.72   11.70
   6   0   9   28.92    1.84
  -6   0  -9   32.74    2.11
  -6   0  -9   30.37    2.70
   6   0  10  278.50   11.69
   6   0  10  312.54   15.66
  -6   0 -10  274.71   11.31
  -6   0 -10  301.97   13.61
   6   0  11   14.82    1.81
   6   0  11   11.68    1.68
  -6   0 -11   10.68    1.65
  -6   0 -11   12.10    2.03
   6   0  12  731.30   36.66
   6   0  12  664.84   32.03
  -6   0 -12  623.69   30.10
  -6   0 -12  655.21   31.67
   6   0  13   67.97    4.93
  -6   0 -13   61.98    4.36
  -6   0 -13   62.23    5.45
   6   0  14   44.67    3.90
  -6   0 -14   37.39    3.61
  -6   0 -14   36.62    3.45
   6   0  15    1.64    1.49
  -6   0 -15    2.69    1.69
   6   1 -16   13.92    3.91
  -6  -1  16   10.98    3.13
   6   1 -15    4.17    2.62
  -6  -1  15    5.71    2.77
   6   1 -14  248.82   17.29
  -6  -1  14  256.86   15.53
   6   1 -13    2.77    1.30
  -6  -1  13    0.54    1.78
   6   1 -12   29.89    3.71
  -6  -1  12   25.27    2.64
  -6  -1  12   32.32    3.77
   6   1 -11  175.74    6.84
   6   1 -11  192.79    9.06
  -6  -1  11  173.70    8.33
  -6  -1  11  194.43   10.99
   6   1 -10  275.88   10.14
   6   1 -10  296.49   14.62
  -6  -1  10  265.90   11.44
  -6  -1  10  307.42   12.92
   6   1  -9   48.44    2.27
   6   1  -9   52.36    2.86
  -6  -1   9   47.69    2.85
  -6  -1   9   49.23    3.79
   6   1  -8  376.95   12.80
   6   1  -8  376.00   14.77
  -6  -1   8  395.60   15.49
  -6  -1   8  383.21   14.61
   6   1  -7  561.38   19.38
   6   1  -7  570.58   22.19
  -6  -1   7  549.11   21.01
   6   1  -6 1445.11   63.87
  -6  -1   6 1488.42   69.29
   6   1  -5  280.13    8.24
  -6  -1   5  271.56    9.05
   6   1  -4   15.06    1.02
  -6  -1   4   15.70    1.18
   6   1  -3 1194.77   48.17
  -6  -1   3 1182.24   49.23
  -6  -1   3 1198.65   48.77
   6   1  -2  213.18    6.47
   6   1  -2  215.76    7.01
  -6  -1   2  220.03    6.67
  -6  -1   2  215.42    6.12
   6   1  -1  528.66   16.32
   6   1  -1  513.31   17.42
  -6  -1   1  525.71   17.74
  -6  -1   1  544.09   17.33
   6   1   0  476.09   15.32
   6   1   0  484.17   15.76
  -6  -1   0  469.53   15.28
  -6  -1   0  467.30   14.45
   6   1   1  183.18    5.89
   6   1   1  182.08    5.42
  -6  -1  -1  188.89    5.09
  -6  -1  -1  182.33    5.08
   6   1   2  687.43   25.48
   6   1   2  665.97   22.83
  -6  -1  -2  698.83   23.26
  -6  -1  -2  700.84   25.14
   6   1   3   17.96    1.02
   6   1   3   14.28    0.91
  -6  -1  -3   12.71    0.92
  -6  -1  -3   13.88    1.18
   6   1   4  592.72   20.87
   6   1   4  586.76   19.06
  -6  -1  -4  576.14   18.81
  -6  -1  -4  589.24   19.80
   6   1   5  221.37    7.15
   6   1   5  202.10    6.02
  -6  -1  -5  207.31    6.02
  -6  -1  -5  210.33    6.28
   6   1   6    2.14    0.91
   6   1   6    2.48    0.63
  -6  -1  -6    2.09    0.53
  -6  -1  -6    3.12    0.59
   6   1   7    8.60    0.93
  -6  -1  -7    6.05    0.82
   6   1   8   41.96    2.08
  -6  -1  -8   32.53    1.69
   6   1   9    2.84    0.89
  -6  -1  -9    2.54    0.69
   6   1  10   95.29    5.82
   6   1  10   92.65    4.64
  -6  -1 -10   89.45    4.02
  -6  -1 -10   88.99    5.19
   6   1  11  927.17   45.77
   6   1  11  854.96   41.03
  -6  -1 -11  811.45   37.32
  -6  -1 -11  887.54   42.08
   6   1  12   87.50    5.53
   6   1  12   98.38    6.91
  -6  -1 -12   85.36    4.69
  -6  -1 -12   95.41    5.86
   6   1  13   60.28    4.62
   6   1  13   63.08    5.63
  -6  -1 -13   64.69    4.07
  -6  -1 -13   58.43    3.74
   6   1  14    2.42    1.32
   6   1  14    3.15    1.60
  -6  -1 -14    0.31    1.08
  -6  -1 -14    0.89    1.46
   6   1  15   20.44    2.86
  -6  -1 -15   20.94    3.42
   6   1  16   45.48    4.90
  -6  -1 -16   69.22    6.30
   6   2 -16   40.30    6.67
  -6  -2  16   34.30    6.76
   6   2 -15   98.06    9.96
  -6  -2  15   98.05    8.16
   6   2 -14  191.39   14.81
  -6  -2  14  211.01   15.69
   6   2 -13 1127.27   65.73
  -6  -2  13 1129.73   67.11
   6   2 -12  304.48   13.31
   6   2 -12  323.52   18.49
  -6  -2  12  325.01   16.89
   6   2 -11    2.96    0.97
   6   2 -11    3.24    1.59
  -6  -2  11    2.41    1.01
  -6  -2  11    3.17    1.29
   6   2 -10  246.19    9.72
   6   2 -10  266.94   13.49
  -6  -2  10  254.88   10.27
  -6  -2  10  277.11   14.15
   6   2  -9  380.77   14.42
   6   2  -9  393.14   16.43
  -6  -2   9  387.00   15.13
  -6  -2   9  401.01   16.95
   6   2  -8    7.29    0.94
   6   2  -8    3.95    1.40
  -6  -2   8    6.01    1.49
  -6  -2   8    4.88    0.99
   6   2  -7  162.34    5.58
  -6  -2   7  172.06    6.41
  -6  -2   7  156.68    5.53
   6   2  -6   81.45    3.02
  -6  -2   6   78.73    3.09
  -6  -2   6   87.40    3.46
   6   2  -5   45.96    2.10
  -6  -2   5   47.64    2.04
   6   2  -4  213.32    5.99
  -6  -2   4  227.12    6.81
   6   2  -3   50.33    2.08
   6   2  -3   54.47    2.46
  -6  -2   3   53.56    2.13
   6   2  -2   23.82    1.41
   6   2  -2   29.50    1.15
  -6  -2   2   23.61    1.31
   6   2  -1  148.13    4.69
   6   2  -1  151.87    4.66
  -6  -2   1  146.44    4.35
   6   2   0  117.88    3.44
   6   2   0  121.19    3.63
  -6  -2   0  121.14    3.67
  -6  -2   0  118.13    3.23
   6   2   1    1.75    0.69
   6   2   1    2.56    0.51
  -6  -2  -1    1.94    0.44
  -6  -2  -1    2.33    0.55
   6   2   2  238.86    7.98
   6   2   2  235.45    6.26
  -6  -2  -2  235.36    6.44
  -6  -2  -2  245.39    7.19
   6   2   3  162.69    5.03
  -6  -2  -3  171.98    4.72
   6   2   4   94.10    3.89
   6   2   4   96.79    3.16
  -6  -2  -4   93.55    2.54
  -6  -2  -4   94.33    3.37
   6   2   5 2775.84  163.74
   6   2   5 2790.70  160.95
  -6  -2  -5 2814.90  152.95
  -6  -2  -5 2834.98  165.51
   6   2   6  190.06    5.51
  -6  -2  -6  188.00    4.97
  -6  -2  -6  202.64    6.19
   6   2   7  745.91   29.33
  -6  -2  -7  705.67   24.60
  -6  -2  -7  760.82   30.44
   6   2   8  133.90    5.11
  -6  -2  -8  123.50    3.80
  -6  -2  -8  138.71    5.79
   6   2   9  571.91   24.90
   6   2   9  558.63   23.04
  -6  -2  -9  521.99   18.70
   6   2  10  675.16   31.09
   6   2  10  655.99   28.72
  -6  -2 -10  595.18   23.04
   6   2  11  258.88   12.80
   6   2  11  247.98   11.17
  -6  -2 -11  221.98    8.54
  -6  -2 -11  251.16   10.30
   6   2  12   56.23    4.44
   6   2  12   56.17    3.81
  -6  -2 -12   40.09    2.87
  -6  -2 -12   53.89    4.47
   6   2  13  341.98   16.40
   6   2  13  344.30   17.21
  -6  -2 -13  351.09   18.37
  -6  -2 -13  298.27   12.96
   6   2  14   42.06    4.33
   6   2  14   30.05    3.08
  -6  -2 -14   45.54    3.38
   6   2  15   17.96    3.41
   6   2  15   17.41    3.12
  -6  -2 -15   21.77    2.62
   6   2  16  103.42    8.67
   6   2  16  105.79    9.30
  -6  -2 -16  122.36    7.90
   6   3 -15    1.89    2.59
  -6  -3  15    4.94    2.74
   6   3 -14    1.69    1.97
  -6  -3  14    1.55    1.54
   6   3 -13  156.71   12.14
  -6  -3  13  155.91   12.42
   6   3 -12  262.28   12.73
   6   3 -12  298.57   15.26
  -6  -3  12  303.24   18.46
   6   3 -11  100.69    5.67
   6   3 -11  124.73    7.97
  -6  -3  11  132.91    8.30
   6   3 -10  200.12    8.69
   6   3 -10  215.25   11.82
  -6  -3  10  213.01   10.12
   6   3  -9   57.10    2.50
   6   3  -9   70.92    4.44
  -6  -3   9   68.63    3.60
  -6  -3   9   50.74    2.68
   6   3  -8   59.46    2.63
  -6  -3   8   39.98    1.83
  -6  -3   8   45.50    2.91
   6   3  -7  244.11    8.86
  -6  -3   7  233.83    7.69
  -6  -3   7  257.40   11.18
   6   3  -6   53.81    2.42
  -6  -3   6   53.15    3.17
  -6  -3   6   48.30    1.93
   6   3  -5  126.10    4.54
  -6  -3   5  125.47    4.61
  -6  -3   5  121.82    3.58
   6   3  -4  537.95   18.74
   6   3  -4  525.05   19.31
  -6  -3   4  516.02   16.20
  -6  -3   4  549.03   20.71
   6   3  -3 1351.33   58.14
   6   3  -3 1369.67   59.26
  -6  -3   3 1385.61   57.43
  -6  -3   3 1438.91   63.90
   6   3  -2   49.65    2.11
   6   3  -2   52.21    2.01
  -6  -3   2   43.19    1.65
   6   3  -1  450.84   13.97
   6   3  -1  465.77   14.49
  -6  -3   1  443.83   13.16
   6   3   0 2430.20  129.17
   6   3   0 2452.92  126.81
  -6  -3   0 2452.20  126.14
   6   3   1 1833.23   88.62
   6   3   1 1770.35   79.71
  -6  -3  -1 1803.89   82.56
   6   3   2  673.58   23.52
   6   3   2  660.17   20.74
  -6  -3  -2  675.71   21.71
  -6  -3  -2  706.84   24.86
   6   3   3 1961.45   99.17
   6   3   3 1916.92   86.51
  -6  -3  -3 1952.31   94.21
  -6  -3  -3 1928.48   95.93
   6   3   4    3.81    0.63
   6   3   4    4.70    0.55
  -6  -3  -4    3.93    0.35
  -6  -3  -4    3.82    0.68
   6   3   5 1989.95  103.52
   6   3   5 1994.99  100.69
  -6  -3  -5 1898.99   85.44
  -6  -3  -5 1983.86   99.40
   6   3   6  519.70   18.84
  -6  -3  -6  503.76   14.32
  -6  -3  -6  533.27   19.00
   6   3   7   95.15    3.71
  -6  -3  -7   89.57    2.31
  -6  -3  -7   94.80    3.23
   6   3   8  250.00   10.38
   6   3   8  249.14    9.35
  -6  -3  -8  241.67    6.80
  -6  -3  -8  257.57    9.85
   6   3   9   10.13    1.51
   6   3   9    9.11    1.03
  -6  -3  -9    9.88    0.75
  -6  -3  -9    9.95    1.06
   6   3  10  153.97    6.92
   6   3  10  159.34    6.30
  -6  -3 -10  139.26    4.36
   6   3  11    2.88    1.35
   6   3  11    3.33    1.24
  -6  -3 -11    4.29    0.74
   6   3  12  148.57    7.71
   6   3  12  134.97    7.25
  -6  -3 -12  118.73    4.35
   6   3  13   56.92    3.69
   6   3  13   63.30    4.54
  -6  -3 -13   60.60    4.80
   6   3  14   55.88    3.96
   6   3  14   57.68    4.99
  -6  -3 -14   57.11    5.28
   6   3  15   16.46    2.90
   6   3  15   17.75    3.04
  -6  -3 -15   17.99    3.32
   6   3  16   11.58    2.82
   6   3  16   12.55    2.97
  -6  -3 -16   14.05    3.04
   6   3  17   16.75    3.37
   6   3  17   13.10    3.64
  -6  -3 -17   19.32    3.02
   6   4 -15  133.51   14.41
  -6  -4  15  138.02   14.24
   6   4 -14    6.44    3.21
  -6  -4  14    9.70    2.56
   6   4 -13  109.05   10.02
  -6  -4  13  125.07   10.45
   6   4 -12   54.02    4.22
   6   4 -12   54.78    6.03
  -6  -4  12   57.43    6.06
   6   4 -11   18.06    2.34
   6   4 -11   20.17    2.39
  -6  -4  11   20.86    3.38
   6   4 -10   47.70    3.83
   6   4 -10   64.43    5.06
  -6  -4  10   64.06    4.04
   6   4  -9   25.77    2.29
  -6  -4   9   23.61    3.19
   6   4  -8  804.42   36.49
  -6  -4   8  878.76   43.31
   6   4  -7   19.56    1.83
  -6  -4   7   20.76    1.80
  -6  -4   7   19.34    1.13
   6   4  -6  154.75    5.96
  -6  -4   6  149.58    4.15
  -6  -4   6  158.83    6.17
   6   4  -5   15.54    1.38
   6   4  -5   17.16    1.15
  -6  -4   5   12.92    0.71
  -6  -4   5   14.56    1.67
   6   4  -4   10.47    1.11
   6   4  -4   11.72    1.18
  -6  -4   4    8.85    0.58
  -6  -4   4    9.24    1.02
   6   4  -3   28.50    1.60
   6   4  -3   29.06    1.56
  -6  -4   3   23.91    1.01
  -6  -4   3   25.95    1.43
   6   4  -2 1145.97   46.60
   6   4  -2 1116.15   45.94
  -6  -4   2 1119.43   41.32
  -6  -4   2 1181.69   51.35
   6   4  -1 1894.28   92.67
   6   4  -1 1891.05   90.52
  -6  -4   1 1934.12   87.30
  -6  -4   1 1959.58   99.45
   6   4   0  216.55    7.11
   6   4   0  215.50    5.86
  -6  -4   0  214.40    5.48
   6   4   1   55.40    2.43
   6   4   1   55.34    1.64
  -6  -4  -1   53.22    1.67
   6   4   2  469.96   15.37
   6   4   2  484.81   13.35
  -6  -4  -2  474.03   14.28
   6   4   3  106.98    3.97
   6   4   3   92.31    2.00
  -6  -4  -3   96.58    2.58
  -6  -4  -3   96.78    2.04
   6   4   4  127.25    4.05
   6   4   4  126.09    4.36
  -6  -4  -4  126.57    2.75
  -6  -4  -4  129.55    3.97
  -6  -4  -4  115.03    2.30
   6   4   5  247.87    8.65
  -6  -4  -5  232.64    5.35
  -6  -4  -5  235.93    6.90
  -6  -4  -5  263.20    6.26
   6   4   6   26.83    1.38
  -6  -4  -6   31.91    1.32
  -6  -4  -6   25.08    0.94
   6   4   7  253.02    8.33
  -6  -4  -7  248.51    5.79
  -6  -4  -7  272.83    9.51
   6   4   8    9.93    1.37
   6   4   8   10.05    1.33
  -6  -4  -8    9.79    0.92
   6   4   9  525.30   19.85
   6   4   9  504.97   20.85
  -6  -4  -9  467.69   14.08
  -6  -4  -9  525.44   20.64
   6   4  10   91.06    3.91
   6   4  10   92.03    4.72
  -6  -4 -10   92.00    4.74
  -6  -4 -10   83.31    2.48
   6   4  11  103.23    5.51
   6   4  11   99.96    5.51
  -6  -4 -11   89.54    3.02
  -6  -4 -11  106.65    5.68
   6   4  12  315.26   13.26
   6   4  12  325.66   15.76
   6   4  13  444.10   22.84
   6   4  13  455.93   22.60
   6   4  14  107.34    7.11
   6   4  14  115.81    7.78
  -6  -4 -14  111.02    6.20
   6   4  15   45.11    4.72
   6   4  15   51.60    3.95
  -6  -4 -15   57.80    5.56
   6   4  16   48.22    5.62
   6   4  16   41.99    3.96
  -6  -4 -16   64.84    4.52
   6   4  17  102.11    8.66
   6   4  17  107.12    7.24
  -6  -4 -17   93.63    9.98
   6   5 -14    1.95    2.22
  -6  -5  14    0.96    2.28
   6   5 -13    1.54    1.69
   6   5 -13    2.47    2.32
  -6  -5  13    5.98    2.36
   6   5 -12    6.08    1.95
   6   5 -12    6.10    2.61
  -6  -5  12    8.23    2.69
   6   5 -11    3.47    1.54
   6   5 -11    5.55    2.07
  -6  -5  11    3.70    2.08
   6   5 -10   14.32    2.10
  -6  -5  10   12.20    2.79
   6   5  -9  661.38   29.61
  -6  -5   9  713.72   37.62
   6   5  -8  823.95   37.07
  -6  -5   8  880.69   45.15
   6   5  -7  147.72    5.76
  -6  -5   7  153.66    6.76
   6   5  -6   41.05    2.57
   6   5  -6   42.00    2.15
  -6  -5   6   34.22    2.38
   6   5  -5   27.60    1.55
   6   5  -5   25.99    2.02
  -6  -5   5   22.97    1.65
   6   5  -4  655.17   25.89
   6   5  -4  671.98   26.08
  -6  -5   4  627.37   19.38
  -6  -5   4  660.83   25.71
   6   5  -3  720.68   27.10
   6   5  -3  740.38   28.10
  -6  -5   3  697.22   21.17
  -6  -5   3  730.89   28.72
   6   5  -2  968.07   40.68
   6   5  -2  971.18   38.08
  -6  -5   2  966.31   32.27
  -6  -5   2  985.27   42.45
   6   5  -1  288.92    9.95
   6   5  -1  288.75    8.59
  -6  -5   1  298.92   10.66
  -6  -5   1  290.99    7.02
   6   5   0  643.83   23.84
   6   5   0  626.17   19.93
  -6  -5   0  647.46   18.84
  -6  -5   0  647.27   24.65
   6   5   1   56.34    2.16
   6   5   1   59.77    1.57
  -6  -5  -1   57.12    1.48
  -6  -5  -1   60.65    2.22
   6   5   2   85.61    2.82
   6   5   2   87.12    1.95
  -6  -5  -2   79.93    2.32
  -6  -5  -2   85.27    1.77
  -6  -5  -2   82.95    3.48
   6   5   3  453.69   14.83
   6   5   3  449.88   11.55
  -6  -5  -3  483.29   14.04
  -6  -5  -3  390.13    9.22
   6   5   4  344.29    7.56
  -6  -5  -4  395.72   11.59
  -6  -5  -4  337.90    7.32
   6   5   5  841.56   33.92
  -6  -5  -5  846.70   31.35
  -6  -5  -5  778.38   22.32
   6   5   6  437.06   16.51
  -6  -5  -6  434.43   13.95
   6   5   7 3619.08  238.86
   6   5   7 3637.74  241.75
  -6  -5  -7 3198.65  176.06
  -6  -5  -7 3688.51  206.97
  -6  -5  -7 3572.98  226.18
   6   5   8  424.48   16.09
   6   5   8  434.37   16.78
  -6  -5  -8  381.78    9.30
  -6  -5  -8  441.60   14.98
   6   5   9  106.54    4.74
   6   5   9  101.83    4.79
  -6  -5  -9   87.63    2.01
  -6  -5  -9  108.45    3.86
   6   5  10   64.10    3.54
   6   5  10   65.13    3.53
  -6  -5 -10   49.57    1.46
  -6  -5 -10   59.34    2.77
   6   5  11   21.63    2.09
   6   5  11   20.18    2.30
  -6  -5 -11   19.42    2.26
   6   5  12   23.23    2.52
   6   5  12   21.57    2.96
  -6  -5 -12   33.23    2.12
   6   5  13   39.63    3.50
   6   5  13   29.08    2.35
  -6  -5 -13   35.79    3.41
   6   5  14  158.28    9.19
   6   5  14  165.25   10.35
   6   5  15  245.90   14.02
   6   5  15  262.57   16.19
   6   5  16   17.08    2.94
   6   5  16   19.41    2.64
  -6  -5 -16   23.28    2.91
   6   5  17    3.08    1.88
   6   5  17    8.94    2.50
  -6  -5 -17    5.03    2.52
   6   5  18    1.62    1.77
   6   5  18    4.27    1.79
  -6  -5 -18    2.40    1.87
   6   6 -13   13.94    2.93
   6   6 -13    9.13    2.75
  -6  -6  13   13.27    3.64
   6   6 -12  145.42    8.53
  -6  -6  12  148.02   11.99
   6   6 -11   44.46    4.43
  -6  -6  11   45.46    5.57
   6   6 -10   92.40    6.14
  -6  -6  10   90.87    5.90
   6   6  -9   79.62    4.15
  -6  -6   9   78.39    6.39
   6   6  -8    1.79    1.28
  -6  -6   8    3.01    1.48
   6   6  -7  119.00    6.21
   6   6  -7  115.19    5.47
  -6  -6   7  128.11    5.98
   6   6  -6  473.47   18.69
   6   6  -6  496.49   19.78
  -6  -6   6  498.17   22.70
   6   6  -5   13.71    1.61
   6   6  -5   10.99    1.19
  -6  -6   5   10.23    1.38
   6   6  -4  117.84    4.52
   6   6  -4  117.83    5.03
  -6  -6   4  112.69    2.33
  -6  -6   4  118.38    5.58
   6   6  -3   55.83    2.63
  -6  -6   3   57.63    2.58
   6   6  -2 2615.89  151.19
   6   6  -2 2528.96  140.06
   6   6  -2 2704.58  134.84
  -6  -6   2 2604.98  126.15
  -6  -6   2 2653.28  155.62
   6   6  -1  332.82   12.09
   6   6  -1  341.39   10.63
   6   6  -1  336.67    8.29
  -6  -6   1  325.59    7.42
  -6  -6   1  334.48   11.29
   6   6   0  652.78   24.13
   6   6   0  689.81   22.82
  -6  -6   0  684.22   27.02
  -6  -6   0  676.79   19.81
   6   6   1   51.12    2.04
   6   6   1   50.01    1.53
  -6  -6  -1   55.29    2.59
  -6  -6  -1   49.19    1.19
   6   6   2    9.49    1.11
   6   6   2   10.25    0.45
  -6  -6  -2    7.27    0.53
  -6  -6  -2   11.21    0.90
   6   6   3   23.16    1.62
   6   6   3   21.47    0.67
  -6  -6  -3   21.52    0.97
  -6  -6  -3   20.21    1.25
   6   6   4  315.52    6.62
  -6  -6  -4  364.44   10.57
  -6  -6  -4  326.99    6.62
  -6  -6  -4  368.35   11.98
   6   6   5   36.34    1.71
  -6  -6  -5   34.66    1.55
   6   6   6  788.56   32.47
   6   6   6  806.68   34.03
  -6  -6  -6  816.14   30.82
   6   6   7  827.41   32.40
   6   6   7  846.50   34.48
  -6  -6  -7  824.81   31.07
   6   6   8  292.82   10.88
   6   6   8  290.33   11.55
  -6  -6  -8  278.62   10.28
   6   6   9  363.92   14.34
   6   6   9  368.94   13.88
  -6  -6  -9  378.19   13.37
   6   6  10   21.52    2.08
   6   6  10   21.88    2.40
  -6  -6 -10   26.46    2.18
   6   6  11   61.49    3.76
   6   6  11   56.30    4.08
  -6  -6 -11   64.05    3.16
   6   6  12    5.30    1.35
   6   6  12    6.47    1.22
  -6  -6 -12    6.28    1.51
   6   6  13    3.46    1.20
   6   6  13    2.71    1.11
  -6  -6 -13    3.62    1.45
   6   6  14   18.50    2.20
   6   6  14   17.29    2.92
  -6  -6 -14   16.45    2.14
   6   6  15  125.01    7.76
   6   6  15  136.42    8.07
   6   6  16   76.92    7.00
   6   6  16   64.31    5.43
   6   6  17   17.24    2.70
   6   6  17   20.64    3.77
  -6  -6 -17   13.75    2.83
   6   6  18   24.59    4.66
   6   6  18   18.57    3.21
  -6  -6 -18   25.96    3.67
   6   7 -12   14.83    3.17
  -6  -7  12   10.36    3.75
   6   7 -11   39.43    4.62
  -6  -7  11   36.20    5.33
   6   7 -10  616.02   35.38
  -6  -7  10  639.22   35.08
   6   7  -9 1393.68   84.08
   6   7  -9 1477.89   90.39
  -6  -7   9 1421.84   88.83
   6   7  -8  839.57   44.24
   6   7  -8  868.18   46.48
  -6  -7   8  855.52   46.51
   6   7  -7    6.64    1.70
   6   7  -7    7.21    1.71
  -6  -7   7    6.16    1.44
   6   7  -6    8.27    1.76
   6   7  -6    7.82    1.76
  -6  -7   6   11.52    1.91
   6   7  -5   22.56    1.78
   6   7  -5   22.03    1.75
  -6  -7   5   16.65    2.48
   6   7  -4   43.34    2.47
   6   7  -4   47.51    2.22
  -6  -7   4   50.51    3.31
   6   7  -3  239.25    8.78
   6   7  -3  237.78    8.94
  -6  -7   3  247.76   10.41
   6   7  -2   16.61    1.30
   6   7  -2   14.85    1.27
  -6  -7   2   14.45    1.74
   6   7  -1   52.21    2.76
   6   7  -1   42.25    1.93
  -6  -7   1   52.36    2.73
   6   7   0  441.51   11.28
   6   7   0  429.11   14.78
   6   7   0  429.44   13.19
  -6  -7   0  400.95    9.65
  -6  -7   0  448.59   16.95
   6   7   1 1729.48   86.36
   6   7   1 1669.71   73.34
  -6  -7  -1 1619.83   66.45
  -6  -7  -1 1700.14   84.05
   6   7   2   39.01    2.30
  -6  -7  -2   41.96    1.83
   6   7   3    8.97    0.48
  -6  -7  -3    9.71    0.41
  -6  -7  -3   10.76    0.70
  -6  -7  -3   14.04    1.26
   6   7   4  500.70   12.26
  -6  -7  -4  594.45   18.51
  -6  -7  -4  599.23   23.06
   6   7   5  632.80   24.21
  -6  -7  -5  664.75   23.07
   6   7   6  796.77   32.50
   6   7   6  792.79   34.54
  -6  -7  -6  787.94   30.10
   6   7   7 1346.35   62.51
   6   7   7 1433.52   71.42
  -6  -7  -7 1409.57   64.15
   6   7   8  181.41    7.25
   6   7   8  180.09    7.95
  -6  -7  -8  184.95    6.84
   6   7   9 1430.08   71.33
   6   7   9 1485.06   74.26
  -6  -7  -9 1493.03   70.50
   6   7  10   99.56    4.66
   6   7  10  102.36    5.48
  -6  -7 -10   96.61    4.01
   6   7  11    2.26    0.95
   6   7  11    1.76    1.18
  -6  -7 -11    2.32    0.80
   6   7  12   28.74    2.01
   6   7  12   31.00    2.42
  -6  -7 -12   31.37    2.17
   6   7  13    8.05    1.53
   6   7  13    9.97    1.59
  -6  -7 -13    7.01    1.42
   6   7  14   93.08    6.86
   6   7  14   74.61    4.98
  -6  -7 -14   94.52    5.29
   6   7  15    2.43    1.19
   6   7  15   -0.33    1.29
  -6  -7 -15    4.01    1.23
   6   7  16  193.29   11.22
   6   7  16  219.90   14.96
  -6  -7 -16  213.97   12.60
   6   7  17   27.70    3.17
   6   7  17   29.86    4.74
   6   7  18    2.37    1.49
   6   7  18    1.91    2.20
   6   8 -12   13.79    2.93
  -6  -8  12   17.89    4.21
   6   8 -11  230.00   16.64
  -6  -8  11  227.00   17.74
   6   8 -10  157.50   11.19
   6   8 -10  158.62   10.31
  -6  -8  10  161.84    9.99
   6   8  -9  392.29   22.72
   6   8  -9  400.30   21.15
  -6  -8   9  396.88   23.86
   6   8  -8   17.48    2.88
   6   8  -8   12.43    2.81
  -6  -8   8   17.70    2.96
   6   8  -7  143.68    7.39
   6   8  -7  147.61    7.43
  -6  -8   7  147.45    7.65
   6   8  -6  232.84   12.02
   6   8  -6  232.86   10.20
  -6  -8   6  241.07   12.45
   6   8  -5  264.27   11.29
   6   8  -5  288.67   12.82
  -6  -8   5  282.42   13.81
   6   8  -4   71.28    4.29
   6   8  -4   61.04    3.12
  -6  -8   4   69.87    3.52
   6   8  -3   41.63    3.31
   6   8  -3   42.05    2.06
  -6  -8   3   50.94    2.53
   6   8  -2    1.85    0.73
   6   8  -2    1.54    0.71
  -6  -8   2    1.20    0.94
   6   8  -1    1.18    0.92
   6   8  -1    2.38    0.62
  -6  -8   1    0.72    0.93
   6   8   0   98.45    3.65
   6   8   0   93.33    3.00
   6   8   0   85.97    1.60
  -6  -8   0   94.50    3.74
   6   8   1  783.90   31.23
   6   8   1  791.45   24.46
   6   8   1  774.99   26.55
  -6  -8  -1  797.97   32.16
  -6  -8  -1  743.82   22.54
   6   8   2  518.67   20.17
   6   8   2  511.80   14.91
  -6  -8  -2  493.46   13.74
  -6  -8  -2  528.79   20.75
   6   8   3  384.44    9.84
  -6  -8  -3  389.45   10.93
  -6  -8  -3  414.77   14.76
   6   8   4 1418.82   53.30
  -6  -8  -4 1477.42   54.73
  -6  -8  -4 1497.60   63.80
  -6  -8  -4 1545.04   74.48
   6   8   5  100.32    4.34
   6   8   5   96.41    3.73
  -6  -8  -5   93.05    3.14
   6   8   6  580.89   23.14
   6   8   6  577.28   22.98
  -6  -8  -6  570.66   20.63
   6   8   7   32.80    1.68
   6   8   7   31.71    1.93
  -6  -8  -7   29.37    1.41
   6   8   8   64.37    3.23
   6   8   8   60.72    3.91
  -6  -8  -8   63.56    3.02
   6   8   9    9.06    1.34
   6   8   9   10.14    1.26
  -6  -8  -9    9.02    1.34
   6   8  10  865.73   38.99
   6   8  10  889.10   41.34
  -6  -8 -10  917.41   42.25
   6   8  11  188.25    8.04
   6   8  11  194.90   10.26
  -6  -8 -11  192.55    7.83
   6   8  12    4.33    1.16
   6   8  12    4.46    1.55
  -6  -8 -12    3.40    1.41
   6   8  13    8.80    1.57
   6   8  13   10.01    2.22
  -6  -8 -13    8.85    1.92
   6   8  14   98.80    5.81
   6   8  14  124.51    7.90
  -6  -8 -14  107.14    6.31
   6   8  15   13.47    2.06
   6   8  15   19.63    3.24
  -6  -8 -15   19.31    2.33
   6   8  16   51.47    3.85
   6   8  16   53.62    4.74
  -6  -8 -16   54.55    4.52
   6   8  17   44.33    4.05
   6   8  17   50.83    6.18
  -6  -8 -17   52.72    6.14
   6   8  18    2.26    1.61
   6   8  18    0.90    1.23
   6   9 -11   50.93    6.50
   6   9 -11   48.17    7.07
  -6  -9  11   43.12    5.18
   6   9 -10  514.92   34.06
   6   9 -10  534.23   31.13
  -6  -9  10  515.15   33.85
   6   9  -9  241.08   16.33
   6   9  -9  249.32   16.99
  -6  -9   9  231.75   13.59
   6   9  -8    4.41    2.07
   6   9  -8    3.06    2.01
  -6  -9   8    5.12    1.54
   6   9  -7   11.07    2.64
   6   9  -7   11.44    2.46
  -6  -9   7   12.18    1.95
   6   9  -6 1207.20   69.45
   6   9  -6 1151.47   63.97
  -6  -9   6 1199.42   68.02
   6   9  -5  682.80   35.32
   6   9  -5  666.18   32.28
  -6  -9   5  669.48   33.87
   6   9  -4 1699.23   98.99
   6   9  -4 1618.46   85.96
  -6  -9   4 1651.53   92.10
   6   9  -3  689.27   33.06
   6   9  -3  648.85   28.58
  -6  -9   3  676.20   31.91
   6   9  -2  480.08   21.13
   6   9  -2  443.64   17.59
  -6  -9   2  460.01   18.61
   6   9  -1  994.62   47.59
   6   9  -1  956.22   40.78
  -6  -9   1  971.52   46.77
   6   9   0  438.37   18.28
   6   9   0  416.45   14.38
  -6  -9   0  443.15   18.72
   6   9   1  195.83    6.99
   6   9   1  172.55    3.44
   6   9   1  182.12    5.28
  -6  -9  -1  207.93    8.20
   6   9   2   25.17    0.94
  -6  -9  -2   29.55    2.15
   6   9   3  259.90    6.29
  -6  -9  -3  241.32    6.25
  -6  -9  -3  274.31   10.78
   6   9   4   11.14    1.49
  -6  -9  -4   11.95    0.67
  -6  -9  -4   13.47    1.18
   6   9   5   85.01    3.47
  -6  -9  -5   89.48    2.99
   6   9   6   37.27    2.27
   6   9   6   31.11    1.93
  -6  -9  -6   28.19    1.61
   6   9   7  105.94    4.75
   6   9   7  103.86    5.34
  -6  -9  -7  100.30    4.02
   6   9   8  254.84    9.05
   6   9   8  242.86    9.79
  -6  -9  -8  241.52    9.33
   6   9   9   23.11    1.99
   6   9   9   28.28    1.98
  -6  -9  -9   22.30    1.95
   6   9  10   61.92    3.76
   6   9  10   84.72    3.73
  -6  -9 -10   70.10    4.13
   6   9  11  174.79    7.62
   6   9  11  187.54   10.15
  -6  -9 -11  176.45    8.74
   6   9  12   80.09    4.48
   6   9  12   81.57    4.79
  -6  -9 -12  104.50    5.61
   6   9  13  155.08    7.43
   6   9  13  155.78    8.21
  -6  -9 -13  156.08    7.79
   6   9  14   38.76    3.18
   6   9  14   50.92    4.77
  -6  -9 -14   47.53    4.49
   6   9  15    3.21    1.22
   6   9  15    4.60    1.54
  -6  -9 -15    3.58    1.93
   6   9  16  379.72   19.37
   6   9  16  438.27   28.32
  -6  -9 -16  440.89   24.08
   6   9  17   34.98    3.27
   6   9  17   41.65    5.46
  -6  -9 -17   37.21    5.20
   6   9  18   39.45    4.15
   6   9  18   64.61    6.99
  -6  -9 -18   59.17    7.08
   6  10 -10    2.57    2.39
   6  10 -10    2.83    2.39
  -6 -10  10    2.08    1.67
   6  10  -9  466.69   31.98
   6  10  -9  483.94   28.46
  -6 -10   9  455.32   29.82
   6  10  -8  368.15   24.57
   6  10  -8  368.25   23.88
  -6 -10   8  344.99   22.39
   6  10  -7  379.77   20.80
   6  10  -7  366.13   21.66
  -6 -10   7  378.20   21.99
   6  10  -6   18.11    3.26
   6  10  -6   17.84    2.80
  -6 -10   6   19.42    2.97
   6  10  -5   77.77    4.89
   6  10  -5   72.08    5.28
  -6 -10   5   79.38    5.85
   6  10  -4  715.87   35.28
   6  10  -4  696.23   34.20
  -6 -10   4  724.37   37.22
   6  10  -3  531.05   26.59
   6  10  -3  507.67   22.82
  -6 -10   3  521.93   25.19
   6  10  -2  104.55    5.86
   6  10  -2   80.35    4.32
  -6 -10   2   96.42    5.51
   6  10  -1    7.04    1.94
   6  10  -1   10.99    1.20
  -6 -10   1   11.42    1.73
   6  10   0  771.23   34.01
   6  10   0  734.20   28.69
  -6 -10   0  776.89   36.07
   6  10   1   84.30    1.14
   6  10   1   86.69    1.15
   6  10   2  138.64    4.01
  -6 -10  -2  154.01    7.19
   6  10   3  503.94   15.43
  -6 -10  -3  552.48   21.66
  -6 -10  -3  521.02   16.09
   6  10   4  665.57   25.55
   6  10   4  613.91   18.51
  -6 -10  -4  600.39   20.22
  -6 -10  -4  670.67   29.11
   6  10   5    2.87    0.69
   6  10   5    1.54    0.21
  -6 -10  -5    2.19    0.45
   6  10   6   98.42    4.66
  -6 -10  -6   88.13    3.24
   6  10   7  872.85   37.25
  -6 -10  -7  843.23   35.76
   6  10   8   53.57    3.15
   6  10   8   49.17    3.72
  -6 -10  -8   50.03    2.66
   6  10   9  302.18   12.56
   6  10   9  306.10   14.60
  -6 -10  -9  284.73   10.70
   6  10  10  158.41    7.02
   6  10  10  171.77    9.02
  -6 -10 -10  161.55    7.57
   6  10  11  383.13   16.59
   6  10  11  399.25   18.42
  -6 -10 -11  397.29   18.67
   6  10  12    4.13    1.14
   6  10  12    4.44    1.32
  -6 -10 -12    3.47    1.49
   6  10  13  105.16    5.64
   6  10  13  121.26    8.28
  -6 -10 -13  126.71    7.80
   6  10  14   11.03    1.71
   6  10  14   13.68    2.59
  -6 -10 -14    9.94    2.52
   6  10  15  135.75    7.50
   6  10  15  155.45    9.45
  -6 -10 -15  168.40   11.11
   6  10  16   27.74    2.52
   6  10  16   25.35    4.56
  -6 -10 -16   26.12    3.32
   6  10  17   55.45    3.80
   6  10  17   69.40    7.44
  -6 -10 -17   77.04    7.41
   6  10  18    3.86    2.51
  -6 -10 -18    2.27    1.89
   6  11  -9  109.13    8.83
   6  11  -9  106.75   11.01
  -6 -11   9   92.91    7.64
   6  11  -8  210.72   13.77
   6  11  -8  213.61   13.97
  -6 -11   8  209.29   15.39
   6  11  -7    2.28    1.49
   6  11  -7    2.16    1.63
  -6 -11   7   -0.12    1.64
   6  11  -6  227.04   15.26
   6  11  -6  199.87   13.20
  -6 -11   6  226.88   11.84
   6  11  -5  148.28    8.85
   6  11  -5  143.14    9.20
  -6 -11   5  150.75    9.65
   6  11  -4  220.80   11.81
   6  11  -4  215.73   11.70
  -6 -11   4  226.22   13.02
   6  11  -3   85.94    5.31
   6  11  -3   86.32    5.28
  -6 -11   3  113.76    6.37
   6  11  -2  127.98    8.02
   6  11  -2  112.92    5.71
  -6 -11   2  117.75    5.90
   6  11  -1   45.11    3.69
   6  11  -1   34.25    2.42
  -6 -11   1   33.18    3.39
   6  11   0  104.71    4.43
  -6 -11   0  118.31    6.26
   6  11   1    4.56    0.78
  -6 -11  -1    5.00    1.34
   6  11   2  127.45    4.52
  -6 -11  -2  145.83    7.51
   6  11   3  109.41    4.76
   6  11   3   90.42    2.68
  -6 -11  -3  114.96    5.60
   6  11   4   12.94    1.73
   6  11   4   10.46    0.67
  -6 -11  -4   10.38    0.64
  -6 -11  -4   16.04    1.38
   6  11   5   19.96    2.08
   6  11   5   25.45    1.75
   6  11   5   19.30    0.57
  -6 -11  -5   16.69    1.01
   6  11   6  153.00    6.98
   6  11   6  144.47    7.38
  -6 -11  -6  133.66    4.93
   6  11   7   85.39    3.70
  -6 -11  -7   79.03    3.48
   6  11   8   26.43    2.45
  -6 -11  -8   29.49    2.04
   6  11   9    5.10    1.17
  -6 -11  -9    4.03    1.11
   6  11  10    6.92    1.33
  -6 -11 -10    4.64    1.35
   6  11  11  287.36   15.40
   6  11  11  261.01   11.49
  -6 -11 -11  258.46   13.06
   6  11  12  156.09    7.44
   6  11  12  174.55   10.54
  -6 -11 -12  163.45    7.82
   6  11  13  284.69   12.99
   6  11  13  308.84   17.72
  -6 -11 -13  295.13   16.10
   6  11  14   49.52    3.28
   6  11  14   53.62    5.33
  -6 -11 -14   51.68    4.76
   6  11  15   94.93    5.78
   6  11  15  115.47    9.28
  -6 -11 -15  136.53    8.99
   6  11  16    1.48    0.84
   6  11  16    0.47    1.39
  -6 -11 -16    0.77    1.75
   6  11  17   19.83    2.34
   6  11  17   24.85    4.42
  -6 -11 -17   26.50    3.44
   6  11  18   70.14    8.26
  -6 -11 -18   52.06    6.35
   6  12  -7   80.78    8.69
   6  12  -7   70.56    7.29
  -6 -12   7   59.13    7.32
   6  12  -6   67.87    5.89
   6  12  -6   72.44    4.97
  -6 -12   6   53.33    6.53
   6  12  -5  607.63   37.63
   6  12  -5  575.77   33.16
  -6 -12   5  564.41   29.99
   6  12  -4  382.81   20.30
   6  12  -4  351.21   19.18
  -6 -12   4  376.31   19.02
   6  12  -3   86.06    5.82
   6  12  -3   92.35    5.72
  -6 -12   3   94.57    6.61
   6  12  -2  164.69   10.48
   6  12  -2  140.49    7.47
  -6 -12   2  147.04    9.03
   6  12  -1  271.71   13.09
   6  12  -1  238.67   10.71
  -6 -12   1  261.62   13.53
   6  12   0    4.42    1.12
  -6 -12   0    8.55    1.26
   6  12   1  285.42   11.11
  -6 -12  -1  318.93   15.33
   6  12   2    2.09    1.01
   6  12   2    2.26    0.58
  -6 -12  -2    3.98    1.24
   6  12   3   54.00    3.85
  -6 -12  -3   46.93    3.69
   6  12   4  834.17   37.43
   6  12   4  692.26   24.86
  -6 -12  -4  854.22   40.83
   6  12   5  199.22    8.90
   6  12   5  199.56   10.19
   6  12   6  197.15    9.03
   6  12   6  203.27    9.93
  -6 -12  -6  170.30    6.26
   6  12   7  469.23   21.22
   6  12   7  495.64   21.61
  -6 -12  -7  422.08   16.48
   6  12   8  842.67   43.85
   6  12   8  837.03   40.26
  -6 -12  -8  728.66   32.90
   6  12   9  118.53    6.02
  -6 -12  -9   98.72    5.21
   6  12  10   88.37    4.88
  -6 -12 -10   84.10    5.01
   6  12  11    5.48    1.30
  -6 -12 -11    5.16    1.52
   6  12  12   86.18    4.91
  -6 -12 -12   90.40    5.24
   6  12  13    8.83    1.40
  -6 -12 -13   15.78    2.38
   6  12  14  350.76   16.55
   6  12  14  394.69   23.50
  -6 -12 -14  389.25   22.78
   6  12  15   16.22    1.77
   6  12  15   16.86    2.74
  -6 -12 -15   22.50    3.40
   6  12  16   88.59    5.55
   6  12  16  128.76    9.74
  -6 -12 -16  103.93    9.34
   6  12  17   21.56    3.64
  -6 -12 -17   25.19    4.57
   6  12  18    3.55    1.92
  -6 -12 -18    1.48    2.49
   6  13  -6  100.97   10.55
   6  13  -6   93.29    8.86
   6  13  -5    3.48    1.83
   6  13  -5    3.07    1.86
  -6 -13   5    3.70    1.97
   6  13  -4  121.12    9.43
   6  13  -4   92.15    5.94
  -6 -13   4  107.72    8.20
   6  13  -3  303.58   19.58
   6  13  -3  265.20   12.61
  -6 -13   3  283.57   16.56
   6  13  -2  194.95   13.05
   6  13  -2  169.21    9.49
  -6 -13   2  180.31   10.95
   6  13  -1    7.17    1.53
  -6 -13   1    9.26    1.97
   6  13   0  112.98    5.71
  -6 -13   0  124.35    7.48
   6  13   1    5.10    1.07
  -6 -13  -1    7.34    1.69
   6  13   2    0.65    1.27
   6  13   2    1.55    0.64
  -6 -13  -2    1.05    1.17
   6  13   3   68.96    3.91
   6  13   3   54.43    2.52
  -6 -13  -3   76.99    3.73
   6  13   4  126.74    6.99
   6  13   4  102.97    3.28
  -6 -13  -4  125.76    5.74
   6  13   5   85.42    5.42
   6  13   5   75.19    4.47
   6  13   6    2.11    0.96
   6  13   6    1.50    1.11
   6  13   7  296.46   12.26
   6  13   7  306.38   15.50
  -6 -13  -7  276.67   10.96
   6  13   8  313.51   13.17
   6  13   8  314.68   16.42
  -6 -13  -8  296.05   12.52
   6  13   9  112.92    6.26
   6  13   9  117.30    7.68
  -6 -13  -9  106.30    5.55
   6  13  10  118.14    6.43
   6  13  10  132.69    6.91
  -6 -13 -10  108.86    6.11
   6  13  11  366.35   16.91
   6  13  11  374.46   18.84
  -6 -13 -11  342.39   17.80
   6  13  12    5.04    1.33
  -6 -13 -12    5.87    1.71
   6  13  13    1.93    0.96
  -6 -13 -13    4.42    1.59
   6  13  14    7.09    1.56
  -6 -13 -14   10.42    2.38
   6  13  15  426.11   20.48
  -6 -13 -15  550.22   31.48
   6  13  16    3.62    1.80
  -6 -13 -16    3.34    2.31
   6  13  17  187.74   15.56
  -6 -13 -17  162.07   11.78
   6  13  18   78.42    8.48
  -6 -13 -18   91.22    8.13
   6  14  -5    6.29    3.05
   6  14  -5    4.84    2.37
   6  14  -4    1.43    1.36
   6  14  -4   -0.17    1.00
   6  14  -3  161.20   10.48
   6  14  -3  140.22    9.68
  -6 -14   3  140.48   10.63
   6  14  -2   91.93    6.39
  -6 -14   2  100.12    7.37
   6  14  -1  113.85    7.03
  -6 -14   1  130.14    8.64
   6  14   0    9.20    1.58
  -6 -14   0    9.28    1.61
   6  14   1   70.47    6.42
  -6 -14  -1   77.13    4.34
   6  14   2    4.69    1.86
   6  14   2    4.72    0.94
  -6 -14  -2    2.08    1.60
   6  14   3   34.91    3.75
   6  14   3   28.99    1.64
  -6 -14  -3   39.22    3.52
   6  14   4    4.31    1.47
   6  14   4    1.99    0.60
   6  14   5  142.10    8.69
   6  14   5  132.17    6.93
   6  14   6    5.60    1.50
   6  14   6    4.71    0.64
   6  14   6    2.96    0.40
   6  14   6    6.51    1.23
   6  14   7   82.05    4.91
   6  14   7   61.24    3.28
   6  14   7   76.65    4.29
   6  14   8  124.13    7.34
   6  14   8  125.51    6.84
   6  14   9  182.88    9.60
   6  14   9  198.47   11.61
  -6 -14  -9  164.54    7.41
   6  14  10   66.92    3.78
   6  14  10   73.85    5.96
  -6 -14 -10   62.64    4.31
   6  14  11  216.08   11.38
   6  14  11  256.64   15.60
  -6 -14 -11  233.41   12.38
   6  14  12  392.08   18.78
   6  14  12  453.77   27.06
  -6 -14 -12  415.33   22.77
   6  14  13  103.75    6.09
   6  14  13  120.42    7.84
  -6 -14 -13  110.50    8.19
   6  14  14    2.78    1.10
   6  14  14    4.24    2.05
  -6 -14 -14    2.03    1.35
   6  14  15   20.05    2.21
  -6 -14 -15   22.82    3.04
  -6 -14 -16    2.61    2.19
  -6 -14 -17   38.93    4.76
  -6 -14 -18   19.50    4.98
   6  15  -3    3.18    2.39
   6  15  -3    1.31    1.20
   6  15  -2    1.98    1.47
   6  15  -1    1.74    1.39
  -6 -15   1    3.71    1.68
   6  15   0  311.34   17.30
   6  15   0  256.76   13.53
  -6 -15   0  272.63   16.47
   6  15   1   83.13    7.22
   6  15   1   63.80    4.19
  -6 -15  -1   73.01    5.81
   6  15   2  556.89   31.39
   6  15   2  425.61   18.49
  -6 -15  -2  519.71   28.59
   6  15   3   88.64    5.44
   6  15   3   62.59    3.48
  -6 -15  -3   78.02    5.80
   6  15   4  284.96   15.94
   6  15   4  258.69   12.43
   6  15   4  215.73    8.97
   6  15   5    8.22    1.82
   6  15   5    3.73    0.64
   6  15   5    8.62    1.75
   6  15   6   18.04    2.60
   6  15   6   12.21    2.02
   6  15   7   73.33    3.97
   6  15   7   56.88    2.79
   6  15   7   74.41    5.48
   6  15   8  498.78   21.91
   6  15   8  572.63   29.36
   6  15   8  578.08   31.59
   6  15   9   14.70    2.08
   6  15   9    8.87    1.62
   6  15   9   13.07    2.58
   6  15  10  113.61    7.25
   6  15  10  122.07    7.25
   6  15  11   44.34    3.50
   6  15  11   43.44    5.05
  -6 -15 -11   34.83    3.59
   6  15  12    9.54    1.90
   6  15  12   14.12    2.31
  -6 -15 -12   12.84    2.31
   6  15  13   33.76    2.58
   6  15  13   36.16    4.95
  -6 -15 -13   32.45    4.00
   6  15  14   92.16    5.82
   6  15  14  118.22    7.71
  -6 -15 -14  117.16    7.17
   6  15  15    8.92    3.03
  -6 -15 -15    7.77    2.70
   6  15  16   69.13    8.43
  -6 -15 -16   67.04    7.54
   6  15  17   17.14    3.60
  -6 -15 -17    3.89    2.51
   6  16  -2   97.09    6.07
   6  16  -1   26.60    3.96
   6  16  -1   19.77    3.22
   6  16   0    1.73    2.32
   6  16   0    2.34    1.33
   6  16   1  126.39    8.42
   6  16   1   93.49    6.13
   6  16   2  203.82   14.58
   6  16   2  161.06    8.02
  -6 -16  -2  195.82   10.53
   6  16   3    2.24    1.61
   6  16   3    0.69    0.82
   6  16   4   43.00    4.73
   6  16   4   33.87    2.00
   6  16   4   43.40    4.25
   6  16   5  116.55    7.26
   6  16   5  108.73    8.00
   6  16   6    8.58    2.12
   6  16   6    5.41    2.13
   6  16   7    5.87    1.85
   6  16   7    4.21    1.89
   6  16   8   78.98    5.94
   6  16   8   73.95    6.36
   6  16   9   77.37    4.59
   6  16   9   82.77    6.21
   6  16   9   86.53    6.87
   6  16  10   85.65    5.97
   6  16  10   77.44    4.65
   6  16  10   95.73    7.40
   6  16  11   22.32    2.75
   6  16  11   25.66    3.85
   6  16  11   20.70    2.78
   6  16  12   38.06    3.62
   6  16  12   29.77    2.68
   6  16  12   27.10    2.73
   6  16  13    5.31    1.33
   6  16  13    7.58    2.53
   6  16  14    3.69    2.18
  -6 -16 -14    2.44    1.87
   6  16  15   14.41    2.90
  -6 -16 -15   14.11    3.30
   6  16  16    1.49    1.73
  -6 -16 -16    1.91    1.96
   6  17   1    3.63    2.49
   6  17   1    2.82    1.43
   6  17   2    4.02    1.92
   6  17   2    4.39    1.37
   6  17   3    4.61    1.65
   6  17   3   -0.14    1.67
   6  17   4    3.79    1.56
   6  17   4    2.15    1.31
   6  17   5    2.53    1.63
   6  17   5    0.34    1.10
   6  17   6   49.72    5.30
   6  17   6   42.07    3.97
   6  17   7   35.07    3.32
   6  17   7   36.63    4.29
   6  17   8  216.12   13.52
   6  17   8  226.09   15.04
   6  17   9   97.31    7.51
   6  17   9   96.55    8.07
   6  17  10   13.16    2.18
   6  17  10   16.54    2.64
   6  17  10   20.47    2.66
   6  17  11   85.60    5.88
   6  17  11   84.27    7.68
   6  17  11   68.26    5.37
   6  17  12   16.95    2.72
   6  17  12   15.45    2.54
   6  17  12   19.20    3.70
   6  17  13   -0.13    1.07
   6  17  13    3.94    1.76
   6  17  13    0.26    1.36
   6  17  14   42.25    5.55
   6  17  14   57.58    6.52
   6  17  15    9.06    2.85
   6  17  15    7.96    2.56
   6  18   3  154.46   13.79
   6  18   3  145.45   11.32
   6  18   4    0.83    1.46
   6  18   4   -0.64    1.20
   6  18   5   32.36    4.94
   6  18   5   30.81    4.13
   6  18   6   10.90    2.95
   6  18   6   10.02    2.64
   6  18   7    4.82    2.09
   6  18   7    3.50    2.00
   6  18   8    1.28    1.26
   6  18   8    3.86    1.82
   6  18   9    5.91    2.03
   6  18   9    5.19    1.74
   6  18  10   16.59    3.01
   6  18  10   19.79    2.85
   6  18  11   11.13    2.49
   6  18  11   13.68    2.48
   6  18  12    3.57    1.82
   6  18  12    6.56    1.80
   6  18  12    5.38    1.93
   6  18  13    2.31    1.65
   6  18  13    2.02    1.61
   6  18  14    3.09    2.19
   6  18  14    5.90    2.06
   6  19   8    4.85    1.90
   6  19   8    0.06    1.93
   6  19   9    2.40    1.96
   6  19   9    4.16    2.16
   6  19  10   57.06    6.03
   6  19  10   67.09    6.82
  -7  14  10   -0.82    2.64
  -7  14  10    9.13    2.84
  -7  14   9    1.72    1.68
  -7  14   9    2.68    2.40
  -7  14   8    9.85    2.64
  -7  14   8   11.47    3.55
  -7  14   7    6.17    2.68
  -7  14   7    2.84    2.64
  -7  14   6   13.88    3.71
  -7  14   6   11.36    3.44
  -7  14   5    1.82    2.36
  -7  14   5    3.13    2.07
   7 -13 -13    1.68    2.15
  -7  13  13    1.28    1.94
   7 -13 -12  136.81   10.53
  -7  13  12  178.50   13.87
  -7  13  11   13.23    4.29
  -7  13  11   13.70    2.95
  -7  13  10   70.51    8.94
  -7  13  10  104.74   10.12
  -7  13   9    4.10    1.96
  -7  13   9    6.69    2.85
  -7  13   8    6.13    2.06
  -7  13   8    5.34    2.87
  -7  13   7   20.70    3.34
  -7  13   7   21.31    3.25
  -7  13   6   37.57    4.34
  -7  13   6   43.59    5.50
  -7  13   5   81.55    6.99
  -7  13   5   94.57    8.74
  -7  13   4   28.98    4.85
  -7  13   4   26.13    4.37
  -7  13   3   24.09    4.44
  -7  13   3   19.88    2.81
  -7  13   2   27.73    4.19
  -7  13   1   19.16    3.25
   7 -12 -14   28.92    5.44
   7 -12 -13    2.48    2.27
   7 -12 -12    5.63    2.94
  -7  12  12    9.71    3.46
   7 -12 -11    4.16    2.57
  -7  12  11    5.09    2.17
   7 -12 -10   12.63    2.57
  -7  12  10   14.44    3.80
  -7  12   9  111.66    8.78
  -7  12   9  115.84   10.52
  -7  12   8   27.25    3.52
  -7  12   8   23.87    3.62
  -7  12   7    2.58    1.56
  -7  12   7    1.72    2.09
  -7  12   6   33.35    3.91
  -7  12   6   37.06    3.90
  -7  12   5   21.15    4.33
  -7  12   5   27.52    3.27
  -7  12   4  128.42    8.00
  -7  12   3   14.09    2.92
  -7  12   2   25.56    3.79
   7 -12  -1   10.01    2.62
  -7  12   1   11.53    2.47
   7 -12   0    6.58    2.56
  -7  12   0    9.33    3.09
  -7  12   0    9.62    2.30
   7 -12   1   35.62    4.01
  -7  12  -1   34.91    4.06
  -7  12  -1   41.63    4.70
   7 -11 -15   13.16    3.70
  -7  11  15   14.23    4.35
  -7  11  15    8.68    2.54
   7 -11 -14    6.05    2.37
  -7  11  14    2.07    2.09
  -7  11  14    1.77    1.46
   7 -11 -13   60.08    5.82
  -7  11  13   62.01    4.39
   7 -11 -12  102.86   10.58
   7 -11 -11   95.13    8.97
   7 -11 -10   11.39    3.23
  -7  11  10   13.41    2.75
   7 -11  -9  105.13    9.51
  -7  11   9  126.55   10.33
  -7  11   8   98.01    8.59
  -7  11   8   84.60    6.48
  -7  11   7   35.43    5.29
  -7  11   7   38.86    3.98
  -7  11   6   60.34    5.22
  -7  11   6   63.50    6.21
  -7  11   5   39.75    4.82
  -7  11   4   32.35    4.37
  -7  11   3   82.53    6.76
   7 -11  -2   92.12    5.42
  -7  11   2  101.97    7.30
   7 -11  -1   69.61    5.22
  -7  11   1   34.55    5.29
  -7  11   1   63.12    4.12
   7 -11   0   20.78    2.55
  -7  11   0   19.38    3.97
  -7  11   0   21.18    3.01
   7 -11   1   13.68    3.14
  -7  11  -1   12.62    2.41
  -7  11  -1   16.05    2.62
   7 -11   2   48.66    5.96
  -7  11  -2   38.03    4.42
  -7  11  -2   69.42    6.14
   7 -11   3    6.88    3.07
  -7  11  -3    7.90    1.93
  -7  11  -3    8.69    2.35
   7 -10 -16   75.90    9.33
  -7  10  16   89.89    8.39
  -7  10  16   53.63    6.87
   7 -10 -15   23.52    4.49
  -7  10  15   23.72    3.77
  -7  10  15   10.48    3.12
   7 -10 -14    2.61    1.86
  -7  10  14    2.03    1.58
  -7  10  14    6.02    2.01
   7 -10 -13    6.03    2.83
  -7  10  13    5.93    1.63
  -7  10  13    7.67    3.04
   7 -10 -12    6.45    2.27
  -7  10  12    1.81    1.28
  -7  10  12    7.06    2.52
   7 -10 -11   98.31    6.37
  -7  10  11   73.10    4.10
   7 -10 -10   38.85    3.72
  -7  10  10   30.70    2.25
   7 -10  -9  191.97   11.45
   7 -10  -8  108.43    7.42
  -7  10   8  145.14    9.92
  -7  10   7    2.99    1.91
  -7  10   6   84.26    7.07
  -7  10   5    6.38    1.68
  -7  10   4  122.77    8.72
   7 -10  -3    7.20    1.59
  -7  10   3   10.08    2.13
   7 -10  -2  158.59    9.25
  -7  10   2  163.15    9.92
  -7  10   2  173.48    8.74
   7 -10  -1    3.95    1.47
  -7  10   1    2.11    1.87
  -7  10   1    3.20    1.55
   7 -10   0   50.23    4.77
  -7  10   0   48.44    5.34
  -7  10   0   54.61    4.53
   7 -10   1   64.30    5.78
  -7  10  -1   64.56    6.21
  -7  10  -1   60.80    4.96
   7 -10   2   76.67    5.05
  -7  10  -2   68.28    4.92
  -7  10  -2   38.67    5.20
   7 -10   3   78.84    7.65
  -7  10  -3   56.25    5.29
  -7  10  -3   88.38    7.36
   7 -10   4   24.29    4.06
  -7  10  -4   17.55    2.63
  -7  10  -4   15.25    3.87
   7 -10   5   36.76    5.57
  -7  10  -5   26.50    3.21
  -7  10  -5   29.32    5.14
   7  -9 -16    3.53    2.67
  -7   9  16    3.24    2.98
  -7   9  16    3.01    2.03
   7  -9 -15   34.54    4.89
  -7   9  15   53.91    6.79
  -7   9  15   42.39    4.93
   7  -9 -14   70.41    8.11
  -7   9  14   62.20    5.90
  -7   9  14   91.06    8.93
   7  -9 -13    7.78    2.90
  -7   9  13    7.24    2.31
  -7   9  13    8.09    1.85
   7  -9 -12   17.22    2.80
  -7   9  12   15.88    2.23
  -7   9  12   23.92    4.01
   7  -9 -11  163.35   11.62
  -7   9  11  135.40    6.58
  -7   9  11  164.50   12.13
   7  -9 -10   13.93    2.08
  -7   9  10   12.56    2.22
  -7   9  10    7.98    1.20
   7  -9  -9   17.45    2.69
  -7   9   9    9.88    1.03
   7  -9  -8  797.79   42.65
  -7   9   8  666.08   25.71
   7  -9  -7  750.21   36.99
  -7   9   7  751.22   40.02
  -7   9   7  581.49   20.26
   7  -9  -6    8.21    2.38
  -7   9   6   10.28    1.89
  -7   9   5  104.23    5.87
   7  -9  -4   56.79    3.41
  -7   9   4   72.65    4.41
   7  -9  -3  210.27    9.84
  -7   9   3  232.50   13.95
  -7   9   3  255.78   13.79
   7  -9  -2  101.70    6.33
  -7   9   2  146.24    8.49
  -7   9   2  108.41    6.00
   7  -9  -1   55.37    3.40
  -7   9   1   68.92    5.41
  -7   9   1   64.96    4.78
   7  -9   0  332.88   18.37
  -7   9   0  365.54   20.86
  -7   9   0  336.68   17.53
   7  -9   1    2.24    1.11
  -7   9  -1    3.05    1.55
  -7   9  -1    1.27    1.30
   7  -9   2   41.10    3.89
  -7   9  -2   50.07    3.82
  -7   9  -2   44.29    4.88
   7  -9   3   18.73    2.71
  -7   9  -3   19.00    2.55
  -7   9  -3   20.30    2.67
   7  -9   4    3.31    1.60
  -7   9  -4    4.24    1.39
  -7   9  -4    0.87    1.47
   7  -9   5    1.13    1.49
  -7   9  -5    0.79    1.22
  -7   9  -5    3.94    1.76
   7  -9   6    4.42    2.51
  -7   9  -6    6.02    2.18
  -7   9  -6    1.68    1.49
   7  -8 -17   15.93    3.68
  -7   8  17   13.07    3.97
  -7   8  17   21.75    5.17
   7  -8 -16   14.82    3.04
  -7   8  16   10.86    3.22
  -7   8  16   12.17    3.19
   7  -8 -15  101.92   10.17
  -7   8  15  114.53    8.66
  -7   8  15   81.28    8.06
   7  -8 -14  105.72    8.08
  -7   8  14  111.66    8.61
  -7   8  14  108.92    7.71
   7  -8 -13   53.47    4.89
  -7   8  13   51.23    6.61
  -7   8  13   48.86    4.29
   7  -8 -12  143.92    8.97
  -7   8  12  128.77    7.88
  -7   8  12  150.45    9.60
   7  -8 -11  231.36   14.98
  -7   8  11  247.51   13.56
  -7   8  11  218.10   10.72
   7  -8 -10   66.14    5.44
  -7   8  10   48.98    3.26
  -7   8  10   62.81    4.63
   7  -8  -9   28.22    3.50
  -7   8   9   22.90    1.77
  -7   8   9   24.36    3.60
   7  -8  -8  195.52   11.27
  -7   8   8  167.22    6.21
   7  -8  -7   16.23    2.27
  -7   8   7   20.31    1.03
   7  -8  -6   50.27    2.90
  -7   8   6   29.51    1.31
   7  -8  -5   13.18    1.90
  -7   8   5   15.03    1.96
   7  -8  -4  118.99    4.85
  -7   8   4  139.26    7.04
  -7   8   4  147.42    7.04
   7  -8  -3  319.66   13.77
  -7   8   3  352.66   18.97
  -7   8   3  346.16   17.43
   7  -8  -2   20.29    2.12
  -7   8   2   21.47    3.05
  -7   8   2   26.05    2.14
   7  -8  -1    1.20    1.06
  -7   8   1    1.90    1.05
  -7   8   1    1.69    1.21
   7  -8   0   48.18    4.07
  -7   8   0   58.35    3.72
  -7   8   0   57.10    4.17
   7  -8   1   42.04    3.96
  -7   8  -1   41.64    4.32
  -7   8  -1   46.47    3.63
   7  -8   2   16.10    2.65
  -7   8  -2   16.97    2.24
  -7   8  -2   15.81    2.77
   7  -8   3    4.75    1.72
  -7   8  -3    2.51    1.30
  -7   8  -3    2.08    1.69
   7  -8   4   89.32    6.00
  -7   8  -4   81.99    5.51
  -7   8  -4   92.68    7.25
   7  -8   5   31.93    4.28
  -7   8  -5   22.56    2.82
  -7   8  -5   27.11    3.78
   7  -8   6    2.10    2.20
  -7   8  -6    1.35    1.33
  -7   8  -6    5.38    1.82
   7  -8   7   19.42    3.83
  -7   8  -7   12.52    2.37
  -7   8  -7    9.22    2.25
   7  -7 -17    2.19    2.09
  -7   7  17    0.43    2.94
  -7   7  17    5.33    1.89
   7  -7 -16   10.34    2.59
  -7   7  16    9.83    2.88
  -7   7  16    6.86    2.72
   7  -7 -15  144.70   10.89
  -7   7  15  137.38    9.39
  -7   7  15  195.99   14.03
   7  -7 -14   96.60    9.21
  -7   7  14  104.97    9.62
  -7   7  14   85.02    5.77
   7  -7 -13   70.55    7.13
  -7   7  13   70.92    5.82
  -7   7  13   65.33    5.53
   7  -7 -12  264.03   17.26
  -7   7  12  261.38   13.58
  -7   7  12  258.99   17.82
   7  -7 -11  155.90   10.76
  -7   7  11  148.88    8.07
  -7   7  11  169.89   11.41
   7  -7 -10  574.61   31.61
  -7   7  10  542.85   24.03
  -7   7  10  611.79   33.74
   7  -7  -9   65.83    5.13
  -7   7   9   50.03    2.93
  -7   7   9   69.14    4.36
   7  -7  -8   10.00    2.35
  -7   7   8   14.72    2.43
  -7   7   8    9.10    1.14
   7  -7  -7  155.37    9.05
  -7   7   7  155.06    7.73
  -7   7   7  140.16    4.82
   7  -7  -6  787.41   36.90
  -7   7   6  677.92   24.19
   7  -7  -5    3.62    0.67
   7  -7  -5    3.31    1.45
  -7   7   5    2.18    0.41
   7  -7  -4  946.35   42.28
   7  -7  -4 1031.94   54.33
   7  -7  -3   18.13    1.62
  -7   7   3   20.85    1.94
  -7   7   3   15.71    2.62
   7  -7  -2   78.28    3.91
  -7   7   2   89.44    5.49
  -7   7   2   69.89    5.47
   7  -7  -1   39.29    2.72
  -7   7   1   43.77    3.49
  -7   7   1   29.94    2.58
   7  -7   0   20.34    2.42
  -7   7   0   30.17    2.27
  -7   7   0   28.15    2.12
   7  -7   1  181.15    8.29
  -7   7  -1  179.97    7.75
  -7   7  -1  181.19   10.35
   7  -7   2   86.52    4.86
  -7   7  -2   91.70    5.21
  -7   7  -2   94.09    5.48
   7  -7   3    7.86    1.91
  -7   7  -3    6.85    1.55
  -7   7  -3    4.89    1.42
   7  -7   4   24.52    2.98
  -7   7  -4   30.77    2.76
  -7   7  -4   29.13    3.54
   7  -7   5   37.62    5.09
  -7   7  -5   45.70    3.52
  -7   7  -5   43.70    4.55
   7  -7   6  164.83    9.84
  -7   7  -6  131.50    6.67
  -7   7  -6  147.93    9.89
   7  -7   7   12.99    3.02
  -7   7  -7   11.30    2.50
  -7   7  -7    6.54    1.93
   7  -7   8   45.15    6.01
  -7   7  -8   35.99    4.79
  -7   7  -8   33.43    3.59
   7  -7   9   44.42    5.08
  -7   7  -9   32.37    4.06
  -7   7  -9   36.39    3.84
   7  -6 -17  258.49   20.01
  -7   6  17  277.77   20.42
  -7   6  17  269.91   18.72
   7  -6 -16   17.79    4.18
  -7   6  16   11.89    3.09
  -7   6  16   16.09    3.67
   7  -6 -15  144.46   12.26
  -7   6  15  135.50   12.13
  -7   6  15  125.27    8.59
   7  -6 -14   47.96    4.48
  -7   6  14   42.52    5.96
  -7   6  14   46.51    4.94
   7  -6 -13  184.91   13.21
  -7   6  13  184.56   13.78
  -7   6  13  181.49   11.35
   7  -6 -12  262.69   16.84
  -7   6  12  246.77   13.62
  -7   6  12  241.35   13.19
   7  -6 -11   46.62    4.86
  -7   6  11   54.35    3.85
  -7   6  11   38.69    2.70
   7  -6 -10  127.16    8.08
  -7   6  10  116.15    6.57
   7  -6  -9  838.61   42.50
  -7   6   9  866.84   46.78
  -7   6   9  808.92   36.16
   7  -6  -8   25.05    2.90
  -7   6   8   20.63    1.71
  -7   6   8   22.50    2.31
   7  -6  -7  719.85   34.07
  -7   6   7  724.30   33.73
  -7   6   7  671.37   26.34
   7  -6  -6  399.11   17.31
   7  -6  -6  362.67   11.47
  -7   6   6  410.02   19.24
  -7   6   6  364.88   12.03
   7  -6  -5  288.36   13.72
   7  -6  -5  263.90    8.49
  -7   6   5  286.20   13.64
  -7   6   5  249.02    7.13
   7  -6  -4  451.01   16.94
   7  -6  -4  464.98   20.35
   7  -6  -3  603.27   28.52
   7  -6  -3  570.12   22.97
   7  -6  -2   67.79    3.56
  -7   6   2   84.41    4.98
  -7   6   2   73.58    3.93
   7  -6  -1   62.35    2.67
  -7   6   1   54.93    4.20
  -7   6   1   58.93    4.15
   7  -6   0   19.83    1.95
  -7   6   0   14.46    2.31
  -7   6   0   15.21    2.15
   7  -6   1   78.44    4.67
  -7   6  -1   75.97    4.15
  -7   6  -1   81.66    4.70
   7  -6   2   38.89    3.09
  -7   6  -2   32.36    2.48
  -7   6  -2   26.84    2.18
   7  -6   3    1.93    1.11
  -7   6  -3    4.56    0.93
  -7   6  -3    2.05    1.39
   7  -6   4   69.86    5.53
  -7   6  -4   72.70    3.53
  -7   6  -4   65.81    3.97
   7  -6   5  130.74    8.19
  -7   6  -5  104.57    4.88
  -7   6  -5  107.56    7.31
   7  -6   6  128.04    7.84
  -7   6  -6  118.87    6.83
  -7   6  -6  119.89    6.69
   7  -6   7   97.16    6.61
  -7   6  -7   92.03    5.57
  -7   6  -7   71.84    5.56
   7  -6   8   78.40    7.29
  -7   6  -8   71.81    4.84
  -7   6  -8   59.03    5.03
   7  -6   9   20.98    4.17
  -7   6  -9   16.33    3.25
  -7   6  -9   14.71    2.56
   7  -6  10   56.07    7.22
  -7   6 -10   45.21    5.49
  -7   6 -10   36.05    4.18
   7  -5 -17   16.67    4.51
  -7   5  17   14.78    4.27
  -7   5  17   14.71    3.28
   7  -5 -16  147.16   10.99
  -7   5  16  130.39   12.73
  -7   5  16  152.60   12.27
   7  -5 -15   34.76    5.51
  -7   5  15   37.18    4.11
  -7   5  15   34.56    3.85
   7  -5 -14  230.00   16.61
  -7   5  14  236.11   16.49
  -7   5  14  223.60   14.69
   7  -5 -13  112.44    7.80
  -7   5  13  123.91    9.21
  -7   5  13  111.71    8.09
   7  -5 -12    6.38    2.19
  -7   5  12    7.42    1.66
  -7   5  12    5.16    1.37
   7  -5 -11  281.02   16.26
  -7   5  11  264.31   13.28
  -7   5  11  274.26   15.65
   7  -5 -10   14.48    2.12
  -7   5  10   16.59    2.65
  -7   5  10   15.04    1.96
   7  -5  -9   21.86    2.24
  -7   5   9   21.04    2.15
  -7   5   9   19.31    1.99
   7  -5  -8 1172.77   60.48
  -7   5   8 1125.52   52.48
  -7   5   8 1174.23   63.32
   7  -5  -7  100.81    5.97
  -7   5   7   95.83    4.93
  -7   5   7   86.80    3.43
   7  -5  -6   22.87    1.03
   7  -5  -6   25.15    2.80
  -7   5   6   25.66    1.41
  -7   5   6   27.50    2.89
   7  -5  -5  200.61    8.38
   7  -5  -5  179.03    5.63
  -7   5   5  183.20    5.46
  -7   5   5  186.98    8.05
   7  -5  -4   82.25    3.89
  -7   5   4   77.66    4.88
   7  -5  -3  800.63   31.82
   7  -5  -3  839.88   39.30
  -7   5   3  726.45   23.43
   7  -5  -2  438.04   18.05
   7  -5  -2  430.55   16.31
   7  -5  -1 1097.04   51.23
  -7   5   1 1100.53   53.22
   7  -5   0  224.94    9.83
  -7   5   0  227.31   10.71
  -7   5   0  222.54   10.09
   7  -5   1  123.36    6.17
  -7   5  -1  126.91    6.63
  -7   5  -1  130.84    6.44
   7  -5   2   71.68    3.31
  -7   5  -2   65.08    3.47
  -7   5  -2   61.96    3.24
   7  -5   3  134.84    6.27
  -7   5  -3  125.15    5.26
  -7   5  -3  129.07    6.01
   7  -5   4    3.69    1.24
  -7   5  -4    4.21    1.29
  -7   5  -4    5.39    1.09
   7  -5   5    9.67    1.72
  -7   5  -5   11.18    1.73
  -7   5  -5   11.05    1.96
   7  -5   6   37.51    3.24
  -7   5  -6   36.80    2.37
  -7   5  -6   30.10    2.64
   7  -5   7    7.98    1.88
  -7   5  -7    8.55    1.96
  -7   5  -7    8.05    1.75
   7  -5   8   54.49    4.49
  -7   5  -8   51.10    4.81
  -7   5  -8   47.94    4.10
   7  -5   9    1.89    1.42
  -7   5  -9    0.75    1.44
  -7   5  -9    1.89    1.27
   7  -5  10   37.66    6.05
  -7   5 -10   43.89    4.77
  -7   5 -10   39.54    4.02
   7  -5  11    1.93    2.84
  -7   5 -11    5.07    2.19
  -7   5 -11    4.64    1.77
   7  -4 -17  145.46   13.47
  -7   4  17  109.27    9.27
  -7   4  17  162.96   13.50
   7  -4 -16   25.43    3.52
  -7   4  16   15.40    3.24
  -7   4  16   23.54    4.53
   7  -4 -15   47.69    5.95
  -7   4  15   44.29    5.47
  -7   4  15   31.73    5.70
   7  -4 -14   20.17    3.46
  -7   4  14   15.60    2.56
  -7   4  14   13.35    2.45
   7  -4 -13  141.89    9.37
  -7   4  13  115.60    7.50
  -7   4  13  111.63    6.87
   7  -4 -12   21.42    2.42
  -7   4  12   18.13    2.37
  -7   4  12   14.22    2.07
   7  -4 -11   19.41    2.25
  -7   4  11   20.04    2.94
  -7   4  11   15.01    2.45
   7  -4 -10  135.00    7.47
  -7   4  10  143.11    7.32
  -7   4  10  142.39    8.39
   7  -4  -9  251.53   12.80
  -7   4   9  238.25   10.75
  -7   4   9  227.32    8.92
   7  -4  -8  127.20    7.32
  -7   4   8  112.52    5.25
  -7   4   8  121.29    7.01
   7  -4  -7    6.24    0.49
   7  -4  -7    7.69    1.25
  -7   4   7    9.52    1.06
  -7   4   7    7.00    1.68
   7  -4  -6   13.07    0.71
   7  -4  -6   14.32    1.53
  -7   4   6   15.56    1.53
  -7   4   6   12.60    1.03
   7  -4  -5  721.24   24.89
   7  -4  -5  719.59   33.52
  -7   4   5  707.73   30.54
  -7   4   5  693.58   25.38
   7  -4  -4 1113.58   46.35
   7  -4  -4 1191.22   59.15
  -7   4   4 1086.15   43.35
  -7   4   4 1142.22   53.92
   7  -4  -3   29.00    1.65
   7  -4  -3   32.65    2.58
  -7   4   3   30.97    2.03
  -7   4   3   27.65    0.97
   7  -4  -2    8.50    0.91
  -7   4   2    4.53    0.43
  -7   4   2    6.91    1.34
   7  -4  -1  201.78    6.67
  -7   4   1  153.35    3.12
   7  -4   0  912.89   38.68
  -7   4   0  970.70   45.87
   7  -4   1   23.39    2.05
  -7   4  -1   23.55    1.71
   7  -4   2  183.43    8.44
  -7   4  -2  181.53    8.20
  -7   4  -2  184.81    7.97
   7  -4   3  196.47    8.06
  -7   4  -3  194.36    8.41
  -7   4  -3  179.11    8.67
   7  -4   4    8.76    1.29
  -7   4  -4    8.18    1.41
  -7   4  -4    5.57    1.49
   7  -4   5   44.09    3.60
  -7   4  -5   33.10    2.82
  -7   4  -5   37.79    3.02
   7  -4   6  168.71    9.84
  -7   4  -6  157.79    7.65
  -7   4  -6  149.18    8.17
   7  -4   7    5.50    1.57
  -7   4  -7    3.35    1.25
  -7   4  -7    6.86    1.17
   7  -4   8  479.81   24.27
  -7   4  -8  418.09   21.70
  -7   4  -8  413.90   20.61
   7  -4   9  195.56   13.36
  -7   4  -9  169.64   10.07
  -7   4  -9  160.29    7.87
   7  -4  10   16.97    3.94
  -7   4 -10   18.69    3.04
  -7   4 -10   20.28    2.75
  -7   4 -11   56.89    5.27
  -7   4 -11   49.75    4.94
  -7   4 -12    0.99    1.71
  -7   4 -12    1.87    1.49
   7  -3 -17   38.50    7.16
  -7   3  17   34.79    6.00
  -7   3  17   52.07    5.66
   7  -3 -16   45.23    6.40
  -7   3  16   37.54    5.60
  -7   3  16   40.15    6.31
   7  -3 -15   36.27    3.92
  -7   3  15   29.05    3.35
  -7   3  15   23.92    4.86
   7  -3 -14   34.32    5.20
  -7   3  14   44.94    4.86
  -7   3  14   40.56    5.07
   7  -3 -13   26.03    3.93
  -7   3  13   21.07    3.55
  -7   3  13   23.38    3.52
   7  -3 -12   74.41    6.29
  -7   3  12   69.55    5.83
  -7   3  12   68.95    5.59
   7  -3 -11  599.68   29.83
  -7   3  11  604.58   29.13
  -7   3  11  614.73   28.18
   7  -3 -10  102.08    5.25
  -7   3  10   92.55    6.13
  -7   3  10   87.46    5.55
   7  -3  -9  101.15    6.16
  -7   3   9   85.13    4.58
  -7   3   9   89.52    4.12
   7  -3  -8   29.02    1.03
   7  -3  -8   35.82    2.48
  -7   3   8   39.52    3.09
  -7   3   8   34.76    1.91
   7  -3  -7   46.01    1.51
   7  -3  -7   56.99    3.92
  -7   3   7   62.20    3.65
  -7   3   7   58.33    2.80
   7  -3  -6  349.85   10.32
   7  -3  -6  383.51   16.97
  -7   3   6  378.57   14.61
  -7   3   6  374.32   13.22
   7  -3  -5    3.64    0.59
   7  -3  -5    4.64    1.33
  -7   3   5    5.41    0.94
  -7   3   5    4.45    0.67
   7  -3  -4  313.81   13.02
   7  -3  -4  302.33    9.00
  -7   3   4  303.78   12.50
  -7   3   4  283.43    8.78
   7  -3  -3  183.41    6.08
  -7   3   3  178.94    6.77
  -7   3   3  185.00    5.02
   7  -3  -2    7.36    0.88
  -7   3   2    7.88    1.02
  -7   3   2    5.71    0.46
   7  -3  -1   41.67    2.12
  -7   3   1   40.18    2.05
   7  -3   0  309.22   11.39
  -7   3   0  315.11   12.12
   7  -3   1  249.56    9.35
   7  -3   1  228.26    5.26
  -7   3  -1  242.22    8.59
   7  -3   2  422.36   17.40
  -7   3  -2  427.52   17.72
   7  -3   3   40.02    2.82
  -7   3  -3   34.89    2.55
   7  -3   4   49.16    2.86
  -7   3  -4   46.72    3.05
  -7   3  -4   51.44    2.50
   7  -3   5  200.41    9.99
  -7   3  -5  190.19    8.85
  -7   3  -5  199.66    9.05
   7  -3   6  257.42   11.36
  -7   3  -6  240.10    9.57
  -7   3  -6  246.34   11.05
   7  -3   7  103.12    6.77
  -7   3  -7   86.94    5.17
  -7   3  -7   84.80    5.10
   7  -3   8   48.71    3.62
  -7   3  -8   39.32    3.39
  -7   3  -8   42.00    3.44
   7  -3   9   44.45    4.93
  -7   3  -9   41.93    2.79
  -7   3  -9   40.15    3.51
  -7   3 -10   22.57    2.88
  -7   3 -10   22.30    2.23
  -7   3 -11  142.56    9.24
  -7   3 -11  141.22    7.70
  -7   3 -12    4.20    1.85
  -7   3 -12    3.99    1.37
   7  -3  13   55.67    6.95
  -7   3 -13   42.43    4.03
  -7   3 -13   40.71    4.94
   7  -2 -17   16.57    4.96
   7  -2 -16   85.37    9.02
  -7   2  16   69.21    7.50
   7  -2 -15    3.64    2.22
  -7   2  15    2.16    1.41
   7  -2 -14   40.90    5.21
  -7   2  14   39.37    4.37
  -7   2  14   30.02    3.97
   7  -2 -13  105.43    8.36
  -7   2  13  104.20    5.97
  -7   2  13   97.42    6.52
   7  -2 -12   43.21    4.50
  -7   2  12   44.14    3.12
  -7   2  12   34.05    3.30
   7  -2 -11 1014.29   57.69
  -7   2  11  996.41   54.49
  -7   2  11 1045.36   56.72
   7  -2 -10   14.20    1.80
  -7   2  10    9.45    2.17
  -7   2  10   15.67    2.12
   7  -2  -9    1.93    0.98
  -7   2   9    2.67    1.15
  -7   2   9    1.07    1.08
   7  -2  -8   99.35    2.83
   7  -2  -8  102.20    4.93
  -7   2   8  102.38    4.63
  -7   2   8  103.38    4.28
   7  -2  -7   19.72    0.90
   7  -2  -7   23.68    1.83
  -7   2   7   18.94    1.66
  -7   2   7   20.77    1.85
   7  -2  -6    7.69    0.63
   7  -2  -6    9.90    1.53
  -7   2   6    7.86    1.50
  -7   2   6    9.14    1.12
   7  -2  -5  343.30   10.81
   7  -2  -5  386.64   16.19
  -7   2   5  373.05   15.14
  -7   2   5  368.73   12.66
   7  -2  -4  919.33   35.06
  -7   2   4  934.57   39.79
  -7   2   4  910.63   35.74
   7  -2  -3 1974.77   99.12
  -7   2   3 2046.57  112.60
  -7   2   3 1932.69   95.23
   7  -2  -2   68.50    2.71
  -7   2   2   72.93    3.76
  -7   2   2   67.48    2.12
   7  -2  -1  931.80   38.35
  -7   2   1  938.74   39.51
  -7   2   1  914.53   32.84
   7  -2   0   15.59    1.36
   7  -2   0   16.76    1.16
  -7   2   0   13.80    1.51
  -7   2   0   12.63    0.57
   7  -2   1   66.70    3.28
   7  -2   1   63.58    1.57
  -7   2  -1   70.20    3.51
  -7   2  -1   72.14    2.86
   7  -2   2   76.97    3.05
   7  -2   2   73.40    1.78
  -7   2  -2   81.20    3.77
   7  -2   3  335.34   13.39
   7  -2   3  318.54    8.63
  -7   2  -3  321.62   12.27
   7  -2   4  213.04    8.87
   7  -2   4  187.63    4.79
  -7   2  -4  200.82    7.93
   7  -2   5  196.80    9.22
   7  -2   5  174.74    4.93
  -7   2  -5  193.21    8.26
  -7   2  -5  206.19    8.20
   7  -2   6   78.42    5.17
  -7   2  -6   77.42    4.09
  -7   2  -6   75.63    4.31
   7  -2   7  155.95    7.67
  -7   2  -7  151.77    7.14
  -7   2  -7  146.18    6.56
   7  -2   8   25.93    2.50
  -7   2  -8   18.44    2.32
  -7   2  -8   29.20    2.52
   7  -2   9  366.34   20.04
  -7   2  -9  321.78   15.40
  -7   2  -9  327.76   16.35
  -7   2 -10  447.37   20.33
  -7   2 -10  468.32   24.40
  -7   2 -11   18.69    2.56
  -7   2 -11   19.03    2.78
   7  -2  12   90.91    8.02
  -7   2 -12   75.98    5.89
  -7   2 -12   77.33    6.43
   7  -2  13   63.04    7.05
  -7   2 -13   45.77    4.06
  -7   2 -13   61.18    5.43
   7  -1 -16   35.43    6.52
  -7   1  16   42.02    6.72
   7  -1 -15  107.04    7.54
  -7   1  15   71.28    7.50
   7  -1 -14  391.33   25.54
  -7   1  14  366.36   21.66
   7  -1 -13   16.76    3.28
  -7   1  13   15.83    2.70
   7  -1 -12    3.62    1.71
  -7   1  12    2.48    1.06
   7  -1 -11  823.46   42.46
  -7   1  11  829.19   42.90
  -7   1  11  874.91   43.34
   7  -1 -10 1713.66  102.53
  -7   1  10 1595.09   88.63
  -7   1  10 1678.20   94.14
   7  -1  -9   14.85    1.07
   7  -1  -9   21.03    2.43
  -7   1   9   18.86    1.62
  -7   1   9   19.90    1.72
   7  -1  -8 1018.19   40.17
   7  -1  -8 1018.42   51.20
  -7   1   8 1070.51   51.23
  -7   1   8 1009.78   48.86
   7  -1  -7  648.93   22.75
   7  -1  -7  683.35   28.41
  -7   1   7  670.45   28.40
  -7   1   7  656.35   28.76
   7  -1  -6   89.62    2.88
   7  -1  -6   96.53    5.00
  -7   1   6   92.57    4.59
  -7   1   6   96.81    4.15
   7  -1  -5  266.15    8.06
  -7   1   5  258.89   10.35
  -7   1   5  277.76    9.58
   7  -1  -4  288.17    8.77
  -7   1   4  291.37   11.25
  -7   1   4  283.22    9.50
   7  -1  -3  234.20    7.49
  -7   1   3  257.74    9.71
  -7   1   3  246.59    7.46
   7  -1  -2   13.44    0.90
  -7   1   2   13.78    0.87
  -7   1   2   18.77    1.20
   7  -1  -1   64.94    2.80
   7  -1  -1   49.73    2.30
  -7   1   1   51.35    2.19
   7  -1   0   92.79    3.07
   7  -1   0   90.65    3.99
  -7   1   0   93.01    4.01
  -7   1   0   87.10    2.50
   7  -1   1  158.27    5.30
   7  -1   1  163.38    5.39
  -7   1  -1  162.96    4.28
  -7   1  -1  162.66    5.41
   7  -1   2 1042.23   44.13
   7  -1   2  999.93   36.87
  -7   1  -2 1049.16   45.11
  -7   1  -2 1032.46   44.78
   7  -1   3  247.13    8.25
   7  -1   3  224.66    6.00
  -7   1  -3  244.56    7.78
  -7   1  -3  224.62    7.31
   7  -1   4  120.10    5.70
   7  -1   4  115.88    3.18
  -7   1  -4  122.86    4.26
   7  -1   5    3.30    0.49
   7  -1   5    5.14    0.94
  -7   1  -5    5.18    0.90
   7  -1   6   63.27    3.13
   7  -1   6   57.19    1.99
  -7   1  -6   56.56    2.45
   7  -1   7   90.94    5.50
   7  -1   7   77.55    3.00
  -7   1  -7   74.77    3.76
  -7   1  -7   83.73    4.47
   7  -1   8  581.55   28.99
  -7   1  -8  511.42   22.70
  -7   1  -8  531.02   25.03
  -7   1  -9  326.91   14.46
  -7   1  -9  343.37   16.34
  -7   1 -10   73.79    3.68
  -7   1 -10   90.86    5.38
   7  -1  11   42.06    4.97
  -7   1 -11   39.81    3.38
  -7   1 -11   40.26    3.89
   7  -1  12    2.87    1.44
  -7   1 -12    1.89    1.27
  -7   1 -12    2.09    1.50
   7  -1  13  139.87    9.16
  -7   1 -13  132.35    8.39
  -7   1 -13  136.87    7.94
   7  -1  14    4.55    2.54
  -7   1 -14    2.81    1.98
   7   0 -16    6.61    3.11
  -7   0  16    4.40    3.18
   7   0 -15   34.71    4.24
  -7   0  15   26.52    4.09
   7   0 -14   13.65    2.57
  -7   0  14   11.76    2.67
   7   0 -13  257.72   14.13
  -7   0  13  238.03   13.36
   7   0 -12    9.20    2.39
  -7   0  12    8.38    1.88
   7   0 -11   67.00    4.20
  -7   0  11   61.62    4.38
   7   0 -10   87.00    3.41
   7   0 -10   94.79    5.14
  -7   0  10   90.13    5.15
   7   0  -9  332.11   11.22
   7   0  -9  340.66   16.55
  -7   0   9  354.33   15.20
   7   0  -8    4.93    0.66
   7   0  -8    4.74    1.50
  -7   0   8    6.27    1.26
  -7   0   8    7.36    1.44
   7   0  -7  972.70   39.29
   7   0  -7 1034.38   49.86
  -7   0   7 1047.47   49.21
  -7   0   7  993.64   45.64
   7   0  -6   23.12    1.11
  -7   0   6   23.29    1.91
  -7   0   6   20.75    1.51
   7   0  -5   10.97    0.91
  -7   0   5   15.51    1.48
  -7   0   5   18.01    1.41
   7   0  -4  496.24   16.03
  -7   0   4  499.90   18.84
  -7   0   4  484.37   16.43
   7   0  -3   12.26    1.03
  -7   0   3   13.44    1.06
  -7   0   3   11.80    1.11
   7   0  -2  211.46    7.05
   7   0  -2  213.16    7.04
  -7   0   2  203.25    7.76
  -7   0   2  226.09    6.89
   7   0  -1  152.65    5.14
   7   0  -1  159.77    5.75
  -7   0   1  151.02    4.86
  -7   0   1  157.46    4.63
   7   0   0 1085.77   45.76
   7   0   0 1076.27   46.15
  -7   0   0 1075.48   46.19
  -7   0   0 1063.12   41.21
   7   0   1  352.39   12.09
   7   0   1  360.21   11.51
  -7   0  -1  332.62    9.71
  -7   0  -1  365.07   11.68
   7   0   2  215.72    7.85
  -7   0  -2  207.53    7.56
   7   0   3   68.13    2.06
   7   0   3   67.77    2.87
  -7   0  -3   68.42    2.61
  -7   0  -3   67.95    2.92
   7   0   4   35.20    2.54
   7   0   4   47.88    1.84
  -7   0  -4   51.36    2.32
  -7   0  -4   53.85    2.24
   7   0   5    2.94    0.78
   7   0   5    2.44    0.55
  -7   0  -5    3.52    0.71
  -7   0  -5    1.77    0.67
   7   0   6   60.54    3.85
   7   0   6   58.50    2.33
  -7   0  -6   63.21    2.80
   7   0   7   52.38    3.75
   7   0   7   51.21    2.35
  -7   0  -7   56.73    2.57
   7   0   8  246.02   11.91
   7   0   8  226.52    8.40
  -7   0  -8  207.31    7.39
  -7   0  -8  224.01   10.14
   7   0   9  139.18    5.46
  -7   0  -9  138.48    5.98
  -7   0  -9  152.26    7.65
   7   0  10   93.61    4.64
  -7   0 -10   88.10    4.48
  -7   0 -10   97.14    5.83
   7   0  11  133.49    9.40
  -7   0 -11  120.78    6.35
  -7   0 -11  131.42    6.63
   7   0  12  128.77    9.60
  -7   0 -12  105.92    6.24
  -7   0 -12  116.36    7.83
   7   0  13   34.31    4.93
  -7   0 -13   31.37    3.16
  -7   0 -13   35.68    3.21
   7   0  14   15.50    3.71
  -7   0 -14   18.90    3.24
   7   0  15   56.58    7.06
  -7   0 -15   58.96    4.93
   7   1 -16   78.41    7.57
  -7  -1  16   73.01    7.73
   7   1 -15    5.77    2.73
  -7  -1  15    2.74    2.75
   7   1 -14  152.79   10.63
  -7  -1  14  154.85   10.64
   7   1 -13   49.41    4.41
  -7  -1  13   45.64    4.49
   7   1 -12    1.45    1.09
  -7  -1  12    0.51    1.02
  -7  -1  12   -0.09    1.09
   7   1 -11  138.58    9.28
  -7  -1  11  125.10    6.82
  -7  -1  11  142.08    7.71
   7   1 -10    3.20    0.86
   7   1 -10    4.86    1.22
  -7  -1  10    4.43    1.20
   7   1  -9  124.15    4.64
   7   1  -9  125.45    6.00
  -7  -1   9  119.77    5.61
   7   1  -8    7.37    0.97
   7   1  -8    6.85    1.68
  -7  -1   8    8.46    1.28
   7   1  -7 3277.88  206.99
  -7  -1   7 3377.69  223.51
   7   1  -6  559.88   19.90
  -7  -1   6  581.65   22.47
   7   1  -5   10.32    1.00
  -7  -1   5   11.28    1.24
  -7  -1   5   13.01    1.38
   7   1  -4  385.17   12.63
  -7  -1   4  386.40   13.76
  -7  -1   4  395.43   14.45
   7   1  -3  894.71   34.45
   7   1  -3  903.32   35.84
  -7  -1   3  865.62   35.18
  -7  -1   3  878.13   33.85
   7   1  -2  707.35   26.19
   7   1  -2  734.53   28.46
  -7  -1   2  721.91   27.36
  -7  -1   2  722.73   26.71
   7   1  -1  403.28   14.14
   7   1  -1  397.88   13.55
  -7  -1   1  380.30   13.41
  -7  -1   1  423.17   13.50
   7   1   0  431.69   15.00
   7   1   0  435.79   14.83
  -7  -1   0  435.13   14.05
  -7  -1   0  440.61   14.21
   7   1   1  485.05   16.43
   7   1   1  483.41   16.52
  -7  -1  -1  513.04   17.93
  -7  -1  -1  476.39   15.54
   7   1   2  460.91   15.77
   7   1   2  453.74   15.36
  -7  -1  -2  456.56   14.75
  -7  -1  -2  467.84   15.44
   7   1   3   15.37    1.10
   7   1   3   12.99    0.93
  -7  -1  -3   11.54    1.06
  -7  -1  -3   14.72    1.27
   7   1   4  311.19   12.18
   7   1   4  317.26    9.83
  -7  -1  -4  319.13   10.24
  -7  -1  -4  317.02   11.65
   7   1   5    3.34    0.84
   7   1   5    4.43    0.57
  -7  -1  -5    2.37    0.63
  -7  -1  -5    3.44    0.89
   7   1   6  183.36    7.12
   7   1   6  176.20    6.25
  -7  -1  -6  188.13    6.20
  -7  -1  -6  187.00    6.60
   7   1   7  788.54   33.39
   7   1   7  721.39   28.71
  -7  -1  -7  705.13   27.50
   7   1   8  216.83    8.07
  -7  -1  -8  199.11    7.08
   7   1   9  432.05   17.26
  -7  -1  -9  401.43   15.53
   7   1  10  277.34   11.79
   7   1  10  302.49   13.59
  -7  -1 -10  251.10   10.29
  -7  -1 -10  279.17   11.81
   7   1  11  105.24    6.42
   7   1  11   72.39    4.49
  -7  -1 -11   68.31    3.88
  -7  -1 -11   90.06    5.39
   7   1  12  911.35   52.50
   7   1  12  795.00   40.18
  -7  -1 -12  722.96   36.24
  -7  -1 -12  812.27   41.91
   7   1  13    4.60    1.53
  -7  -1 -13    2.79    1.81
   7   1  14   12.33    2.38
  -7  -1 -14   12.10    2.81
   7   1  15    1.36    2.12
  -7  -1 -15    3.70    1.52
   7   2 -15   76.17    7.37
  -7  -2  15   84.40    9.85
   7   2 -14  408.43   28.10
  -7  -2  14  412.65   25.03
   7   2 -13  127.99    8.70
  -7  -2  13  129.49    8.88
   7   2 -12   18.25    2.61
  -7  -2  12   19.06    2.69
   7   2 -11  390.93   16.87
   7   2 -11  436.68   20.79
  -7  -2  11  438.54   24.19
   7   2 -10  214.80    9.01
   7   2 -10  232.71   12.61
  -7  -2  10  211.23    8.92
  -7  -2  10  244.89   11.32
   7   2  -9    9.84    1.32
   7   2  -9   13.86    1.59
  -7  -2   9    8.75    1.21
  -7  -2   9   12.88    1.63
   7   2  -8   46.31    2.34
  -7  -2   8   45.39    2.82
  -7  -2   8   42.28    2.55
   7   2  -7   30.09    1.82
  -7  -2   7   27.21    1.90
   7   2  -6  344.28   12.15
  -7  -2   6  353.81   12.43
   7   2  -5   23.43    1.45
  -7  -2   5   21.70    1.52
   7   2  -4  410.02   13.90
   7   2  -4  405.00   15.28
  -7  -2   4  396.01   13.59
   7   2  -3  185.72    6.25
   7   2  -3  190.98    6.08
  -7  -2   3  191.92    6.44
  -7  -2   3  194.45    7.16
   7   2  -2   57.22    2.54
   7   2  -2   54.39    2.60
  -7  -2   2   55.75    2.43
  -7  -2   2   60.62    2.18
   7   2  -1   51.21    1.99
   7   2  -1   54.96    2.41
  -7  -2   1   55.30    2.28
  -7  -2   1   50.03    2.35
   7   2   0   40.91    1.87
   7   2   0   31.74    1.65
  -7  -2   0   27.44    1.68
  -7  -2   0   30.94    1.67
   7   2   1  743.28   27.51
   7   2   1  730.33   26.63
  -7  -2  -1  761.35   27.85
  -7  -2  -1  746.74   26.50
   7   2   2  309.55    9.46
   7   2   2  307.75   10.97
  -7  -2  -2  316.02   10.51
  -7  -2  -2  320.96   10.30
   7   2   3 1647.45   82.14
  -7  -2  -3 1655.49   79.07
   7   2   4  376.13   12.45
   7   2   4  381.79   14.36
  -7  -2  -4  370.98   11.36
  -7  -2  -4  374.88   13.20
   7   2   5  706.60   30.48
   7   2   5  722.28   27.78
  -7  -2  -5  723.56   25.56
  -7  -2  -5  728.69   27.75
   7   2   6   11.25    1.14
   7   2   6    9.16    1.00
  -7  -2  -6    8.07    0.76
  -7  -2  -6    7.98    1.18
   7   2   7   37.67    1.89
  -7  -2  -7   27.91    1.23
  -7  -2  -7   32.40    1.78
   7   2   8  283.05   10.73
  -7  -2  -8  254.08    8.27
  -7  -2  -8  295.25   12.02
   7   2   9   66.95    3.44
  -7  -2  -9   59.60    2.50
   7   2  10   24.92    2.60
   7   2  10   20.67    1.99
  -7  -2 -10   19.10    1.43
   7   2  11    4.37    1.56
   7   2  11    1.61    1.16
  -7  -2 -11    3.05    0.82
   7   2  12    0.73    1.59
   7   2  12    4.04    1.23
  -7  -2 -12    2.11    0.91
  -7  -2 -12    2.35    1.12
   7   2  13   78.79    6.48
   7   2  13   56.64    5.21
  -7  -2 -13   92.52    4.98
   7   2  14    1.20    1.47
   7   2  14   -0.14    1.21
  -7  -2 -14    1.60    1.40
   7   2  15   10.08    2.26
  -7  -2 -15   12.60    2.85
   7   2  16   59.74    7.29
  -7  -2 -16   81.51    7.57
   7   3 -15   17.57    3.61
  -7  -3  15   17.19    3.72
   7   3 -14   97.18    8.11
  -7  -3  14   96.11   10.52
   7   3 -13   29.66    4.84
  -7  -3  13   31.80    5.12
   7   3 -12  215.72   15.00
  -7  -3  12  229.57   15.70
   7   3 -11   37.70    3.04
   7   3 -11   40.21    3.63
  -7  -3  11   46.86    4.91
   7   3 -10  597.36   27.05
  -7  -3  10  653.42   35.35
   7   3  -9  505.32   21.06
  -7  -3   9  542.15   24.38
  -7  -3   9  488.88   19.05
   7   3  -8  260.65   10.25
  -7  -3   8  272.27   13.47
  -7  -3   8  251.76    9.35
   7   3  -7    9.01    1.28
  -7  -3   7   10.08    0.95
  -7  -3   7    9.91    1.38
   7   3  -6 1012.60   44.02
   7   3  -6 1008.38   47.53
  -7  -3   6  981.37   40.43
  -7  -3   6 1049.12   47.71
   7   3  -5  551.16   20.74
   7   3  -5  580.54   23.43
  -7  -3   5  551.13   19.39
   7   3  -4  204.87    7.10
   7   3  -4  205.16    7.80
  -7  -3   4  197.96    6.35
   7   3  -3    2.75    0.74
   7   3  -3    3.30    0.78
  -7  -3   3    1.83    0.52
   7   3  -2    6.73    0.92
   7   3  -2    4.94    0.68
  -7  -3   2    4.03    0.69
   7   3  -1   56.13    2.58
   7   3  -1   50.38    2.27
  -7  -3   1   50.74    2.10
   7   3   0   47.30    2.25
   7   3   0   47.33    1.84
  -7  -3   0   37.43    1.80
  -7  -3   0   43.45    2.14
   7   3   1  594.29   21.03
   7   3   1  615.35   20.44
  -7  -3  -1  576.32   19.91
  -7  -3  -1  605.65   19.80
   7   3   2  173.28    5.67
   7   3   2  165.25    4.62
  -7  -3  -2  185.20    5.74
  -7  -3  -2  178.23    5.26
   7   3   3   19.22    1.50
   7   3   3   15.65    0.76
  -7  -3  -3   15.07    1.21
  -7  -3  -3   13.64    1.23
   7   3   4   12.47    1.40
   7   3   4   10.11    1.11
  -7  -3  -4   11.36    0.65
  -7  -3  -4   14.07    1.13
   7   3   5  713.77   28.97
   7   3   5  734.81   27.67
  -7  -3  -5  752.61   25.31
  -7  -3  -5  789.80   30.91
   7   3   6  335.81   11.81
   7   3   6  316.25   11.33
  -7  -3  -6  299.43    8.42
  -7  -3  -6  328.36   10.73
   7   3   7    7.42    1.08
  -7  -3  -7    7.26    0.53
  -7  -3  -7    7.84    0.90
   7   3   8  128.38    5.65
  -7  -3  -8  123.11    3.74
  -7  -3  -8  140.31    6.05
   7   3   9  660.45   29.78
   7   3   9  596.21   23.72
  -7  -3  -9  542.47   19.20
  -7  -3  -9  620.12   25.26
   7   3  10   80.26    4.53
   7   3  10   91.57    4.38
  -7  -3 -10   75.45    2.92
  -7  -3 -10   87.95    4.74
   7   3  11  333.54   14.99
   7   3  11  343.42   15.44
  -7  -3 -11  285.74   10.73
   7   3  12  442.28   23.25
   7   3  12  409.07   20.74
   7   3  13 1246.90   75.65
   7   3  13 1223.32   69.68
  -7  -3 -13 1227.03   69.27
   7   3  14   65.40    6.05
   7   3  14   61.51    5.26
  -7  -3 -14   67.54    4.67
   7   3  15    5.38    2.21
   7   3  15    2.55    1.51
  -7  -3 -15    8.17    1.68
   7   3  16  119.52    9.76
   7   3  16   88.67    9.26
  -7  -3 -16  118.48    7.96
   7   4 -14    0.11    1.76
  -7  -4  14    3.84    1.81
   7   4 -13   58.89    7.63
  -7  -4  13   74.54    6.15
   7   4 -12    2.68    1.35
   7   4 -12    2.53    1.49
  -7  -4  12    1.59    1.56
   7   4 -11  232.53   11.99
  -7  -4  11  262.39   13.87
   7   4 -10  329.83   15.40
  -7  -4  10  354.31   20.03
   7   4  -9   42.84    3.21
  -7  -4   9   52.26    4.46
   7   4  -8  120.33    4.94
  -7  -4   8  127.03    7.64
   7   4  -7  106.44    5.10
   7   4  -7  110.35    4.91
  -7  -4   7  105.21    3.51
  -7  -4   7  110.63    6.38
   7   4  -6   83.81    3.37
   7   4  -6   84.54    4.53
  -7  -4   6   79.01    2.67
  -7  -4   6   88.81    4.98
   7   4  -5    3.30    0.93
   7   4  -5    3.17    1.06
  -7  -4   5    3.49    0.54
  -7  -4   5    3.89    0.89
   7   4  -4   49.12    1.99
   7   4  -4   44.22    2.06
  -7  -4   4   47.46    2.28
   7   4  -3  714.62   28.26
   7   4  -3  727.72   27.13
  -7  -4   3  752.44   29.49
  -7  -4   3  702.17   23.64
   7   4  -2  898.34   35.53
   7   4  -2  936.72   35.92
  -7  -4   2  900.79   32.63
   7   4  -1   81.56    3.58
   7   4  -1   86.53    3.05
  -7  -4   1   81.44    2.35
   7   4   0  697.90   26.99
   7   4   0  691.27   24.29
  -7  -4   0  698.66   23.79
   7   4   1  746.23   28.42
   7   4   1  772.71   26.89
  -7  -4  -1  750.16   26.35
   7   4   2  164.18    6.30
   7   4   2  162.17    4.49
  -7  -4  -2  171.32    5.15
  -7  -4  -2  163.94    5.22
   7   4   3  284.46    9.39
   7   4   3  278.79    7.21
  -7  -4  -3  295.74    9.22
  -7  -4  -3  287.52   10.11
   7   4   4  173.36    5.78
   7   4   4  163.07    5.20
  -7  -4  -4  183.03    5.97
  -7  -4  -4  167.50    4.18
   7   4   5   89.29    4.47
   7   4   5  105.98    3.70
  -7  -4  -5   94.51    2.34
  -7  -4  -5  106.27    3.44
   7   4   6  604.51   23.39
  -7  -4  -6  560.33   16.61
  -7  -4  -6  610.25   22.97
   7   4   7  184.12    7.33
  -7  -4  -7  177.93    4.39
  -7  -4  -7  196.89    7.51
   7   4   8   44.01    2.59
  -7  -4  -8   39.33    2.06
   7   4   9  122.51    6.07
   7   4   9  114.42    5.44
  -7  -4  -9  101.02    2.86
  -7  -4  -9  116.88    4.65
   7   4  10  615.68   27.00
   7   4  10  612.30   27.73
  -7  -4 -10  558.39   19.63
  -7  -4 -10  653.85   29.31
   7   4  11   73.39    4.58
   7   4  11   52.61    4.23
  -7  -4 -11   77.81    4.52
   7   4  12   68.41    5.16
   7   4  12   76.57    5.02
   7   4  13   27.43    3.45
   7   4  13   32.49    3.37
   7   4  14   14.70    2.60
   7   4  14   12.34    1.94
   7   4  15   27.94    3.89
   7   4  15   28.14    3.86
  -7  -4 -15   33.78    3.34
   7   4  16    7.48    1.83
   7   4  16    3.58    2.51
  -7  -4 -16   10.44    2.72
   7   4  17   10.11    2.95
   7   4  17    9.42    2.33
  -7  -4 -17   14.28    3.41
   7   5 -14   27.53    5.63
  -7  -5  14   25.41    4.33
   7   5 -13   65.82    8.06
  -7  -5  13   63.61    7.97
   7   5 -12    4.55    1.80
  -7  -5  12    4.71    2.51
   7   5 -11   64.95    5.11
  -7  -5  11   65.03    5.29
   7   5 -10  177.92    9.41
  -7  -5  10  193.39   12.50
   7   5  -9  110.47    6.44
  -7  -5   9  113.92    6.59
   7   5  -8  235.92   11.25
   7   5  -8  246.55   12.93
  -7  -5   8  249.03   13.50
   7   5  -7    2.67    0.83
   7   5  -7    3.08    1.31
  -7  -5   7    2.21    1.42
   7   5  -6    6.42    1.27
   7   5  -6    5.58    1.39
  -7  -5   6    5.76    1.57
   7   5  -5   75.78    3.18
   7   5  -5   81.22    4.15
  -7  -5   5   73.26    2.12
  -7  -5   5   79.70    3.80
   7   5  -4  103.20    4.58
   7   5  -4   96.14    3.67
  -7  -5   4  101.03    4.19
  -7  -5   4   93.17    2.42
   7   5  -3  563.30   20.77
   7   5  -3  569.82   21.59
  -7  -5   3  598.98   24.63
  -7  -5   3  536.89   16.42
   7   5  -2 1572.11   76.05
   7   5  -2 1576.81   74.88
  -7  -5   2 1575.51   67.30
  -7  -5   2 1638.56   83.46
   7   5  -1  549.41   19.81
   7   5  -1  561.67   19.28
  -7  -5   1  577.51   22.88
  -7  -5   1  564.79   17.07
   7   5   0  103.94    4.27
   7   5   0  100.78    3.05
  -7  -5   0  104.26    2.86
  -7  -5   0  101.51    3.68
   7   5   1   31.40    1.83
   7   5   1   27.62    1.02
  -7  -5  -1   21.71    1.12
   7   5   2  100.31    3.58
   7   5   2  102.00    2.67
  -7  -5  -2  104.81    3.13
   7   5   3  692.77   27.92
   7   5   3  662.13   20.52
  -7  -5  -3  679.12   23.91
   7   5   4  173.00    5.78
   7   5   4  159.23    3.59
  -7  -5  -4  178.48    5.65
   7   5   5  952.28   39.42
  -7  -5  -5  910.36   30.07
  -7  -5  -5  954.94   38.25
  -7  -5  -5  930.42   30.63
   7   5   6  960.50   40.24
  -7  -5  -6  895.52   28.81
  -7  -5  -6  989.49   38.99
   7   5   7   73.07    3.80
  -7  -5  -7   78.01    3.49
   7   5   8  135.33    5.13
   7   5   8  140.71    6.08
  -7  -5  -8  118.76    2.68
  -7  -5  -8  143.86    5.78
   7   5   9   11.77    1.28
   7   5   9    7.98    1.56
  -7  -5  -9   11.02    1.47
   7   5  10   38.71    2.36
   7   5  10   35.08    2.84
  -7  -5 -10   30.43    2.89
   7   5  11  452.82   21.93
   7   5  11  460.73   22.31
  -7  -5 -11  477.22   22.40
   7   5  12   27.57    2.91
   7   5  12   24.56    3.04
  -7  -5 -12   31.73    2.38
   7   5  13   34.09    3.50
   7   5  13   38.49    2.96
  -7  -5 -13   40.28    3.86
   7   5  14    5.28    1.83
   7   5  14    6.24    1.52
   7   5  15  231.30   14.41
   7   5  15  234.66   13.04
   7   5  16   77.13    7.24
   7   5  16   80.36    8.34
  -7  -5 -16  117.44    8.27
   7   5  17    2.44    2.08
   7   5  17    6.19    2.39
  -7  -5 -17    4.78    2.00
  -7  -6  13  126.22   12.43
   7   6 -12    2.76    1.75
  -7  -6  12    1.84    2.25
   7   6 -11    3.70    1.83
  -7  -6  11    3.78    2.28
   7   6 -10   58.66    4.89
  -7  -6  10   53.68    4.73
   7   6  -9  271.54   12.43
   7   6  -9  295.60   14.35
  -7  -6   9  294.83   14.87
   7   6  -8  101.13    6.18
   7   6  -8  104.16    5.78
  -7  -6   8  102.46    5.95
   7   6  -7    3.43    1.02
   7   6  -7    3.65    1.47
  -7  -6   7    3.63    1.66
   7   6  -6  808.92   38.54
   7   6  -6  799.80   36.01
  -7  -6   6  838.26   39.28
   7   6  -5   46.22    3.08
   7   6  -5   44.85    3.08
  -7  -6   5   48.81    3.59
   7   6  -4  567.21   24.11
   7   6  -4  550.19   22.54
  -7  -6   4  531.56   15.86
  -7  -6   4  583.86   23.74
   7   6  -3   95.43    4.51
   7   6  -3   92.74    4.06
  -7  -6   3   88.40    2.02
  -7  -6   3   95.60    4.95
   7   6  -2  253.78    9.88
   7   6  -2  248.45    8.43
  -7  -6   2  237.39    5.66
  -7  -6   2  251.60    9.10
   7   6  -1   87.40    4.11
   7   6  -1   88.37    3.17
  -7  -6   1   82.51    1.91
  -7  -6   1   88.95    4.23
   7   6   0 1110.17   50.71
   7   6   0 1130.23   45.17
  -7  -6   0 1148.98   42.14
  -7  -6   0 1163.85   53.90
   7   6   1 1089.35   47.12
   7   6   1 1122.39   42.96
  -7  -6  -1 1105.39   41.23
  -7  -6  -1 1094.86   48.30
   7   6   2  466.11   16.58
   7   6   2  463.75   13.46
  -7  -6  -2  475.96   14.52
  -7  -6  -2  478.45   18.60
   7   6   3  388.46   14.94
   7   6   3  386.43   10.60
  -7  -6  -3  392.06   11.99
  -7  -6  -3  370.95    9.24
   7   6   4   40.02    1.80
   7   6   4   30.21    0.84
  -7  -6  -4   33.31    1.51
  -7  -6  -4   30.03    0.75
   7   6   5  122.48    5.44
  -7  -6  -5  133.67    3.96
   7   6   6  143.10    5.97
  -7  -6  -6  127.85    4.09
   7   6   7 1652.08   83.27
   7   6   7 1696.86   89.20
  -7  -6  -7 1661.45   79.86
   7   6   8   14.35    1.80
   7   6   8   15.22    1.83
  -7  -6  -8   16.42    1.55
   7   6   9 1144.40   56.21
   7   6   9 1118.51   53.27
  -7  -6  -9 1217.27   57.47
   7   6  10   40.35    2.43
   7   6  10   38.99    3.28
  -7  -6 -10   43.00    2.36
   7   6  11   23.69    1.95
   7   6  11   21.27    2.64
  -7  -6 -11   29.90    2.54
   7   6  12    2.57    1.18
   7   6  12    0.33    0.95
  -7  -6 -12    2.44    0.93
   7   6  13  134.29    8.65
   7   6  13  127.04    7.82
  -7  -6 -13  140.66    8.44
   7   6  14  125.36    6.63
   7   6  14  136.57    9.22
  -7  -6 -14  140.73    7.52
   7   6  15   37.15    3.95
   7   6  15   37.83    4.53
   7   6  16   10.27    2.65
   7   6  16   18.92    3.19
   7   6  17   11.36    2.71
   7   6  17   12.98    2.49
   7   7 -12    4.21    2.29
  -7  -7  12    4.95    2.86
   7   7 -11  105.30    9.05
   7   7 -11  138.73   10.27
  -7  -7  11  107.36   10.36
   7   7 -10   12.03    2.64
   7   7 -10    8.64    3.02
  -7  -7  10   11.46    2.33
   7   7  -9   11.88    1.92
   7   7  -9   13.20    2.14
  -7  -7   9   11.47    2.94
   7   7  -8   35.73    3.54
   7   7  -8   30.68    3.65
  -7  -7   8   28.84    4.17
   7   7  -7  112.71    6.56
   7   7  -7  117.93    6.57
  -7  -7   7   88.85    5.76
   7   7  -6   89.36    5.26
   7   7  -6   72.26    4.13
  -7  -7   6   99.18    5.76
   7   7  -5   13.99    1.61
   7   7  -5   13.67    1.93
  -7  -7   5   19.23    2.33
   7   7  -4  582.33   24.15
   7   7  -4  580.67   23.06
  -7  -7   4  611.95   28.32
   7   7  -3  369.07   15.53
   7   7  -3  357.62   12.61
  -7  -7   3  377.08   16.52
   7   7  -2  176.34    7.47
   7   7  -2  151.28    3.46
   7   7  -2  170.07    6.03
  -7  -7   2  163.64    3.44
  -7  -7   2  173.87    6.62
   7   7  -1 1058.75   49.01
   7   7  -1 1071.36   44.50
  -7  -7   1  984.23   33.45
  -7  -7   1 1072.91   48.44
   7   7   0 1013.44   45.73
   7   7   0  967.79   38.14
  -7  -7   0  983.25   34.32
  -7  -7   0 1006.71   46.55
   7   7   1  557.75   22.26
   7   7   1  536.91   17.00
  -7  -7  -1  551.32   16.20
  -7  -7  -1  567.55   23.34
   7   7   2   16.76    1.26
   7   7   2   16.29    0.71
  -7  -7  -2   19.65    0.81
  -7  -7  -2   17.81    1.33
   7   7   3  379.87   13.57
   7   7   3  369.59   10.21
  -7  -7  -3  397.89   11.78
  -7  -7  -3  397.87   14.39
   7   7   4  410.53   10.15
  -7  -7  -4  459.34   14.59
  -7  -7  -4  459.87   17.00
   7   7   5  150.26    5.68
  -7  -7  -5  154.66    5.15
   7   7   6    4.55    0.88
  -7  -7  -6    4.53    0.80
   7   7   7  904.56   40.69
   7   7   7  909.39   40.08
  -7  -7  -7  893.88   35.61
   7   7   8  342.49   13.35
   7   7   8  375.72   16.77
  -7  -7  -8  383.61   14.84
   7   7   9   85.65    4.79
   7   7   9   89.10    5.19
  -7  -7  -9   90.21    4.57
   7   7  10  620.09   26.08
   7   7  10  631.79   30.41
  -7  -7 -10  645.44   26.24
   7   7  11   17.78    2.31
   7   7  11   27.07    2.70
  -7  -7 -11   22.14    1.89
   7   7  12   63.98    4.61
   7   7  12   73.29    3.92
  -7  -7 -12   71.18    4.76
   7   7  13   23.04    2.74
   7   7  13   22.93    3.20
  -7  -7 -13   26.64    3.00
   7   7  14   35.19    4.33
   7   7  14   30.18    3.38
  -7  -7 -14   41.02    3.17
   7   7  15    7.73    1.92
   7   7  15    8.45    2.50
  -7  -7 -15    8.10    1.90
   7   7  16  140.26    9.59
   7   7  16  154.86   11.77
  -7  -7 -16  144.44    9.32
   7   7  17    6.50    2.12
   7   7  17    7.78    2.20
   7   7  18   -0.07    1.53
   7   7  18    4.49    2.11
   7   8 -11   15.94    3.65
   7   8 -11   18.94    4.20
  -7  -8  11   15.30    4.14
   7   8 -10  289.07   16.48
   7   8 -10  304.69   20.87
  -7  -8  10  305.14   21.01
   7   8  -9  114.48    8.73
   7   8  -9  110.78    9.06
  -7  -8   9  119.50    9.42
   7   8  -8   20.04    3.35
   7   8  -8   21.74    3.41
  -7  -8   8   23.69    3.75
   7   8  -7   28.89    3.37
   7   8  -7   22.04    2.45
  -7  -8   7   28.77    3.55
   7   8  -6  441.00   22.32
   7   8  -6  439.45   21.66
  -7  -8   6  436.83   22.96
   7   8  -5  164.95    8.79
   7   8  -5  151.61    7.96
  -7  -8   5  151.94    9.09
   7   8  -4  321.92   15.18
   7   8  -4  322.02   13.78
  -7  -8   4  328.63   15.73
   7   8  -3 1129.47   57.52
   7   8  -3 1113.15   52.36
  -7  -8   3 1145.89   58.91
   7   8  -2  529.48   21.66
   7   8  -2  533.84   20.59
  -7  -8   2  551.09   24.57
   7   8  -1    1.21    0.90
   7   8  -1    0.50    0.61
   7   8  -1    0.95    0.23
  -7  -8   1    1.76    0.94
   7   8   0   80.46    3.44
   7   8   0   77.80    2.80
  -7  -8   0   73.13    1.70
  -7  -8   0   85.03    4.42
   7   8   1   13.67    1.32
   7   8   1   13.47    0.79
  -7  -8  -1   13.05    0.53
  -7  -8  -1   14.43    1.73
   7   8   2  150.77    5.57
   7   8   2  142.13    3.68
  -7  -8  -2  157.39    6.80
  -7  -8  -2  142.45    3.57
   7   8   3  213.48    5.44
  -7  -8  -3  211.41    5.99
  -7  -8  -3  223.96    8.27
   7   8   4  434.76   11.02
  -7  -8  -4  497.75   15.73
  -7  -8  -4  518.08   21.13
   7   8   5    2.67    0.53
  -7  -8  -5    5.63    0.67
   7   8   6  154.71    6.61
   7   8   6  147.22    6.81
  -7  -8  -6  137.79    4.95
   7   8   7   50.11    2.50
   7   8   7   48.17    2.72
  -7  -8  -7   53.03    2.48
   7   8   8  267.61   11.35
   7   8   8  266.99   12.23
  -7  -8  -8  261.87   10.27
   7   8   9  622.06   27.80
   7   8   9  631.11   28.06
  -7  -8  -9  632.63   27.09
   7   8  10  418.08   17.01
   7   8  10  437.73   19.32
  -7  -8 -10  449.47   19.48
   7   8  11    0.99    1.08
   7   8  11    3.43    1.33
  -7  -8 -11    2.17    0.88
   7   8  12   48.73    3.76
   7   8  12   52.13    4.45
  -7  -8 -12   54.41    3.19
   7   8  13  145.63    6.94
   7   8  13  158.89    9.98
  -7  -8 -13  150.54    7.72
   7   8  14  102.03    6.64
   7   8  14  107.22    6.55
  -7  -8 -14  109.04    6.34
   7   8  15  341.67   16.83
   7   8  15  388.96   24.10
  -7  -8 -15  403.58   20.93
   7   8  16  895.15   51.63
   7   8  16 1023.49   66.94
  -7  -8 -16 1033.64   60.93
   7   8  17  159.09   10.79
   7   8  17  188.10   14.78
  -7  -8 -17  177.84   11.86
   7   8  18    7.92    2.44
   7   8  18    9.87    3.63
  -7  -8 -18   14.30    2.85
   7   9 -10    3.82    1.82
   7   9 -10    5.43    2.05
  -7  -9  10    6.15    2.67
   7   9  -9  119.40    8.01
   7   9  -9  131.77    8.27
  -7  -9   9  125.05   10.37
   7   9  -8   12.15    2.98
   7   9  -8    9.19    2.75
  -7  -9   8   12.77    2.93
   7   9  -7  191.19   12.64
   7   9  -7  185.92   12.09
  -7  -9   7  204.53   13.19
   7   9  -6  117.54    7.51
   7   9  -6   92.94    5.56
  -7  -9   6  101.87    6.22
   7   9  -5  115.68    7.50
   7   9  -5  102.40    6.34
  -7  -9   5  104.51    5.92
   7   9  -4  117.80    5.91
   7   9  -4  114.97    6.18
  -7  -9   4  121.99    6.21
   7   9  -3  302.63   14.67
   7   9  -3  288.35   12.44
  -7  -9   3  313.11   15.41
   7   9  -2  242.00   10.09
   7   9  -2  236.42    9.61
  -7  -9   2  248.79   11.86
   7   9  -1    4.88    1.37
   7   9  -1    4.29    0.89
  -7  -9   1    3.87    1.37
   7   9   0   56.51    3.62
   7   9   0   47.42    2.05
  -7  -9   0   68.66    2.93
   7   9   1   87.59    3.87
   7   9   1   84.42    2.73
  -7  -9  -1   88.81    4.92
   7   9   2  926.97   42.34
   7   9   2  895.21   32.31
  -7  -9  -2  840.16   28.99
  -7  -9  -2  943.22   41.78
   7   9   3  137.61    3.29
  -7  -9  -3  138.88    3.66
  -7  -9  -3  155.18    5.96
   7   9   4  252.49    6.15
  -7  -9  -4  255.82    7.41
  -7  -9  -4  273.94   10.51
   7   9   5  252.56   10.68
  -7  -9  -5  244.58    7.95
   7   9   6  205.82    8.85
   7   9   6  202.51    9.23
  -7  -9  -6  184.92    6.58
   7   9   7    7.59    1.03
   7   9   7    6.83    1.19
  -7  -9  -7    6.76    1.01
   7   9   8  279.92   11.94
   7   9   8  273.74   12.17
  -7  -9  -8  282.84   11.26
   7   9   9  579.86   25.97
   7   9   9  589.28   26.43
  -7  -9  -9  571.51   24.68
   7   9  10   35.05    2.62
   7   9  10   45.94    3.14
  -7  -9 -10   52.79    2.51
   7   9  11  829.59   40.35
   7   9  11  854.74   46.20
  -7  -9 -11  893.46   44.16
   7   9  12    5.72    1.59
   7   9  12    7.27    1.62
  -7  -9 -12   10.21    1.39
   7   9  13   31.11    3.09
   7   9  13   35.46    4.05
  -7  -9 -13   41.13    3.73
   7   9  14   10.74    2.00
   7   9  14    8.98    2.72
  -7  -9 -14   12.75    2.54
   7   9  15  122.47    7.91
   7   9  15  151.27   11.00
  -7  -9 -15  133.61    8.30
   7   9  16   37.75    3.85
   7   9  16   27.57    3.21
  -7  -9 -16   29.85    3.51
   7   9  17   14.80    2.61
   7   9  17   20.49    4.05
  -7  -9 -17   17.16    4.10
   7   9  18   12.52    2.66
   7   9  18   16.46    4.16
  -7  -9 -18   20.85    4.27
   7  10  -9  262.07   16.55
   7  10  -9  263.94   19.39
  -7 -10   9  264.60   19.31
   7  10  -8  125.70    8.92
   7  10  -8  124.87    8.54
  -7 -10   8  128.26   10.88
   7  10  -7    1.38    1.96
   7  10  -7    2.53    1.69
  -7 -10   7    3.46    1.92
   7  10  -6  480.40   26.02
   7  10  -6  490.17   27.19
  -7 -10   6  485.95   25.30
   7  10  -5  855.09   45.69
   7  10  -5  844.59   44.72
  -7 -10   5  862.17   48.63
   7  10  -4   43.60    3.52
   7  10  -4   49.03    3.64
  -7 -10   4   47.68    4.37
   7  10  -3  460.79   23.49
   7  10  -3  429.63   19.73
  -7 -10   3  449.01   20.55
   7  10  -2  701.03   35.04
   7  10  -2  660.28   29.28
  -7 -10   2  680.05   32.21
   7  10  -1  309.95   14.78
   7  10  -1  281.31   10.89
  -7 -10   1  306.99   14.83
   7  10   0   98.56    5.62
   7  10   0   87.32    3.22
  -7 -10   0   92.39    4.44
   7  10   1  127.45    6.23
   7  10   1  107.59    3.53
  -7 -10  -1  123.04    6.39
   7  10   2   41.51    1.52
  -7 -10  -2   48.61    2.75
   7  10   3  311.38    8.83
  -7 -10  -3  307.37    8.90
  -7 -10  -3  382.00   16.15
   7  10   4   15.02    0.52
  -7 -10  -4   17.04    2.06
  -7 -10  -4   15.12    0.82
   7  10   5  806.70   37.04
  -7 -10  -5  733.45   28.32
  -7 -10  -5  806.66   36.27
   7  10   6   54.49    3.72
   7  10   6   54.19    3.21
  -7 -10  -6   53.47    2.48
   7  10   7    5.07    1.34
   7  10   7    4.90    1.19
  -7 -10  -7    6.70    0.95
   7  10   8  268.62   10.74
   7  10   8  280.45   11.96
  -7 -10  -8  256.43   10.41
   7  10   9   33.66    2.97
   7  10   9   48.69    3.63
  -7 -10  -9   39.06    2.71
   7  10  10   94.34    6.08
   7  10  10   92.29    5.05
   7  10  11   60.17    4.37
   7  10  11   80.26    4.38
  -7 -10 -11   73.72    3.67
   7  10  12  155.86    8.36
   7  10  12  180.31   11.13
  -7 -10 -12  184.81    9.95
   7  10  13  340.74   17.26
   7  10  13  371.81   21.51
  -7 -10 -13  372.91   20.26
   7  10  14  229.09   11.83
   7  10  14  238.84   15.48
  -7 -10 -14  230.82   12.20
   7  10  15  112.55    6.48
   7  10  15  102.32    9.25
  -7 -10 -15  113.75    8.55
   7  10  16    3.85    1.35
   7  10  16    1.44    1.63
  -7 -10 -16    1.17    1.54
   7  10  17    6.39    2.00
   7  10  17   11.92    3.38
  -7 -10 -17   12.57    3.14
   7  10  18    3.73    1.53
   7  10  18    7.10    2.32
  -7 -10 -18    7.60    2.90
   7  11  -8  234.25   18.40
   7  11  -8  226.87   17.67
  -7 -11   8  230.17   17.61
   7  11  -7  269.27   19.55
   7  11  -7  261.55   17.56
  -7 -11   7  265.83   18.74
   7  11  -6  145.70    9.56
   7  11  -6  150.23   10.38
  -7 -11   6  155.87   11.59
   7  11  -5  180.26   12.47
   7  11  -5  163.87   10.41
  -7 -11   5  182.14   12.28
   7  11  -4   32.84    4.12
   7  11  -4   25.40    2.51
  -7 -11   4   30.01    3.90
   7  11  -3    8.74    1.80
   7  11  -3    9.84    1.71
  -7 -11   3    9.77    2.22
   7  11  -2    4.07    1.76
   7  11  -2    3.67    1.21
  -7 -11   2    4.32    1.63
   7  11  -1  255.10   13.78
   7  11  -1  249.68   10.93
  -7 -11   1  263.38   13.81
   7  11   0   13.66    1.79
   7  11   0   11.77    1.37
  -7 -11   0   17.68    2.23
   7  11   1   79.19    3.37
  -7 -11  -1   92.71    5.44
   7  11   2   65.97    2.32
  -7 -11  -2   83.69    4.83
   7  11   3  582.48   19.77
  -7 -11  -3  678.44   31.78
   7  11   4  519.46   20.93
   7  11   4  446.26   13.16
  -7 -11  -4  522.89   22.36
   7  11   5   31.80    2.72
  -7 -11  -5   25.01    1.24
   7  11   6  224.69    9.96
  -7 -11  -6  186.07    6.27
   7  11   7  327.78   14.49
  -7 -11  -7  290.52   11.50
   7  11   8  174.85    7.20
  -7 -11  -8  154.28    5.72
   7  11   9  158.83    8.07
   7  11   9  161.34    9.28
  -7 -11  -9  148.23    7.01
   7  11  10   43.77    3.24
   7  11  10   46.86    3.16
  -7 -11 -10   35.94    3.13
   7  11  11   94.22    4.92
   7  11  11   97.70    6.45
  -7 -11 -11   74.83    4.20
   7  11  12  258.06   12.93
   7  11  12  306.13   17.26
  -7 -11 -12  269.00   12.42
   7  11  13   34.13    3.32
   7  11  13   45.68    3.84
  -7 -11 -13   45.52    3.20
   7  11  14   60.71    4.68
   7  11  14   73.64    7.04
  -7 -11 -14   82.88    5.21
   7  11  15  170.55    9.80
   7  11  15  215.49   15.09
  -7 -11 -15  185.18   11.01
   7  11  16  623.03   34.46
   7  11  16  733.35   44.49
  -7 -11 -16  729.50   47.51
   7  11  17  118.22    8.11
   7  11  17  164.71   13.05
  -7 -11 -17  148.10   10.08
   7  11  18   20.24    3.75
  -7 -11 -18   18.35    4.95
   7  12  -7    9.91    3.50
   7  12  -7    5.86    3.04
  -7 -12   7   11.14    3.14
   7  12  -6    7.26    2.48
   7  12  -6   12.04    2.66
  -7 -12   6    8.35    2.19
   7  12  -5  243.44   17.65
   7  12  -5  229.67   14.77
  -7 -12   5  227.39   15.71
   7  12  -4  111.20    9.24
   7  12  -4   92.96    5.68
  -7 -12   4  135.85    8.61
   7  12  -3  377.99   22.57
   7  12  -3  330.99   17.37
  -7 -12   3  373.04   21.33
   7  12  -2  101.32    6.21
   7  12  -2   85.76    5.49
  -7 -12   2  119.28    7.28
   7  12  -1   55.31    5.13
   7  12  -1   40.80    3.30
  -7 -12   1   63.25    4.73
   7  12   0    5.17    1.42
   7  12   0    4.72    1.06
  -7 -12   0    6.94    1.76
   7  12   1  347.67   13.49
  -7 -12  -1  393.53   17.63
   7  12   2    8.68    0.95
  -7 -12  -2    9.57    1.92
   7  12   3   79.21    4.59
  -7 -12  -3  102.25    5.71
   7  12   4  213.70   10.36
   7  12   4  176.09    5.00
  -7 -12  -4  210.09   10.60
   7  12   5  109.31    5.85
   7  12   5   89.26    2.36
   7  12   6  305.71   12.64
   7  12   6  297.23   13.19
  -7 -12  -6  262.50    9.34
   7  12   7    7.36    1.56
  -7 -12  -7    6.00    1.00
   7  12   8  234.85   11.64
  -7 -12  -8  225.03    9.61
   7  12   9  158.88    8.06
  -7 -12  -9  139.52    6.90
   7  12  10   62.48    4.16
  -7 -12 -10   54.12    3.79
   7  12  11  274.26   13.56
   7  12  11  282.14   16.12
  -7 -12 -11  260.75   13.54
   7  12  12    8.29    1.76
   7  12  12   12.74    2.49
  -7 -12 -12    8.95    2.03
   7  12  13   10.92    1.99
   7  12  13   13.67    2.92
  -7 -12 -13   12.56    2.38
   7  12  14    1.46    1.16
   7  12  14    1.47    1.83
  -7 -12 -14    2.32    1.20
   7  12  15   18.25    2.96
   7  12  15   43.06    3.86
  -7 -12 -15   32.78    3.58
   7  12  16   53.81    4.77
   7  12  16   82.05    7.97
  -7 -12 -16   85.00    6.03
   7  12  17  216.85   12.85
   7  12  17  311.52   19.35
  -7 -12 -17  304.46   21.56
   7  12  18    7.55    3.52
  -7 -12 -18    6.92    3.51
   7  13  -6   20.84    5.03
   7  13  -6   20.45    4.08
  -7 -13   6   21.37    4.20
   7  13  -5  165.25   11.68
   7  13  -5  148.85   11.32
  -7 -13   5  147.73   12.26
   7  13  -4   22.43    4.40
   7  13  -4   20.20    3.17
  -7 -13   4   21.58    3.80
   7  13  -3  254.51   17.03
   7  13  -3  218.31   12.95
  -7 -13   3  238.31   15.35
   7  13  -2  124.35    7.86
   7  13  -2  101.69    6.49
  -7 -13   2  124.41    8.51
   7  13  -1   88.23    7.56
   7  13  -1   82.92    4.93
   7  13   0   32.66    2.82
  -7 -13   0   49.73    4.16
   7  13   1   13.61    1.46
  -7 -13  -1   14.33    1.96
   7  13   2  112.90    7.18
   7  13   2   81.08    3.86
  -7 -13  -2  110.00    6.88
   7  13   3   32.78    3.68
  -7 -13  -3   36.81    2.77
   7  13   4  101.69    3.30
   7  13   4  133.80    6.21
   7  13   4  109.65    3.32
  -7 -13  -4  126.74    7.42
   7  13   5   11.01    2.00
   7  13   5   12.67    1.57
   7  13   5    9.19    0.66
   7  13   6   38.86    3.69
   7  13   6   37.60    3.94
   7  13   7   11.87    2.23
   7  13   7    7.30    1.96
   7  13   8  548.72   27.40
   7  13   8  579.18   30.95
  -7 -13  -8  485.89   22.34
   7  13   9   94.47    6.02
   7  13   9   97.73    5.86
  -7 -13  -9   86.73    4.94
   7  13  10   68.22    4.74
  -7 -13 -10   64.57    4.33
   7  13  11   96.13    5.95
  -7 -13 -11   88.86    4.82
   7  13  12   58.40    3.93
  -7 -13 -12   46.88    3.44
   7  13  13  216.88   11.49
  -7 -13 -13  225.11   13.70
   7  13  14  107.30    6.98
   7  13  14  138.72   10.49
  -7 -13 -14  136.50    9.63
   7  13  15    9.43    1.78
   7  13  15    7.87    2.37
  -7 -13 -15   10.46    2.81
   7  13  16    4.18    2.20
   7  13  16    0.51    1.21
  -7 -13 -16    2.62    1.50
   7  13  17    9.55    2.57
  -7 -13 -17    8.48    2.56
   7  13  18   47.08    5.88
  -7 -13 -18   40.76    5.57
   7  14  -5    2.27    2.48
   7  14  -5    0.92    1.43
  -7 -14   5    4.11    2.06
   7  14  -4  220.65   15.32
   7  14  -4  191.08   11.80
  -7 -14   4  211.35   15.68
   7  14  -3   68.00    5.44
   7  14  -3   48.03    3.90
  -7 -14   3   46.57    6.01
   7  14  -2   25.82    3.35
   7  14  -2   19.35    2.89
  -7 -14   2   23.81    3.68
   7  14  -1   80.83    5.46
  -7 -14   1  100.38    7.29
   7  14   0   18.24    2.11
  -7 -14   0   21.60    3.24
   7  14   1   22.74    2.10
  -7 -14  -1   26.74    2.68
   7  14   2   25.73    2.62
   7  14   2   18.50    1.69
  -7 -14  -2   21.11    3.13
   7  14   3    6.26    2.10
   7  14   3    6.45    0.91
  -7 -14  -3    5.68    1.98
   7  14   4  299.68   15.68
   7  14   4  223.55    7.60
  -7 -14  -4  298.80   13.85
   7  14   5   56.10    4.90
   7  14   5   50.17    4.71
   7  14   6    7.27    1.90
   7  14   6    6.40    2.16
   7  14   7   67.12    4.87
   7  14   7   51.73    4.22
   7  14   8    3.40    1.59
   7  14   8    4.61    1.39
   7  14   9    3.00    1.44
   7  14   9    3.53    1.35
   7  14  10    2.08    1.23
   7  14  10    0.88    1.58
  -7 -14 -10    1.38    0.89
   7  14  11   16.87    3.41
   7  14  11   19.55    1.91
  -7 -14 -11   17.71    1.90
   7  14  12   56.60    4.47
  -7 -14 -12   56.24    4.78
   7  14  13   20.76    2.59
  -7 -14 -13   21.60    3.19
   7  14  14  330.80   17.40
  -7 -14 -14  366.88   22.66
   7  14  15   98.70    6.43
  -7 -14 -15  112.31    9.46
  -7 -14 -16   -0.22    1.15
   7  14  17   35.48    6.02
  -7 -14 -17   25.58    5.51
   7  15  -3   23.27    3.52
   7  15  -3    8.76    2.94
   7  15  -2   63.01    4.39
  -7 -15   2   64.40    5.48
   7  15  -1  181.40   11.07
  -7 -15   1  204.20   14.11
   7  15   0   32.90    3.40
  -7 -15   0   49.99    4.81
   7  15   1  244.61   16.12
   7  15   1  175.43    9.06
  -7 -15  -1  215.43   13.66
   7  15   2   11.55    2.55
   7  15   2    5.58    1.25
  -7 -15  -2    8.17    2.26
   7  15   3  209.42   11.04
   7  15   3  156.74    6.45
  -7 -15  -3  185.51   11.67
   7  15   4    5.68    1.86
   7  15   4    3.45    0.65
   7  15   5  442.97   26.63
   7  15   5  434.33   25.91
   7  15   6   71.84    5.01
   7  15   6   72.06    6.50
   7  15   7   18.28    2.61
   7  15   7   11.94    1.28
   7  15   7   14.34    2.22
   7  15   8  143.28    9.51
   7  15   8  149.35   10.57
   7  15   9  272.34   15.99
   7  15   9  276.25   15.63
   7  15  10    4.21    1.66
   7  15  10    4.30    2.14
   7  15  11    6.94    1.78
   7  15  11    7.17    2.66
   7  15  12   38.48    3.77
   7  15  12   49.27    4.31
  -7 -15 -12   35.83    4.10
   7  15  13   10.28    2.00
   7  15  13   11.89    3.20
  -7 -15 -13   11.21    2.50
   7  15  14    3.66    1.24
   7  15  14    3.66    1.91
  -7 -15 -14    5.37    2.02
   7  15  15   43.43    3.59
  -7 -15 -15   56.82    6.01
  -7 -15 -16    1.42    2.00
  -7 -15 -17   25.77    4.01
   7  16  -1   35.68    4.15
   7  16   0   20.37    3.11
   7  16   0   11.30    2.26
  -7 -16   0   11.05    3.19
   7  16   1   10.87    2.98
   7  16   1    5.47    1.58
  -7 -16  -1    7.28    2.41
   7  16   2  116.18    8.86
   7  16   2   73.33    4.36
  -7 -16  -2   88.50    7.63
   7  16   3    0.54    1.41
  -7 -16  -3   -0.19    1.24
   7  16   4  111.45    7.68
   7  16   4  104.81    8.47
   7  16   5    5.33    2.18
   7  16   5    5.37    2.14
   7  16   6   75.62    6.77
   7  16   6   78.23    6.90
   7  16   7   17.06    3.10
   7  16   7   16.92    2.53
   7  16   8  273.60   17.07
   7  16   8  292.49   19.27
   7  16   9   42.95    4.24
   7  16   9   35.59    2.64
   7  16   9   48.27    5.02
   7  16  10   65.01    5.89
   7  16  10   70.97    5.78
   7  16  11   68.21    5.44
   7  16  11   56.84    7.00
   7  16  12    4.18    1.57
   7  16  12    3.10    1.72
   7  16  13    4.90    1.67
   7  16  13    6.34    2.65
   7  16  14    1.75    1.30
   7  16  14    3.01    2.22
  -7 -16 -14    2.03    1.76
   7  16  15   37.11    4.45
  -7 -16 -15   27.54    4.68
   7  16  16   17.61    3.48
  -7 -16 -16   15.16    2.97
   7  17   1  517.60   39.40
   7  17   2  380.15   28.55
   7  17   3   65.44    6.43
   7  17   3   31.93    4.02
   7  17   4   48.57    5.93
   7  17   4   37.55    5.23
   7  17   5  316.32   22.14
   7  17   5  314.61   18.85
   7  17   6    2.14    1.34
   7  17   6    1.05    1.32
   7  17   7    2.04    1.73
   7  17   7    1.73    1.34
   7  17   8   10.74    2.06
   7  17   8   10.66    2.96
   7  17   9  287.55   18.42
   7  17   9  281.77   19.92
   7  17  10    8.13    2.47
   7  17  10   13.82    3.09
   7  17  11  184.17   11.80
   7  17  11  155.42    9.43
   7  17  11  214.16   12.58
   7  17  12   13.73    2.44
   7  17  12    9.35    2.41
   7  17  12   17.19    3.49
   7  17  13    1.61    1.23
   7  17  13    0.47    1.02
   7  17  13   -0.46    1.87
   7  17  14   32.99    5.97
   7  17  15    1.29    2.28
   7  18   4  117.98   11.05
   7  18   4   92.67    8.95
   7  18   5   35.52    3.94
   7  18   5   19.99    3.35
   7  18   6   78.97    8.37
   7  18   6   83.04    8.01
   7  18   7   18.93    3.91
   7  18   7   22.82    3.95
   7  18   8    2.28    1.58
   7  18   8    5.05    2.16
   7  18   9   14.69    3.20
   7  18   9   14.98    3.64
   7  18  10   57.34    6.13
   7  18  10   75.47    7.47
   7  18  11   15.33    3.26
   7  18  11   22.82    4.16
   7  18  12   -0.35    1.20
   7  18  12    0.19    1.60
   7  18  13    0.75    1.70
   7  18  13    5.47    2.37
  -8  13  10    2.63    2.14
  -8  13  10    6.43    3.13
  -8  13   9   42.47    7.09
  -8  13   9   55.05    5.99
  -8  13   8   16.30    4.23
  -8  13   8   14.47    3.22
  -8  13   7    4.13    2.39
  -8  13   7    0.88    2.35
  -8  13   6   13.26    3.01
  -8  13   6   14.10    3.85
  -8  13   5   27.19    4.25
  -8  13   5   34.50    4.99
  -8  13   4    2.69    1.62
   8 -12 -13   16.40    4.60
   8 -12 -12    3.18    2.03
  -8  12  12    3.28    3.03
   8 -12 -11  180.75   16.59
  -8  12  11  209.17   18.55
  -8  12  10  164.92   12.52
  -8  12   9    3.20    2.73
  -8  12   9    5.32    2.23
  -8  12   8    6.89    2.69
  -8  12   8    3.08    2.95
  -8  12   7    0.97    2.55
  -8  12   7    6.00    1.94
  -8  12   6   77.40    8.62
  -8  12   6   85.65    8.57
  -8  12   5   19.07    4.01
  -8  12   4   12.33    3.26
  -8  12   3    4.53    2.24
  -8  12   2   17.90    3.57
  -8  12   1    7.02    3.29
  -8  12   1    9.12    2.04
   8 -11 -14   50.64    7.66
  -8  11  14   51.94    6.95
   8 -11 -13   10.17    3.73
  -8  11  13   10.29    3.02
   8 -11 -12  146.79   13.52
   8 -11 -11   97.23    8.32
   8 -11 -10    6.32    2.89
  -8  11  10    7.11    2.45
   8 -11  -9  373.59   26.64
  -8  11   9  381.17   28.14
  -8  11   8  155.14   11.88
  -8  11   8  109.59   11.27
  -8  11   7    3.07    2.38
  -8  11   7    4.33    2.43
  -8  11   6    3.48    1.78
  -8  11   5   12.24    3.21
  -8  11   4   50.82    5.73
  -8  11   3   20.82    4.04
  -8  11   3   17.61    3.50
  -8  11   2   11.40    2.44
  -8  11   2   12.75    3.01
   8 -11  -1    3.59    1.92
  -8  11   1    4.46    2.52
  -8  11   1    6.17    2.11
   8 -11   0   16.42    3.60
  -8  11   0   27.09    3.41
  -8  11   0   18.04    3.49
   8 -11   1    6.99    2.22
  -8  11  -1   10.91    2.48
  -8  11  -1   14.13    3.30
   8 -10 -15    1.76    2.78
  -8  10  15    3.30    1.81
  -8  10  15    3.48    3.05
   8 -10 -14    1.52    2.11
  -8  10  14    5.87    1.73
  -8  10  14    2.47    3.04
   8 -10 -13   13.66    3.07
  -8  10  13   17.52    2.28
  -8  10  13    7.11    3.31
   8 -10 -12   21.73    4.49
  -8  10  12   33.78    3.79
  -8  10  12   16.85    2.30
   8 -10 -11    5.28    2.64
   8 -10 -10   31.98    5.11
   8 -10  -9   10.84    2.40
   8 -10  -8    3.18    1.69
  -8  10   8    4.84    2.33
  -8  10   7   13.90    3.45
  -8  10   6  778.05   43.91
  -8  10   5  183.95   13.23
  -8  10   4   -0.51    1.71
  -8  10   4    2.28    1.28
  -8  10   3   13.65    2.48
  -8  10   3   12.46    2.19
   8 -10  -2   13.35    2.36
  -8  10   2   16.19    2.59
  -8  10   2   16.17    2.96
   8 -10  -1  147.01   10.22
  -8  10   1  162.09   12.49
  -8  10   1  173.41   11.19
   8 -10   0   10.27    2.46
  -8  10   0   10.97    2.18
  -8  10   0    7.84    1.83
   8 -10   1    6.30    1.88
  -8  10  -1    9.20    2.08
  -8  10  -1    4.97    2.70
   8 -10   2    3.07    2.05
  -8  10  -2    3.43    1.64
  -8  10  -2    2.07    2.09
   8 -10   3    4.48    2.12
  -8  10  -3    1.92    1.58
  -8  10  -3    1.24    1.65
   8  -9 -15    8.47    3.09
  -8   9  15   14.53    3.28
  -8   9  15   10.92    2.74
   8  -9 -14    3.96    3.00
  -8   9  14    8.49    1.92
  -8   9  14    1.60    2.45
   8  -9 -13   28.96    4.96
  -8   9  13   24.42    3.01
  -8   9  13   24.50    5.32
   8  -9 -12    5.22    2.44
  -8   9  12    3.97    1.30
  -8   9  12    1.92    1.94
   8  -9 -11   41.10    4.31
  -8   9  11   41.81    4.43
  -8   9  11   31.49    2.92
   8  -9 -10   32.73    3.68
  -8   9  10   31.18    4.94
  -8   9  10   26.55    2.15
   8  -9  -9  995.30   58.62
  -8   9   9  808.82   35.31
   8  -9  -8  161.66   12.37
   8  -9  -7   45.02    3.97
  -8   9   6  113.35    7.22
  -8   9   5  547.72   30.99
  -8   9   5  569.47   33.72
  -8   9   4  325.44   20.74
  -8   9   4  322.48   19.21
   8  -9  -3   78.74    5.06
  -8   9   3   94.25    7.63
  -8   9   3   94.72    6.98
   8  -9  -2   61.85    4.75
  -8   9   2   86.09    6.61
  -8   9   2   68.37    5.91
   8  -9  -1    2.00    1.65
  -8   9   1    8.23    1.76
  -8   9   1    7.04    1.96
   8  -9   0   18.61    2.44
  -8   9   0   25.10    3.03
  -8   9   0   32.89    2.65
   8  -9   1   59.83    5.62
  -8   9  -1   55.73    4.94
  -8   9  -1   67.50    5.43
   8  -9   2    4.67    2.05
  -8   9  -2    5.36    1.75
  -8   9  -2    2.16    2.15
   8  -9   3  169.84   13.75
  -8   9  -3  165.69    8.98
  -8   9  -3  192.50   14.06
   8  -9   4   26.64    4.54
  -8   9  -4   19.82    3.32
  -8   9  -4   26.51    3.36
   8  -9   5   13.41    3.37
  -8   9  -5   18.43    2.85
  -8   9  -5   21.86    3.06
   8  -8 -16   57.89    8.81
  -8   8  16   72.84    9.21
  -8   8  16   52.39    6.69
   8  -8 -15   19.74    4.22
  -8   8  15   30.84    5.62
  -8   8  15   27.02    3.99
   8  -8 -14   21.15    4.53
  -8   8  14   29.26    4.66
  -8   8  14   16.24    2.48
   8  -8 -13   53.14    7.29
  -8   8  13   51.54    4.78
  -8   8  13   68.78    5.67
   8  -8 -12   85.64    8.14
  -8   8  12   67.55    4.89
  -8   8  12   93.58    8.70
   8  -8 -11  153.14   11.74
  -8   8  11  131.80    7.55
  -8   8  11  159.90   12.20
   8  -8 -10    2.06    1.87
  -8   8  10    1.64    1.94
  -8   8  10    2.01    0.93
   8  -8  -9    5.96    1.70
  -8   8   9    7.15    1.80
  -8   8   9    4.50    0.89
   8  -8  -8  945.29   55.74
  -8   8   8  961.28   51.19
  -8   8   8  803.33   34.21
   8  -8  -7  301.51   16.38
  -8   8   7  225.26    7.49
   8  -8  -6  918.58   50.77
   8  -8  -5  107.33    7.11
  -8   8   5  132.52    8.55
  -8   8   4   34.76    4.52
  -8   8   4   38.94    4.29
   8  -8  -3   53.16    3.67
  -8   8   3   76.33    5.71
  -8   8   3   68.86    5.65
   8  -8  -2  283.41   14.54
  -8   8   2  339.21   19.59
  -8   8   2  320.64   17.67
   8  -8  -1    1.37    0.88
  -8   8   1   -0.83    0.92
  -8   8   1    0.00    0.83
   8  -8   0  126.13    8.63
  -8   8   0  162.55    9.30
  -8   8   0  148.79    9.39
   8  -8   1   85.58    6.24
  -8   8  -1   73.07    5.60
  -8   8  -1   85.83    4.90
   8  -8   2    3.12    1.88
  -8   8  -2    3.37    1.68
  -8   8  -2    6.18    1.51
   8  -8   3    3.03    1.72
  -8   8  -3    2.86    1.41
  -8   8  -3    1.04    1.31
   8  -8   4   19.90    2.80
  -8   8  -4   17.31    2.75
  -8   8  -4   18.52    2.59
   8  -8   5   16.02    4.01
  -8   8  -5   16.31    2.72
  -8   8  -5   21.49    3.45
   8  -8   6   34.65    5.55
  -8   8  -6   35.27    4.75
  -8   8  -6   26.59    3.62
   8  -7 -16   53.55    8.63
  -8   7  16   49.98    5.10
  -8   7  16   64.29    8.41
   8  -7 -15   33.35    5.84
  -8   7  15   30.43    5.77
  -8   7  15   28.90    3.58
   8  -7 -14   20.83    3.47
  -8   7  14   22.09    4.61
  -8   7  14   18.68    3.40
   8  -7 -13    5.65    2.10
  -8   7  13    7.17    2.82
  -8   7  13    5.79    1.91
   8  -7 -12   96.59    7.00
  -8   7  12   88.60    6.09
  -8   7  12   88.50    8.83
   8  -7 -11  208.69   12.53
  -8   7  11  194.70   10.28
  -8   7  11  215.75   12.56
   8  -7 -10   27.84    4.14
  -8   7  10   29.47    3.20
  -8   7  10   25.33    2.11
   8  -7  -9   93.26    7.24
  -8   7   9  101.30    7.35
  -8   7   9   76.00    4.20
   8  -7  -8  627.84   34.81
  -8   7   8  630.39   31.81
  -8   7   8  548.04   22.53
   8  -7  -7   49.81    3.81
  -8   7   7   49.45    3.92
   8  -7  -6   13.55    2.40
  -8   7   6   10.01    0.69
   8  -7  -5  231.16   12.12
  -8   7   5  172.98    4.68
   8  -7  -4  283.48   12.23
   8  -7  -4  305.56   17.46
   8  -7  -3 1036.47   52.27
  -8   7   3 1156.73   66.87
  -8   7   3 1136.78   59.99
   8  -7  -2 1045.55   53.92
  -8   7   2 1111.79   60.54
  -8   7   2 1064.21   55.60
   8  -7  -1  304.94   15.24
  -8   7   1  319.83   17.77
  -8   7   1  315.88   16.51
   8  -7   0   70.62    4.73
  -8   7   0   69.40    5.49
  -8   7   0   64.42    4.06
   8  -7   1   91.38    7.04
  -8   7  -1  116.09    6.64
  -8   7  -1  105.84    6.95
   8  -7   2   94.14    5.69
  -8   7  -2   90.87    5.09
  -8   7  -2  110.11    7.18
   8  -7   3  279.25   17.55
  -8   7  -3  287.89   15.29
  -8   7  -3  319.62   18.52
   8  -7   4   81.22    7.47
  -8   7  -4   88.60    5.85
  -8   7  -4   77.96    6.95
   8  -7   5    3.53    2.18
  -8   7  -5    4.50    1.22
  -8   7  -5    3.54    1.95
   8  -7   6   53.22    5.02
  -8   7  -6   49.18    4.54
  -8   7  -6   50.70    5.38
   8  -7   7   65.36    7.49
  -8   7  -7   59.88    6.36
  -8   7  -7   52.73    5.11
   8  -7   8   16.21    4.12
  -8   7  -8   12.49    3.26
  -8   7  -8   11.05    2.58
   8  -6 -16   34.80    6.57
  -8   6  16   39.10    4.88
  -8   6  16   30.82    5.37
   8  -6 -15  182.63   16.21
  -8   6  15  183.90   14.29
  -8   6  15  181.00   15.86
   8  -6 -14  181.48   12.61
  -8   6  14  183.84   15.01
  -8   6  14  177.15   12.62
   8  -6 -13   47.86    6.04
  -8   6  13   39.79    3.40
  -8   6  13   45.13    5.75
   8  -6 -12   10.96    3.01
  -8   6  12    9.13    2.07
  -8   6  12    9.48    2.21
   8  -6 -11   99.14    8.18
  -8   6  11   83.65    4.79
  -8   6  11  109.32    6.52
   8  -6 -10    9.57    2.15
  -8   6  10   10.53    1.73
  -8   6  10   13.03    2.14
   8  -6  -9  124.50    7.73
  -8   6   9   98.06    6.22
  -8   6   9   88.11    4.71
   8  -6  -8  634.14   32.06
  -8   6   8  648.31   32.05
  -8   6   8  605.40   25.37
   8  -6  -7  299.41   14.06
  -8   6   7  305.91   16.54
  -8   6   7  260.93    9.51
   8  -6  -6   47.24    3.05
  -8   6   6   39.61    3.13
  -8   6   6   33.63    1.55
   8  -6  -5   96.55    3.85
   8  -6  -5  109.21    6.04
  -8   6   5  118.84    7.44
   8  -6  -4  474.27   18.69
   8  -6  -4  547.34   23.54
  -8   6   4  413.97   12.40
   8  -6  -3   81.06    4.21
   8  -6  -3  111.87    6.31
   8  -6  -2  846.07   40.44
  -8   6   2  895.28   45.26
   8  -6  -1   24.76    2.29
  -8   6   1   22.00    2.96
  -8   6   1   24.16    2.20
   8  -6   0   53.42    3.29
  -8   6   0   63.07    3.65
  -8   6   0   69.01    4.67
   8  -6   1    7.15    1.86
  -8   6  -1    9.01    2.09
  -8   6  -1   12.99    2.01
   8  -6   2   73.11    3.95
  -8   6  -2   71.71    5.07
  -8   6  -2   63.61    3.88
   8  -6   3   85.80    6.41
  -8   6  -3   91.35    5.53
  -8   6  -3   78.10    4.73
   8  -6   4    0.92    1.63
  -8   6  -4    3.87    1.32
  -8   6  -4    1.31    1.50
   8  -6   5    4.67    1.62
  -8   6  -5    5.33    1.28
  -8   6  -5    5.96    1.89
   8  -6   6   87.63    5.89
  -8   6  -6   76.15    5.41
  -8   6  -6   66.40    6.52
   8  -6   7   24.41    3.13
  -8   6  -7   22.10    2.55
  -8   6  -7   17.12    2.18
   8  -6   8    2.16    2.28
  -8   6  -8    1.64    1.82
  -8   6  -8    3.27    1.55
   8  -6   9    9.09    3.54
  -8   6  -9    9.24    2.75
  -8   6  -9    7.75    2.25
   8  -5 -16   83.81    7.59
  -8   5  16   61.59    8.93
  -8   5  16   73.00    8.25
   8  -5 -15    3.26    2.74
  -8   5  15    4.59    1.96
  -8   5  15    3.63    2.33
   8  -5 -14  448.77   27.24
  -8   5  14  432.32   29.57
  -8   5  14  432.66   27.08
   8  -5 -13  113.83    7.55
  -8   5  13   91.19    9.09
  -8   5  13  101.23    7.65
   8  -5 -12   37.22    4.06
  -8   5  12   45.33    4.11
  -8   5  12   38.95    3.84
   8  -5 -11  137.57    8.79
  -8   5  11  136.11    8.02
  -8   5  11  153.51   10.46
   8  -5 -10  588.84   30.99
  -8   5  10  564.50   27.10
  -8   5  10  603.29   33.51
   8  -5  -9  438.11   21.53
  -8   5   9  423.63   20.44
  -8   5   9  397.80   17.75
   8  -5  -8   31.28    2.83
  -8   5   8   30.75    3.50
  -8   5   8   25.03    2.11
   8  -5  -7  950.96   50.77
  -8   5   7  937.13   50.10
  -8   5   7  861.38   37.58
   8  -5  -6   41.53    3.12
  -8   5   6   40.33    3.10
  -8   5   6   40.83    1.98
   8  -5  -5   43.68    2.04
   8  -5  -5   55.33    3.09
  -8   5   5   48.69    4.05
  -8   5   5   38.40    1.64
   8  -5  -4  118.20    6.55
   8  -5  -4   93.84    3.95
  -8   5   4  106.11    5.25
  -8   5   4   88.42    2.60
   8  -5  -3  502.59   20.34
  -8   5   3  545.52   25.52
  -8   5   3  461.26   14.66
   8  -5  -2   20.74    1.55
  -8   5   2   13.77    0.53
   8  -5  -1  321.12   14.05
  -8   5   1  348.92   17.33
   8  -5   0    1.53    1.02
  -8   5   0    2.25    1.25
   8  -5   1  204.02   10.39
  -8   5  -1  209.21   11.31
  -8   5  -1  216.34   10.60
   8  -5   2   34.92    2.92
  -8   5  -2   42.94    3.96
  -8   5  -2   46.65    2.88
   8  -5   3   36.97    2.95
  -8   5  -3   45.15    3.46
  -8   5  -3   46.18    3.00
   8  -5   4  144.27    8.06
  -8   5  -4  151.72    8.39
  -8   5  -4  156.94    7.67
   8  -5   5    3.09    1.13
  -8   5  -5    1.24    0.87
  -8   5  -5   -0.41    1.27
   8  -5   6   28.20    2.91
  -8   5  -6   23.36    2.78
  -8   5  -6   20.39    2.41
   8  -5   7    7.89    2.03
  -8   5  -7    9.51    2.09
  -8   5  -7    6.36    1.45
   8  -5   8   61.12    5.26
  -8   5  -8   59.15    5.49
  -8   5  -8   58.65    5.08
   8  -5   9   -1.15    1.44
  -8   5  -9    2.75    1.46
  -8   5  -9    1.22    1.29
   8  -5  10    5.59    2.14
  -8   5 -10    3.04    2.10
  -8   5 -10    3.91    1.85
   8  -4 -16   18.17    5.34
  -8   4  16   24.37    3.58
  -8   4  16   21.69    4.89
   8  -4 -15    2.05    1.98
  -8   4  15    3.48    2.21
  -8   4  15    3.56    2.29
   8  -4 -14   36.84    4.10
  -8   4  14   28.92    4.59
  -8   4  14   28.51    3.66
   8  -4 -13   20.68    3.07
  -8   4  13   19.06    2.70
  -8   4  13   20.05    3.50
   8  -4 -12   48.11    6.16
  -8   4  12   59.52    3.92
  -8   4  12   56.39    5.63
   8  -4 -11    2.39    1.86
  -8   4  11    3.93    1.35
  -8   4  11    2.76    1.09
   8  -4 -10   56.78    5.28
  -8   4  10   48.10    4.03
  -8   4  10   61.46    4.05
   8  -4  -9  170.05    8.92
  -8   4   9  160.36    7.71
  -8   4   9  157.18    8.08
   8  -4  -8  302.64   14.38
  -8   4   8  283.68   15.30
  -8   4   8  292.95   12.10
   8  -4  -7   13.77    1.94
  -8   4   7   15.19    2.49
  -8   4   7   15.58    1.33
   8  -4  -6    4.91    0.62
   8  -4  -6    6.52    1.29
  -8   4   6    6.55    1.28
  -8   4   6    6.33    0.95
   8  -4  -5  271.30    8.90
   8  -4  -5  294.54   12.78
  -8   4   5  314.59   14.52
  -8   4   5  277.81    9.33
   8  -4  -4  255.69    9.16
  -8   4   4  292.00   13.20
  -8   4   4  258.19    8.00
   8  -4  -3    7.79    1.03
  -8   4   3    8.64    1.76
  -8   4   3    7.68    0.57
   8  -4  -2  352.45   13.58
  -8   4   2  366.05   14.62
  -8   4   2  325.92    9.75
   8  -4  -1  279.92   10.71
  -8   4   1  230.91    5.98
   8  -4   0   86.54    4.89
  -8   4   0  110.15    6.21
   8  -4   1   59.36    3.44
  -8   4  -1   49.11    3.09
   8  -4   2  838.93   41.55
  -8   4  -2  797.54   39.93
  -8   4  -2  845.68   41.14
   8  -4   3  107.49    5.42
  -8   4  -3  107.89    4.89
  -8   4  -3  103.63    6.14
   8  -4   4  173.12    8.37
  -8   4  -4  171.50    8.59
  -8   4  -4  171.17    8.97
   8  -4   5  111.65    6.91
  -8   4  -5   94.54    5.43
  -8   4  -5   87.62    5.72
   8  -4   6  100.25    6.85
  -8   4  -6   84.08    4.40
  -8   4  -6   82.79    4.75
   8  -4   7    6.46    1.83
  -8   4  -7    6.31    1.93
  -8   4  -7    7.27    1.82
   8  -4   8   74.76    5.53
  -8   4  -8   64.65    4.34
  -8   4  -8   67.96    5.27
   8  -4   9   42.38    5.59
  -8   4  -9   43.03    4.24
  -8   4  -9   37.98    4.06
   8  -4  10   18.80    4.09
  -8   4 -10   19.41    3.04
  -8   4 -10   16.21    2.21
   8  -4  11    4.82    1.77
  -8   4 -11    1.27    1.68
  -8   4 -11    0.57    1.21
   8  -3 -16  137.74   11.34
  -8   3  16  123.71   11.86
  -8   3  16  146.79   10.85
   8  -3 -15   45.78    6.65
  -8   3  15   38.39    5.72
  -8   3  15   52.89    6.27
   8  -3 -14    3.49    1.95
  -8   3  14    6.75    2.37
  -8   3  14    5.79    2.37
   8  -3 -13   29.37    3.62
  -8   3  13   34.82    4.14
  -8   3  13   27.39    4.28
   8  -3 -12   13.12    2.99
  -8   3  12   10.62    1.95
  -8   3  12   12.93    1.98
   8  -3 -11  114.22    7.28
  -8   3  11  125.01    8.01
  -8   3  11  113.73    6.09
   8  -3 -10  308.82   15.55
  -8   3  10  291.95   12.83
  -8   3  10  304.41   16.60
   8  -3  -9  111.38    5.66
  -8   3   9  102.38    6.64
  -8   3   9   94.04    5.46
   8  -3  -8  761.85   37.50
  -8   3   8  782.81   36.32
  -8   3   8  729.91   31.50
   8  -3  -7    4.90    0.58
   8  -3  -7    6.60    1.32
  -8   3   7    5.34    1.25
  -8   3   7    5.91    1.17
   8  -3  -6    7.59    0.82
   8  -3  -6    8.97    1.89
  -8   3   6    8.62    1.36
  -8   3   6    9.92    1.18
   8  -3  -5  221.74    7.51
  -8   3   5  242.73   11.27
  -8   3   5  233.68    7.79
   8  -3  -4  363.17   12.73
  -8   3   4  394.53   17.37
  -8   3   4  358.83   11.90
   8  -3  -3   15.04    1.32
  -8   3   3   16.83    1.54
  -8   3   3   11.71    0.89
  -8   3   2  192.63    8.52
  -8   3   2  157.62    4.52
   8  -3  -1  370.51   14.12
   8  -3  -1  374.28   15.90
  -8   3   1  365.20   14.02
  -8   3   1  315.52    9.61
   8  -3   0   37.72    2.49
  -8   3   0   36.27    2.85
  -8   3   0   30.03    2.25
   8  -3   1  946.47   46.01
  -8   3  -1 1001.91   46.29
   8  -3   2   49.09    2.68
  -8   3  -2   45.93    2.62
   8  -3   3  269.58   12.69
  -8   3  -3  269.38   12.34
   8  -3   4   49.72    2.91
  -8   3  -4   46.10    3.18
  -8   3  -4   34.79    2.50
   8  -3   5  227.90   12.03
  -8   3  -5  200.87    8.44
  -8   3  -5  201.20    9.75
   8  -3   6   71.03    4.23
  -8   3  -6   67.66    4.28
  -8   3  -6   56.11    4.13
   8  -3   7    6.75    1.88
  -8   3  -7    4.82    1.43
  -8   3  -7    4.12    1.15
   8  -3   8  427.62   22.45
  -8   3  -8  376.33   17.57
  -8   3  -8  375.57   19.99
   8  -3   9    0.26    1.77
  -8   3  -9    2.72    1.25
  -8   3  -9    0.64    1.34
   8  -3  10   27.34    3.53
  -8   3 -10   24.49    3.21
  -8   3 -10   29.44    3.50
  -8   3 -11    9.22    2.18
  -8   3 -11    6.78    2.22
  -8   3 -12    4.99    2.06
  -8   3 -12    6.20    2.21
   8  -2 -16   42.16    6.76
  -8   2  16   33.32    6.67
   8  -2 -15   24.30    3.23
  -8   2  15   17.97    3.46
  -8   2  15    5.80    2.99
   8  -2 -14    9.26    2.95
  -8   2  14    7.62    2.40
  -8   2  14    6.85    2.15
   8  -2 -13   93.65    6.67
  -8   2  13   84.69    7.10
  -8   2  13   83.39    6.26
   8  -2 -12   55.21    4.61
  -8   2  12   52.95    5.39
  -8   2  12   58.67    5.10
   8  -2 -11  149.77   10.18
  -8   2  11  147.11    7.46
  -8   2  11  137.83    7.32
   8  -2 -10   94.42    5.17
  -8   2  10   84.30    4.65
  -8   2  10   78.86    4.47
   8  -2  -9    3.09    1.53
  -8   2   9    3.84    1.28
  -8   2   9    1.80    1.02
   8  -2  -8   34.73    2.83
  -8   2   8   38.11    3.38
  -8   2   8   34.37    2.86
   8  -2  -7   19.41    1.15
   8  -2  -7   25.77    2.20
  -8   2   7   27.32    2.70
  -8   2   7   28.29    2.11
   8  -2  -6    7.62    0.85
  -8   2   6    9.29    1.69
  -8   2   6    9.83    1.23
   8  -2  -5   92.91    3.48
  -8   2   5   97.96    5.32
  -8   2   5   89.06    3.82
   8  -2  -4    2.52    0.62
  -8   2   4    1.61    1.08
  -8   2   4    1.22    0.54
   8  -2  -3  504.27   18.48
  -8   2   3  493.91   16.97
  -8   2   3  537.38   22.94
   8  -2  -2    6.77    1.07
   8  -2  -2   11.36    1.14
  -8   2   2    7.92    1.14
  -8   2   2    7.59    0.67
   8  -2  -1   15.82    1.43
   8  -2  -1   15.67    1.49
  -8   2   1   16.44    1.84
  -8   2   1   14.36    0.85
   8  -2   0   57.46    3.23
   8  -2   0   69.31    2.88
  -8   2   0   59.38    3.57
   8  -2   1  314.69   12.80
   8  -2   1  296.89    8.61
  -8   2  -1  320.50   11.81
  -8   2  -1  317.57   11.81
   8  -2   2   90.32    5.15
  -8   2  -2   98.30    5.11
  -8   2  -2   94.32    4.14
   8  -2   3    2.88    1.18
  -8   2  -3    2.92    1.04
   8  -2   4   21.76    2.44
  -8   2  -4   20.17    1.98
   8  -2   5    7.51    1.63
  -8   2  -5    4.95    1.28
   8  -2   6  267.17   13.67
  -8   2  -6  235.16   10.69
  -8   2  -6  245.19   11.52
   8  -2   7   28.52    2.42
  -8   2  -7   17.82    1.73
  -8   2  -7   22.94    1.97
   8  -2   8   67.56    4.71
  -8   2  -8   63.94    3.27
  -8   2  -8   70.08    3.77
   8  -2   9   54.66    5.68
  -8   2  -9   50.64    3.82
  -8   2  -9   53.83    3.50
   8  -2  10   67.85    5.34
  -8   2 -10   51.03    4.50
  -8   2 -10   64.40    4.18
  -8   2 -11   34.73    4.01
  -8   2 -11   45.13    3.41
  -8   2 -12   12.31    2.46
  -8   2 -12   11.50    2.69
   8  -1 -16  108.00   12.57
   8  -1 -15   16.24    4.38
   8  -1 -14   77.48    5.98
  -8   1  14   51.86    6.02
  -8   1  14   66.16    7.42
   8  -1 -13   23.22    4.43
  -8   1  13   25.90    4.27
  -8   1  13   27.92    3.50
   8  -1 -12    8.54    2.66
  -8   1  12    9.60    1.93
  -8   1  12    8.91    2.16
   8  -1 -11  124.45    9.10
  -8   1  11  120.96    7.88
  -8   1  11  129.46    8.53
   8  -1 -10  239.54   12.01
  -8   1  10  236.96   10.77
  -8   1  10  241.63   12.99
   8  -1  -9  139.27    8.62
  -8   1   9  143.72    7.67
  -8   1   9  131.34    6.17
   8  -1  -8   32.83    1.61
   8  -1  -8   40.60    2.89
  -8   1   8   46.95    3.25
  -8   1   8   43.43    3.16
   8  -1  -7  265.73    8.84
  -8   1   7  287.49   12.82
  -8   1   7  267.07   10.21
   8  -1  -6   26.46    1.52
  -8   1   6   27.67    2.53
  -8   1   6   29.17    2.21
   8  -1  -5    2.11    0.65
  -8   1   5    2.29    1.10
  -8   1   5    3.46    0.87
   8  -1  -4   12.56    1.04
  -8   1   4    8.67    1.64
  -8   1   4    8.49    1.15
   8  -1  -3   24.83    1.62
   8  -1  -3   32.18    1.87
  -8   1   3   29.00    2.35
  -8   1   3   23.91    1.56
   8  -1  -2  455.78   16.76
   8  -1  -2  460.83   19.08
  -8   1   2  455.83   17.11
  -8   1   2  449.37   15.09
   8  -1  -1   15.95    1.73
   8  -1  -1   13.25    1.44
  -8   1   1   13.94    1.26
  -8   1   1   14.47    0.85
   8  -1   0  289.84    9.83
   8  -1   0  277.38    9.92
  -8   1   0  296.30   11.71
  -8   1   0  258.90    8.04
   8  -1   1   47.26    2.74
   8  -1   1   48.33    2.65
  -8   1  -1   42.91    2.94
   8  -1   2  479.99   19.96
   8  -1   2  448.35   14.28
  -8   1  -2  487.78   19.55
  -8   1  -2  472.29   19.33
   8  -1   3 1505.17   78.17
   8  -1   3 1352.40   59.01
  -8   1  -3 1498.22   73.00
  -8   1  -3 1442.25   71.83
   8  -1   4  177.97    7.18
   8  -1   4  156.07    4.47
  -8   1  -4  185.09    7.33
   8  -1   5    5.61    1.41
   8  -1   5    4.22    0.53
  -8   1  -5    4.25    1.06
   8  -1   6   55.74    3.79
  -8   1  -6   38.65    2.72
   8  -1   7  623.87   31.55
  -8   1  -7  552.08   24.96
  -8   1  -7  567.06   25.36
   8  -1   8  800.80   43.21
  -8   1  -8  664.02   32.47
  -8   1  -8  736.15   38.20
   8  -1   9   88.71    7.06
  -8   1  -9   77.30    4.69
  -8   1  -9   93.44    5.64
  -8   1 -10    1.77    0.76
  -8   1 -10    0.50    0.99
  -8   1 -11   27.24    2.83
  -8   1 -11   27.09    2.67
   8  -1  12  184.09   11.77
  -8   1 -12  151.34    9.38
  -8   1 -12  166.14   10.72
   8  -1  13    6.34    2.90
  -8   1 -13    6.58    2.32
   8   0 -16  196.61   16.07
  -8   0  16  216.26   19.77
   8   0 -15   71.93    6.97
   8   0 -14   72.31    6.62
   8   0 -13   29.36    3.54
  -8   0  13   23.86    3.31
   8   0 -12   84.04    7.30
  -8   0  12   78.96    5.53
   8   0 -11   77.14    6.62
  -8   0  11   71.72    5.32
  -8   0  11   80.55    5.11
   8   0 -10  288.26   16.13
  -8   0  10  286.40   13.23
  -8   0  10  268.99   13.50
   8   0  -9   25.69    1.80
   8   0  -9   40.87    2.81
  -8   0   9   37.68    2.59
  -8   0   9   30.69    2.89
   8   0  -8  481.77   17.90
  -8   0   8  494.81   22.51
  -8   0   8  528.04   22.10
   8   0  -7 1429.07   68.14
  -8   0   7 1534.22   80.51
  -8   0   7 1526.70   78.35
   8   0  -6 1350.80   61.60
  -8   0   6 1350.21   66.20
  -8   0   6 1396.31   67.08
   8   0  -5  347.85   11.98
  -8   0   5  355.11   14.56
  -8   0   5  362.08   13.95
   8   0  -4  849.90   34.32
   8   0  -4  885.67   40.35
  -8   0   4  895.20   39.02
  -8   0   4  843.88   33.90
   8   0  -3   23.24    1.64
   8   0  -3   27.25    1.75
  -8   0   3   30.48    2.08
  -8   0   3   24.53    1.68
   8   0  -2   48.43    1.99
  -8   0   2   55.59    2.44
  -8   0   2   51.62    2.29
   8   0  -1 1608.47   79.61
   8   0  -1 1652.06   81.75
  -8   0   1 1638.23   82.96
  -8   0   1 1612.11   76.52
   8   0   0  783.12   32.11
   8   0   0  769.69   32.26
  -8   0   0  795.44   33.19
  -8   0   0  753.77   28.11
   8   0   1   30.99    2.27
   8   0   1   36.98    2.17
  -8   0  -1   34.64    2.36
  -8   0  -1   31.43    1.38
   8   0   2   75.12    3.44
  -8   0  -2   64.85    3.32
  -8   0  -2   48.77    2.31
   8   0   3  289.30   11.98
   8   0   3  275.79    8.53
  -8   0  -3  283.29   10.60
  -8   0  -3  290.84   10.12
   8   0   4   73.49    4.05
   8   0   4   57.92    2.06
  -8   0  -4   68.76    2.62
  -8   0  -4   70.87    3.63
   8   0   5    3.86    0.92
   8   0   5    3.02    0.52
  -8   0  -5    2.62    0.64
  -8   0  -5    2.06    0.81
   8   0   6  186.82    6.00
   8   0   6  213.63    9.99
  -8   0  -6  188.15    7.33
   8   0   7  233.73   11.50
   8   0   7  197.48    6.90
  -8   0  -7  202.21    8.27
   8   0   8   15.10    1.94
   8   0   8   15.34    1.40
  -8   0  -8   13.06    1.62
  -8   0  -9   16.07    1.31
  -8   0  -9   18.82    2.38
  -8   0 -10  122.50    6.07
  -8   0 -10  139.99    8.19
  -8   0 -11  278.70   13.45
  -8   0 -11  300.81   14.54
   8   0  12   85.97    7.79
  -8   0 -12   71.71    4.87
  -8   0 -12   82.94    6.64
   8   0  13    7.86    2.90
  -8   0 -13    9.58    2.51
   8   0  14   -0.59    1.66
  -8   0 -14    0.03    1.44
   8   1 -15    0.49    1.54
  -8  -1  15    0.45    2.04
  -8  -1  14  611.03   38.54
   8   1 -13  774.62   46.47
   8   1 -12    2.51    1.95
   8   1 -11   31.02    2.98
  -8  -1  11   25.23    2.86
   8   1 -10  165.28   10.14
  -8  -1  10  142.36    7.64
   8   1  -9    2.29    0.79
  -8  -1   9    1.10    1.05
   8   1  -8  367.28   13.81
  -8  -1   8  372.14   16.15
  -8  -1   8  408.80   19.04
   8   1  -7 1070.49   47.78
  -8  -1   7 1107.53   53.15
  -8  -1   7 1166.46   58.67
   8   1  -6  229.11    7.93
  -8  -1   6  237.11    9.62
  -8  -1   6  255.48    9.52
   8   1  -5  211.70    7.48
   8   1  -5  215.07    9.60
  -8  -1   5  211.85    8.46
  -8  -1   5  215.76    8.82
   8   1  -4  568.16   21.45
   8   1  -4  600.90   25.44
  -8  -1   4  572.62   22.97
  -8  -1   4  610.30   24.21
   8   1  -3  543.73   20.28
   8   1  -3  552.31   21.06
  -8  -1   3  544.09   21.28
  -8  -1   3  582.41   21.80
   8   1  -2   49.87    2.70
   8   1  -2   46.83    3.04
  -8  -1   2   55.79    2.54
   8   1  -1  201.51    7.31
   8   1  -1  210.14    7.88
  -8  -1   1  192.88    6.40
  -8  -1   1  195.59    6.72
   8   1   0   41.27    1.84
   8   1   0   45.32    2.28
  -8  -1   0   31.76    1.94
  -8  -1   0   46.90    2.40
   8   1   1  777.46   32.69
   8   1   1  759.71   31.03
  -8  -1  -1  803.89   33.30
  -8  -1  -1  798.70   30.24
   8   1   2  398.68   15.48
   8   1   2  374.57   13.29
  -8  -1  -2  387.19   12.99
  -8  -1  -2  407.26   15.42
   8   1   3  246.53    9.00
   8   1   3  245.56    7.99
  -8  -1  -3  264.32    9.14
  -8  -1  -3  264.16    9.95
   8   1   4   74.40    3.38
   8   1   4   72.63    2.90
  -8  -1  -4   73.61    3.11
  -8  -1  -4   78.35    3.13
   8   1   5 2164.45  123.11
   8   1   5 2007.35  106.29
  -8  -1  -5 2024.51  109.82
  -8  -1  -5 2134.28  121.56
   8   1   6    8.69    1.25
   8   1   6    6.60    0.96
  -8  -1  -6    7.74    0.95
  -8  -1  -6    8.40    1.41
   8   1   7  309.86   14.32
   8   1   7  276.96   10.40
  -8  -1  -7  267.41    9.60
  -8  -1  -7  283.95   12.56
   8   1   8   74.58    3.93
   8   1   8   67.57    3.00
  -8  -1  -8   60.53    3.05
   8   1   9  259.90   10.72
  -8  -1  -9  225.96    9.23
   8   1  10    2.60    0.82
  -8  -1 -10    1.65    0.82
  -8  -1 -10    1.06    0.98
   8   1  11    6.87    1.98
  -8  -1 -11    3.02    1.09
  -8  -1 -11    3.53    1.63
   8   1  12   63.94    6.22
  -8  -1 -12   58.81    4.45
   8   1  13  236.69   16.54
  -8  -1 -13  220.12   14.02
   8   1  14   10.70    2.36
  -8  -1 -14    7.40    2.78
   8   1  15    4.87    1.87
  -8  -1 -15    1.95    1.72
   8   2 -15  207.82   19.33
  -8  -2  15  206.40   19.70
   8   2 -14    5.04    2.71
  -8  -2  14    2.79    2.00
   8   2 -13  112.18   10.30
  -8  -2  13  111.31    8.35
   8   2 -12   41.94    5.58
  -8  -2  12   44.47    5.63
   8   2 -11  309.67   19.82
  -8  -2  11  327.98   19.90
   8   2 -10    7.39    1.35
  -8  -2  10    9.47    1.53
   8   2  -9    8.12    1.24
  -8  -2   9    6.91    1.38
   8   2  -8   25.47    1.97
  -8  -2   8   29.20    2.19
   8   2  -7   39.56    2.32
  -8  -2   7   36.36    2.18
   8   2  -6   94.84    4.04
   8   2  -6   94.76    5.33
  -8  -2   6   97.40    4.35
   8   2  -5   24.01    1.81
   8   2  -5   28.90    1.91
  -8  -2   5   25.48    1.92
  -8  -2   5   31.96    2.47
   8   2  -4 1689.57   85.17
   8   2  -4 1737.78   92.00
  -8  -2   4 1660.47   84.37
  -8  -2   4 1741.99   88.76
   8   2  -3  639.88   24.67
   8   2  -3  624.91   24.18
  -8  -2   3  639.87   23.31
  -8  -2   3  676.12   27.10
   8   2  -2  138.99    5.25
   8   2  -2  135.15    4.67
  -8  -2   2  128.32    4.86
  -8  -2   2  133.44    5.27
   8   2  -1  622.07   24.06
   8   2  -1  624.78   24.27
  -8  -2   1  626.43   23.56
  -8  -2   1  616.37   22.41
   8   2   0  281.54   10.33
   8   2   0  271.27    9.51
  -8  -2   0  272.38    9.37
  -8  -2   0  271.30    9.41
   8   2   1  196.21    6.54
   8   2   1  191.67    6.57
  -8  -2  -1  197.23    6.90
  -8  -2  -1  183.36    6.49
   8   2   2  160.38    5.56
   8   2   2  150.23    5.15
  -8  -2  -2  157.90    5.88
  -8  -2  -2  162.02    5.69
   8   2   3  458.09   18.58
  -8  -2  -3  463.99   16.11
   8   2   4   19.79    1.55
   8   2   4   22.62    1.42
  -8  -2  -4   18.80    1.26
  -8  -2  -4   19.83    1.67
   8   2   5    3.42    0.86
   8   2   5    3.96    0.78
  -8  -2  -5    2.15    0.64
  -8  -2  -5    4.12    0.73
   8   2   6  831.69   38.87
   8   2   6  772.67   32.11
  -8  -2  -6  730.14   27.97
  -8  -2  -6  815.55   34.31
   8   2   7  295.81   13.53
   8   2   7  266.73   10.25
  -8  -2  -7  249.08    8.66
  -8  -2  -7  275.71   10.67
   8   2   8  475.73   19.12
  -8  -2  -8  414.93   15.66
  -8  -2  -8  496.21   19.73
   8   2   9   11.41    1.51
  -8  -2  -9   10.18    0.96
   8   2  10   26.34    2.23
  -8  -2 -10   19.26    1.54
   8   2  11   34.41    3.83
   8   2  11   28.18    2.72
   8   2  12  297.81   18.45
   8   2  12  283.27   14.98
  -8  -2 -12  284.34   16.69
   8   2  13   77.56    5.75
  -8  -2 -13   75.52    5.20
   8   2  14   11.43    3.20
  -8  -2 -14   12.58    2.29
   8   2  15   66.26    7.35
  -8  -2 -15   60.56    6.90
   8   3 -14  197.43   15.08
  -8  -3  14  205.59   18.22
   8   3 -13    6.88    3.10
  -8  -3  13    9.48    3.28
   8   3 -12   17.32    3.89
  -8  -3  12   22.15    4.11
  -8  -3  11   17.76    2.72
   8   3 -10  211.04    9.77
  -8  -3  10  231.73   13.95
   8   3  -9  148.52    7.06
  -8  -3   9  171.61   10.33
   8   3  -8  135.22    6.09
  -8  -3   8  126.42    5.57
  -8  -3   8  150.67    7.19
   8   3  -7    6.76    1.28
   8   3  -7    6.76    1.79
  -8  -3   7    9.00    1.15
   8   3  -6  578.77   23.40
   8   3  -6  583.31   26.53
  -8  -3   6  576.63   22.42
   8   3  -5    4.14    1.00
   8   3  -5    4.08    0.93
  -8  -3   5    5.33    0.86
   8   3  -4    7.17    1.05
   8   3  -4    5.58    0.94
  -8  -3   4    5.61    0.83
   8   3  -3 1415.43   66.16
   8   3  -3 1432.02   70.49
  -8  -3   3 1444.60   66.84
  -8  -3   3 1481.54   71.49
   8   3  -2  148.94    5.96
   8   3  -2  148.87    5.85
  -8  -3   2  151.94    5.29
  -8  -3   2  149.98    5.31
   8   3  -1 1447.23   69.76
   8   3  -1 1427.95   67.51
  -8  -3   1 1470.96   71.26
  -8  -3   1 1425.87   65.37
   8   3   0   97.63    4.26
   8   3   0   98.08    3.82
  -8  -3   0   97.75    3.73
  -8  -3   0   96.75    4.08
   8   3   1  242.06    9.38
   8   3   1  235.53    7.78
  -8  -3  -1  247.19    8.84
  -8  -3  -1  243.01    8.29
   8   3   2   79.33    3.18
   8   3   2   73.49    2.55
  -8  -3  -2   80.03    2.72
  -8  -3  -2   78.17    2.79
   8   3   3  193.10    6.94
   8   3   3  189.88    5.73
  -8  -3  -3  205.45    7.14
  -8  -3  -3  199.16    7.30
   8   3   4   50.64    2.94
   8   3   4   52.50    2.39
  -8  -3  -4   44.29    1.67
  -8  -3  -4   43.23    1.98
   8   3   5  100.21    4.19
   8   3   5   92.41    4.08
  -8  -3  -5   94.52    2.91
  -8  -3  -5  100.34    3.75
   8   3   6  426.54   18.34
   8   3   6  427.97   16.46
  -8  -3  -6  391.62   12.55
  -8  -3  -6  421.27   15.48
   8   3   7  148.23    6.28
  -8  -3  -7  147.46    4.68
  -8  -3  -7  161.69    7.12
   8   3   8    1.57    0.85
  -8  -3  -8    1.00    0.48
  -8  -3  -8    2.57    0.94
   8   3   9  327.16   13.87
  -8  -3  -9  281.20    9.67
  -8  -3  -9  327.87   13.03
   8   3  10  189.37   10.25
   8   3  10  161.47    8.25
  -8  -3 -10  176.91    9.32
   8   3  11   32.62    2.76
   8   3  11   29.53    2.83
   8   3  12    4.29    2.13
   8   3  12    8.63    1.73
   8   3  13   37.92    4.52
   8   3  13   36.23    2.82
   8   3  14    3.47    1.51
   8   3  14    1.61    1.54
  -8  -3 -14    3.28    1.44
   8   3  15    4.25    2.13
  -8  -3 -15    2.52    1.60
   8   3  16  103.63   11.09
  -8  -3 -16  134.77   10.75
   8   4 -14   68.40    7.04
  -8  -4  14   69.53    9.23
   8   4 -13  463.45   33.00
  -8  -4  13  463.54   33.39
  -8  -4  12  486.62   33.26
   8   4 -11  265.19   13.53
  -8  -4  11  291.71   16.25
   8   4 -10  336.59   16.35
  -8  -4  10  364.45   21.38
   8   4  -9  758.65   37.09
  -8  -4   9  835.27   46.20
   8   4  -8   73.21    4.24
   8   4  -8   80.47    4.51
  -8  -4   8   82.17    4.68
   8   4  -7 1031.41   49.33
   8   4  -7 1039.21   50.45
  -8  -4   7  987.29   43.00
  -8  -4   7 1097.85   58.18
   8   4  -6   28.92    1.70
   8   4  -6   28.94    2.55
  -8  -4   6   19.59    1.33
  -8  -4   6   26.22    2.82
   8   4  -5   91.67    4.41
   8   4  -5   93.55    4.04
  -8  -4   5   87.83    3.05
  -8  -4   5   94.78    4.50
   8   4  -4  368.90   13.01
   8   4  -4  367.99   14.79
  -8  -4   4  359.34   11.93
   8   4  -3  103.37    4.58
   8   4  -3  100.05    3.71
  -8  -4   3   97.67    3.39
   8   4  -2  251.01    9.53
   8   4  -2  253.59    9.20
  -8  -4   2  245.44    7.77
   8   4  -1  508.03   19.99
   8   4  -1  506.17   18.51
  -8  -4   1  500.53   16.53
   8   4   0   64.21    2.76
   8   4   0   65.85    2.66
  -8  -4   0   64.56    2.73
  -8  -4   0   64.30    2.52
   8   4   1  448.88   17.68
   8   4   1  446.47   14.96
  -8  -4  -1  449.95   15.22
  -8  -4  -1  452.18   17.57
   8   4   2  537.42   21.50
   8   4   2  515.84   16.92
  -8  -4  -2  529.67   18.60
  -8  -4  -2  519.92   19.01
   8   4   3  167.28    7.10
   8   4   3  161.45    4.54
  -8  -4  -3  165.22    5.72
  -8  -4  -3  165.49    5.48
   8   4   4   29.76    2.11
   8   4   4   22.51    1.35
  -8  -4  -4   24.06    1.61
  -8  -4  -4   22.59    0.81
   8   4   5  192.69    7.21
   8   4   5  201.11    7.84
  -8  -4  -5  182.44    5.05
  -8  -4  -5  205.55    7.62
   8   4   6  148.34    5.69
   8   4   6  141.30    5.82
  -8  -4  -6  126.11    3.37
  -8  -4  -6  143.08    5.79
   8   4   7  239.34    9.91
  -8  -4  -7  225.45    6.44
  -8  -4  -7  249.68    8.95
   8   4   8  157.81    6.12
  -8  -4  -8  146.38    4.32
  -8  -4  -8  178.12    7.71
   8   4   9  102.85    6.14
   8   4   9   95.18    5.06
  -8  -4  -9   94.30    5.34
   8   4  10    4.20    1.46
   8   4  10    7.47    1.75
  -8  -4 -10    7.52    1.17
   8   4  11  122.23    7.83
   8   4  11  124.60    6.97
  -8  -4 -11  123.01    6.14
   8   4  12   92.40    6.74
   8   4  12   94.32    5.94
  -8  -4 -12   89.02    5.04
   8   4  13  113.39    8.42
   8   4  13  121.74    7.58
   8   4  14   -0.65    1.62
   8   4  14    3.00    1.41
   8   4  15   24.75    4.02
   8   4  15   27.91    3.43
  -8  -4 -15   39.27    4.57
   8   4  16  164.47   12.42
   8   4  16  130.86   10.47
  -8  -4 -16  160.82   12.49
  -8  -5  13  127.60   10.20
  -8  -5  12    9.38    2.55
   8   5 -11   58.65    4.99
  -8  -5  11   77.68    7.20
   8   5 -10  150.47    7.44
   8   5 -10  168.58   11.66
  -8  -5  10  178.00   10.12
   8   5  -9  177.88    9.44
   8   5  -9  190.55   11.80
  -8  -5   9  184.00   10.02
   8   5  -8  487.89   21.01
   8   5  -8  487.86   25.70
  -8  -5   8  529.83   25.58
   8   5  -7  103.76    5.79
   8   5  -7  100.75    6.54
  -8  -5   7  112.06    7.19
   8   5  -6   19.48    2.23
   8   5  -6   20.19    2.52
  -8  -5   6   25.36    2.76
   8   5  -5  162.07    7.00
   8   5  -5  149.06    7.10
  -8  -5   5  138.10    4.24
  -8  -5   5  162.45    6.90
   8   5  -4  386.00   15.64
   8   5  -4  372.40   15.27
  -8  -5   4  364.39   11.49
  -8  -5   4  397.47   15.86
   8   5  -3  154.94    6.57
   8   5  -3  154.74    6.32
  -8  -5   3  150.26    4.30
  -8  -5   3  157.71    6.38
   8   5  -2   87.54    3.57
   8   5  -2   84.06    3.76
  -8  -5   2   84.71    2.56
   8   5  -1    6.17    0.82
   8   5  -1    4.64    0.86
  -8  -5   1    3.37    0.56
   8   5   0   51.27    2.65
   8   5   0   45.15    1.82
  -8  -5   0   39.47    1.73
   8   5   1  177.52    6.31
   8   5   1  178.26    5.62
  -8  -5  -1  175.94    5.48
   8   5   2    1.88    0.86
   8   5   2    1.26    0.49
  -8  -5  -2    1.35    0.55
   8   5   3 2070.81  104.82
   8   5   3 2222.22  127.71
  -8  -5  -3 2254.05  119.70
  -8  -5  -3 2239.09  124.67
   8   5   4    2.32    1.02
   8   5   4    2.89    0.36
  -8  -5  -4    2.47    0.73
  -8  -5  -4    3.99    0.94
   8   5   5    6.42    1.25
   8   5   5    7.02    1.11
  -8  -5  -5    4.76    0.38
  -8  -5  -5    6.63    0.91
   8   5   6   79.13    3.20
  -8  -5  -6   70.33    1.73
  -8  -5  -6   83.10    3.58
   8   5   7  289.41   11.89
  -8  -5  -7  248.23    6.35
  -8  -5  -7  305.45   11.57
   8   5   8  370.97   16.17
  -8  -5  -8  390.53   16.28
   8   5   9  319.30   15.24
   8   5   9  308.92   12.63
  -8  -5  -9  320.08   12.69
   8   5  10   40.60    2.58
   8   5  10   27.95    2.99
  -8  -5 -10   35.39    2.35
   8   5  11   10.43    2.06
   8   5  11    7.47    1.91
  -8  -5 -11   11.51    1.90
   8   5  12    2.82    1.59
   8   5  12    3.61    1.49
  -8  -5 -12    3.47    1.55
   8   5  13  305.59   17.74
   8   5  13  315.75   17.87
  -8  -5 -13  345.40   19.54
   8   5  14  224.17   14.32
   8   5  14  225.02   14.31
   8   5  15    7.26    2.43
   8   5  15    7.64    1.79
   8   5  16   47.91    5.39
   8   5  16   39.72    5.22
   8   6 -12   45.60    5.39
  -8  -6  12   56.71    7.14
   8   6 -11    7.68    2.26
   8   6 -11    7.39    2.84
  -8  -6  11    7.38    2.28
   8   6 -10  415.71   22.84
   8   6 -10  437.66   23.86
  -8  -6  10  448.14   27.85
   8   6  -9   13.27    2.53
   8   6  -9   15.52    2.32
  -8  -6   9   16.55    2.42
   8   6  -8  917.40   48.35
   8   6  -8  938.80   48.98
  -8  -6   8  998.76   57.08
   8   6  -7  242.98   10.55
   8   6  -7  249.84   13.42
  -8  -6   7  257.54   14.62
   8   6  -6  390.78   18.40
   8   6  -6  387.34   16.76
  -8  -6   6  409.75   20.70
   8   6  -5   78.02    4.84
   8   6  -5   72.43    3.92
  -8  -6   5  104.52    4.47
   8   6  -4  133.05    5.47
   8   6  -4  133.14    6.15
  -8  -6   4  140.70    7.50
   8   6  -3  217.12    9.50
   8   6  -3  211.39    8.49
  -8  -6   3  226.25   10.50
  -8  -6   3  201.34    5.44
   8   6  -2  187.70    7.00
   8   6  -2  192.54    7.32
  -8  -6   2  195.26    8.88
  -8  -6   2  182.97    4.88
   8   6  -1  103.55    4.97
   8   6  -1  101.62    3.86
  -8  -6   1   98.69    2.84
  -8  -6   1  105.10    5.34
   8   6   0  617.62   25.73
   8   6   0  589.16   21.37
  -8  -6   0  613.48   20.25
  -8  -6   0  627.91   25.18
   8   6   1   15.28    1.73
   8   6   1   13.77    0.91
  -8  -6  -1   15.82    0.96
   8   6   2    8.61    1.02
   8   6   2    6.56    0.62
  -8  -6  -2    7.29    0.77
   8   6   3  265.84    9.59
   8   6   3  245.52    6.77
  -8  -6  -3  272.08    8.55
   8   6   4  388.80   14.41
   8   6   4  365.84    9.92
  -8  -6  -4  385.69   13.25
   8   6   5  175.36    7.52
  -8  -6  -5  163.28    3.91
  -8  -6  -5  179.94    6.54
   8   6   6 1362.28   70.59
  -8  -6  -6 1370.46   65.88
   8   6   7   12.29    1.60
  -8  -6  -7   10.35    1.39
   8   6   8  662.14   28.94
   8   6   8  682.08   32.04
  -8  -6  -8  695.18   30.43
   8   6   9  373.40   17.63
   8   6   9  378.09   17.78
  -8  -6  -9  416.50   17.83
   8   6  10   72.79    5.11
   8   6  10   80.96    3.87
  -8  -6 -10   67.72    3.72
   8   6  11   78.80    4.81
   8   6  11   99.90    4.55
  -8  -6 -11   95.36    5.61
   8   6  12  148.23    8.96
   8   6  12  143.71    9.02
  -8  -6 -12  158.14    9.11
   8   6  13  115.55    6.79
   8   6  13   93.92    5.98
  -8  -6 -13  100.74    6.07
   8   6  14    2.15    1.13
   8   6  14    1.06    1.57
  -8  -6 -14    1.72    1.61
   8   6  15   27.81    2.86
   8   6  15   28.57    4.13
  -8  -6 -15   27.51    3.14
   8   6  16   95.13    8.25
   8   6  16   86.30    8.01
   8   6  17   37.35    4.83
   8   6  17   35.29    4.19
   8   7 -12   84.88    8.47
   8   7 -12  113.40   10.81
  -8  -7  12   88.93    8.30
   8   7 -11    4.38    2.21
   8   7 -11    3.99    2.09
  -8  -7  11    8.07    2.75
   8   7 -10   57.98    4.54
   8   7 -10   74.54    6.84
  -8  -7  10   55.59    5.43
   8   7  -9    3.88    1.64
   8   7  -9    2.25    1.38
  -8  -7   9    1.02    1.97
   8   7  -8  126.77    6.97
   8   7  -8  141.80    9.65
  -8  -7   8  144.55   10.16
   8   7  -7   27.09    2.54
   8   7  -7   29.82    3.35
  -8  -7   7   30.10    3.00
   8   7  -6  837.19   43.77
   8   7  -6  846.01   40.35
  -8  -7   6  895.14   48.39
   8   7  -5  644.15   29.00
   8   7  -5  670.62   31.83
  -8  -7   5  693.65   32.58
   8   7  -4  353.04   14.52
   8   7  -4  350.57   15.32
  -8  -7   4  370.66   17.90
   8   7  -3   33.02    3.01
   8   7  -3   33.23    2.41
  -8  -7   3   38.40    3.13
   8   7  -2    8.31    1.59
   8   7  -2    9.77    1.25
  -8  -7   2    8.42    1.74
   8   7  -1  777.01   35.16
   8   7  -1  748.42   29.85
  -8  -7   1  753.41   24.62
  -8  -7   1  824.71   37.91
   8   7   0  146.22    5.83
   8   7   0  143.99    5.00
  -8  -7   0  145.77    3.87
  -8  -7   0  149.21    6.13
   8   7   1   16.69    1.45
   8   7   1   15.42    1.05
  -8  -7  -1   15.46    0.85
  -8  -7  -1   15.02    1.89
   8   7   2  254.52   10.57
   8   7   2  244.14    7.15
  -8  -7  -2  246.35    7.39
  -8  -7  -2  250.61   10.60
   8   7   3  333.98   12.48
   8   7   3  314.75    8.85
  -8  -7  -3  336.55   10.74
   8   7   4  324.67   13.28
   8   7   4  284.34    7.20
  -8  -7  -4  300.95   10.17
   8   7   5    4.16    0.95
  -8  -7  -5    5.77    0.87
   8   7   6   12.15    1.76
  -8  -7  -6   12.13    0.97
   8   7   7   27.22    2.65
   8   7   7   28.51    2.01
  -8  -7  -7   28.58    1.97
   8   7   8  202.11    9.87
   8   7   8  214.48   10.40
  -8  -7  -8  209.83    7.54
   8   7   9   10.84    1.84
   8   7   9    9.99    1.39
  -8  -7  -9   10.17    1.59
   8   7  10   12.37    2.23
   8   7  10   14.42    1.69
  -8  -7 -10   19.27    2.02
   8   7  11    4.67    1.60
   8   7  11    3.88    1.30
  -8  -7 -11    7.30    1.22
   8   7  12   55.09    3.55
   8   7  12   50.28    4.61
  -8  -7 -12   56.85    4.48
   8   7  13   23.21    2.88
   8   7  13   19.96    2.43
  -8  -7 -13   19.31    2.30
   8   7  14    2.24    1.41
   8   7  14    2.35    1.62
  -8  -7 -14    1.42    1.23
   8   7  15  247.05   15.77
   8   7  15  279.08   18.52
  -8  -7 -15  288.84   18.45
   8   7  16   70.29    6.23
   8   7  16   60.99    5.54
  -8  -7 -16   85.21    7.52
   8   7  17   63.90    4.95
   8   7  17   71.17    6.09
   8   8 -11   84.44    6.78
   8   8 -11   96.14    9.86
  -8  -8  11   86.39    8.31
   8   8 -10   11.31    2.26
   8   8 -10   10.16    3.37
  -8  -8  10   14.03    3.60
   8   8  -9  486.63   28.74
   8   8  -9  507.79   27.79
  -8  -8   9  522.08   32.91
   8   8  -8   21.98    2.66
   8   8  -8   21.85    3.64
  -8  -8   8   26.24    3.98
   8   8  -7  738.99   41.58
   8   8  -7  751.80   41.91
  -8  -8   7  766.61   44.17
   8   8  -6  192.66    9.45
   8   8  -6  196.74   11.19
  -8  -8   6  201.76   10.58
   8   8  -5   23.57    3.00
   8   8  -5   20.90    2.62
  -8  -8   5   24.60    2.45
   8   8  -4  127.99    6.29
   8   8  -4  133.40    6.81
  -8  -8   4  143.12    8.29
   8   8  -3  686.06   30.57
   8   8  -3  679.74   29.62
  -8  -8   3  703.46   32.33
   8   8  -2  349.27   15.98
   8   8  -2  336.95   13.22
  -8  -8   2  346.98   16.57
   8   8  -1   71.64    4.47
   8   8  -1   69.37    3.18
  -8  -8   1   70.05    3.70
   8   8   0  192.80    8.70
   8   8   0  189.64    6.37
  -8  -8   0  173.11    4.36
  -8  -8   0  196.93    7.96
   8   8   1 1234.44   59.52
   8   8   1 1196.99   51.28
  -8  -8  -1 1198.26   47.04
  -8  -8  -1 1302.18   63.94
   8   8   2   91.47    4.04
   8   8   2   84.28    2.46
  -8  -8  -2   86.57    2.64
  -8  -8  -2   91.42    4.07
   8   8   3    9.39    1.45
   8   8   3    5.98    0.62
  -8  -8  -3    7.59    0.72
  -8  -8  -3    9.73    1.15
   8   8   4  521.59   15.54
  -8  -8  -4  560.16   23.48
  -8  -8  -4  548.07   19.36
   8   8   5  238.41    4.76
  -8  -8  -5  402.56   11.55
   8   8   6  147.00    6.07
  -8  -8  -6  135.92    5.32
   8   8   7   57.03    3.94
   8   8   7   54.68    3.18
  -8  -8  -7   58.00    3.08
   8   8   8   11.16    1.82
   8   8   8   11.40    1.92
  -8  -8  -8   12.55    1.51
   8   8   9   96.88    4.87
   8   8   9  100.52    6.32
  -8  -8  -9  107.55    5.37
   8   8  10 1080.11   53.17
   8   8  10 1056.47   57.79
  -8  -8 -10 1071.51   51.15
   8   8  11    3.45    1.12
   8   8  11    5.03    1.68
  -8  -8 -11    5.07    1.10
   8   8  12   17.63    1.87
   8   8  12   17.66    2.12
  -8  -8 -12   16.72    1.93
   8   8  13  176.06   10.59
   8   8  13  192.73   12.25
  -8  -8 -13  193.52    9.82
   8   8  14  309.69   17.33
   8   8  14  313.69   19.84
  -8  -8 -14  328.49   17.15
   8   8  15   14.88    2.09
   8   8  15   18.03    3.54
  -8  -8 -15   17.98    3.35
   8   8  16    1.06    1.66
   8   8  16    3.00    2.17
  -8  -8 -16    5.27    2.16
   8   8  17   12.17    3.03
   8   8  17   17.41    3.08
  -8  -8 -17   18.93    4.04
   8   9 -10   44.89    6.12
   8   9 -10   43.25    6.57
  -8  -9  10   43.52    7.03
   8   9  -9   25.70    4.32
   8   9  -9   21.52    4.24
  -8  -9   9   22.87    3.53
   8   9  -8  299.23   16.49
   8   9  -8  301.47   17.12
  -8  -9   8  317.99   18.30
   8   9  -7  257.13   15.86
   8   9  -7  256.44   16.09
  -8  -9   7  256.41   14.40
   8   9  -6 1284.78   78.64
   8   9  -6 1277.48   75.65
  -8  -9   6 1310.91   80.69
   8   9  -5   29.22    2.87
   8   9  -5   34.14    3.29
  -8  -9   5   34.08    4.01
   8   9  -4   23.19    3.12
   8   9  -4   27.25    2.60
  -8  -9   4   23.31    3.44
   8   9  -3  218.14    9.97
   8   9  -3  210.74    9.61
  -8  -9   3  213.20   10.02
   8   9  -2  235.03   11.58
   8   9  -2  212.99    9.23
  -8  -9   2  229.59   10.51
   8   9  -1   57.23    3.08
   8   9  -1   47.36    2.67
  -8  -9   1   52.41    4.11
   8   9   0  171.79    7.32
   8   9   0  164.77    6.03
  -8  -9   0  175.10    7.59
   8   9   1  191.01    7.67
   8   9   1  173.37    5.58
  -8  -9  -1  197.07    8.27
   8   9   2   84.52    4.73
   8   9   2   73.50    2.31
  -8  -9  -2   69.93    2.01
  -8  -9  -2   93.74    4.83
   8   9   3  133.29    6.59
   8   9   3  121.99    3.19
  -8  -9  -3  117.67    3.61
  -8  -9  -3  129.95    5.75
   8   9   4  198.63    5.10
  -8  -9  -4  208.39    6.75
  -8  -9  -4  217.89    9.13
  -8  -9  -5   82.70    3.26
  -8  -9  -5   86.86    4.32
   8   9   6   11.99    1.37
   8   9   6    8.68    1.41
  -8  -9  -6   11.09    1.11
   8   9   7  932.77   44.42
   8   9   7  986.71   49.14
  -8  -9  -7  960.74   43.22
   8   9   8  200.60   10.17
   8   9   8  215.64    9.59
  -8  -9  -8  207.30    7.70
   8   9   9    0.97    1.18
   8   9   9    2.80    1.33
  -8  -9  -9    2.52    1.02
   8   9  10  115.07    6.68
   8   9  10  114.79    7.55
  -8  -9 -10  121.97    6.63
   8   9  11  147.18    8.11
   8   9  11  147.85    7.84
  -8  -9 -11  152.61    7.03
   8   9  12  631.38   33.06
   8   9  12  687.39   38.69
  -8  -9 -12  685.22   35.41
   8   9  13   31.11    3.15
   8   9  13   29.75    3.00
  -8  -9 -13   26.15    3.61
   8   9  14  152.45    9.89
   8   9  14  174.43   10.74
  -8  -9 -14  166.82   11.56
   8   9  15    1.86    1.50
   8   9  15    2.87    1.51
  -8  -9 -15    2.75    1.87
   8   9  16   49.13    5.01
   8   9  16   57.60    5.37
  -8  -9 -16   58.05    5.09
   8   9  17   38.43    4.42
   8   9  17   42.54    6.27
  -8  -9 -17   44.47    4.87
   8  10  -9   69.74    8.16
   8  10  -9   71.83    8.53
  -8 -10   9   76.54    6.87
   8  10  -8    2.30    2.47
   8  10  -8    5.95    2.26
  -8 -10   8    4.44    2.54
   8  10  -7   23.29    3.08
   8  10  -7   19.91    3.52
  -8 -10   7   18.68    4.09
   8  10  -6  500.91   27.02
   8  10  -6  486.24   27.45
  -8 -10   6  494.87   27.53
   8  10  -5  541.74   27.26
   8  10  -5  492.61   26.28
  -8 -10   5  533.57   27.71
   8  10  -4   57.23    4.50
   8  10  -4   68.82    4.71
  -8 -10   4   74.52    4.68
   8  10  -3  120.05    7.98
   8  10  -3  117.16    6.18
  -8 -10   3  129.57    8.45
   8  10  -2   76.58    5.58
   8  10  -2   60.66    3.81
  -8 -10   2   85.40    4.41
   8  10  -1   49.12    3.14
   8  10  -1   33.49    2.44
  -8 -10   1   56.67    3.16
   8  10   0  229.70   11.56
   8  10   0  208.29    7.49
  -8 -10   0  226.32   11.81
   8  10   1   21.36    2.48
   8  10   1   16.32    1.15
  -8 -10  -1   23.35    1.87
   8  10   2    8.23    0.70
   8  10   2    6.03    1.79
  -8 -10  -2   11.45    1.36
   8  10   3  171.85    4.56
  -8 -10  -3  162.36    4.58
  -8 -10  -3  196.54    9.54
   8  10   4   29.37    1.00
  -8 -10  -4   34.34    2.40
  -8 -10  -4   28.64    1.27
   8  10   5  138.06    7.30
  -8 -10  -5  121.72    4.50
  -8 -10  -5  140.08    7.61
   8  10   6  366.58   17.02
   8  10   6  364.21   15.84
  -8 -10  -6  334.37   12.62
   8  10   7   17.05    1.86
   8  10   7   20.28    2.03
  -8 -10  -7   22.29    1.66
   8  10   8    6.97    1.31
   8  10   8    7.75    1.87
  -8 -10  -8    8.13    1.26
   8  10   9    3.10    0.98
   8  10   9    3.05    1.50
  -8 -10  -9    2.37    0.79
   8  10  10    3.29    1.67
   8  10  10   10.09    1.49
  -8 -10 -10    6.15    1.11
   8  10  11   27.31    2.74
   8  10  11   25.43    3.42
  -8 -10 -11   24.38    2.75
   8  10  12    7.34    1.76
   8  10  12   10.29    2.26
  -8 -10 -12    7.17    1.47
   8  10  13  416.97   22.15
   8  10  13  454.49   24.54
  -8 -10 -13  448.54   24.75
   8  10  14  324.85   18.42
   8  10  14  371.46   20.89
  -8 -10 -14  351.56   18.60
   8  10  15   35.01    3.84
   8  10  15   35.80    4.12
  -8 -10 -15   39.21    4.81
   8  10  16  184.48   12.57
   8  10  16  223.89   17.14
  -8 -10 -16  219.74   16.01
   8  10  17  132.93   10.20
   8  10  17  169.46   14.65
  -8 -10 -17  167.48   11.58
   8  11  -8  289.37   22.04
   8  11  -8  273.83   17.44
  -8 -11   8  295.27   22.21
   8  11  -7  378.16   22.49
   8  11  -7  355.78   20.61
  -8 -11   7  386.55   26.04
   8  11  -6  497.41   32.06
   8  11  -6  475.28   28.60
  -8 -11   6  491.58   28.35
   8  11  -5   57.68    6.35
   8  11  -5   62.36    4.05
  -8 -11   5   63.35    6.49
   8  11  -4   18.72    3.39
   8  11  -4   16.28    2.68
  -8 -11   4   20.39    3.41
   8  11  -3    7.25    2.11
   8  11  -3    4.44    1.51
  -8 -11   3    6.55    2.05
   8  11  -2  112.27    8.11
   8  11  -2   98.91    5.58
  -8 -11   2  110.63    6.44
   8  11  -1  169.60    9.98
   8  11  -1  144.18    6.95
  -8 -11   1  159.93    8.36
   8  11   0   48.37    4.42
   8  11   0   40.33    2.59
  -8 -11   0   61.32    3.47
   8  11   1   19.11    2.50
   8  11   1   12.88    1.30
  -8 -11  -1   19.90    2.45
   8  11   2  205.42    6.66
  -8 -11  -2  229.60   10.44
  -8 -11  -3   11.61    1.60
   8  11   4  429.85   12.53
  -8 -11  -4  521.49   24.12
   8  11   5    3.15    1.18
   8  11   5    1.26    0.24
  -8 -11  -5    1.38    0.55
  -8 -11  -5    2.94    1.24
   8  11   6   32.69    3.21
   8  11   6   39.38    2.65
  -8 -11  -6   27.51    1.58
   8  11   7   76.44    5.00
   8  11   7   88.20    5.49
  -8 -11  -7   60.76    3.28
   8  11   8  461.30   20.66
   8  11   8  479.01   22.87
  -8 -11  -8  427.45   19.00
   8  11   9   29.23    2.52
   8  11   9   39.25    3.87
  -8 -11  -9   35.67    2.59
   8  11  10  130.15    7.54
   8  11  10  129.29    8.48
  -8 -11 -10  112.95    6.49
   8  11  11  183.76   10.13
   8  11  11  203.74   10.76
  -8 -11 -11  194.81   10.56
   8  11  12   -0.49    1.16
   8  11  12    0.24    1.13
  -8 -11 -12    3.85    1.22
   8  11  13   41.84    3.86
   8  11  13   49.23    5.26
  -8 -11 -13   44.52    4.42
   8  11  14   37.69    3.91
   8  11  14   45.36    5.34
  -8 -11 -14   44.03    4.78
   8  11  15    3.89    1.83
   8  11  15    6.79    1.96
  -8 -11 -15    5.75    1.74
   8  11  16   33.59    3.87
   8  11  16   39.24    4.61
  -8 -11 -16   45.41    5.53
   8  11  17  125.97    9.32
   8  11  17  147.19   13.98
  -8 -11 -17  157.92   10.45
   8  12  -7   24.47    3.89
   8  12  -7   16.14    4.21
  -8 -12   7   21.67    4.71
   8  12  -6   70.83    7.67
   8  12  -6   59.62    6.49
  -8 -12   6   70.73    7.63
   8  12  -5  436.62   25.98
   8  12  -5  407.04   21.58
  -8 -12   5  431.89   24.78
   8  12  -4  265.12   15.57
   8  12  -4  252.20   15.32
  -8 -12   4  269.19   15.71
   8  12  -3  121.99    7.78
   8  12  -3  113.05    7.19
  -8 -12   3  124.00    7.92
   8  12  -2    1.47    1.74
   8  12  -2    1.42    1.18
  -8 -12   2    5.06    1.69
   8  12  -1   31.79    4.01
   8  12  -1   27.77    2.55
  -8 -12   1   37.17    3.05
   8  12   0  112.47    7.86
   8  12   0  100.56    4.98
  -8 -12   0  120.58    8.05
   8  12   1  298.65   11.85
  -8 -12  -1  333.64   15.74
   8  12   2  178.23    6.23
  -8 -12  -2  220.28   11.84
   8  12   3    8.72    0.71
  -8 -12  -3    9.65    1.60
   8  12   4    6.20    1.24
   8  12   4    3.56    0.55
  -8 -12  -4    6.02    1.25
   8  12   5    5.92    1.54
   8  12   5    3.58    0.38
  -8 -12  -5    5.69    1.22
   8  12   6   98.07    6.09
   8  12   7  297.64   13.02
  -8 -12  -7  261.00   10.73
   8  12   8   20.96    2.46
  -8 -12  -8   15.26    1.69
   8  12   9   36.05    3.40
   8  12   9   36.84    4.04
  -8 -12  -9   27.71    2.60
   8  12  10   32.67    2.98
   8  12  10   27.95    2.92
  -8 -12 -10   24.41    2.07
   8  12  11    3.57    1.39
   8  12  11    2.09    1.39
  -8 -12 -11    3.85    1.37
   8  12  12   26.73    2.90
   8  12  12   27.70    3.00
  -8 -12 -12   22.71    2.23
   8  12  13  183.65   10.63
   8  12  13  197.03   11.71
  -8 -12 -13  176.60    9.82
   8  12  14  188.66   11.18
   8  12  14  217.12   12.99
  -8 -12 -14  184.62   10.86
   8  12  15   16.84    2.75
   8  12  15   26.38    4.20
  -8 -12 -15   19.73    2.96
   8  12  16    8.85    3.03
   8  12  16   30.81    3.60
  -8 -12 -16   28.51    4.26
   8  12  17   10.90    2.43
   8  12  17   10.82    3.86
  -8 -12 -17   14.18    3.75
   8  13  -5   54.71    6.54
   8  13  -5   56.82    6.45
  -8 -13   5   75.50    5.82
   8  13  -4   21.33    3.53
   8  13  -4   15.97    3.36
  -8 -13   4   30.41    4.28
   8  13  -3    0.91    1.44
   8  13  -3    1.97    1.33
  -8 -13   3    1.68    1.77
   8  13  -2  217.83   12.90
   8  13  -2  188.54   11.14
  -8 -13   2  225.87   14.85
   8  13  -1   21.03    3.67
   8  13  -1   20.24    2.21
  -8 -13   1   17.43    2.55
   8  13   0  102.84    8.18
   8  13   0   90.52    5.03
  -8 -13   0  110.10    7.80
   8  13   1  147.80    6.55
  -8 -13  -1  172.76   10.79
   8  13   2   79.08    3.51
  -8 -13  -2   88.14    5.27
   8  13   3    3.62    1.20
   8  13   3    1.78    0.62
  -8 -13  -3    1.82    1.52
   8  13   4   68.61    4.60
  -8 -13  -4   78.54    4.62
   8  13   5   78.86    6.07
   8  13   6  102.56    7.17
   8  13   6  105.56    7.46
   8  13   7  166.28   10.10
   8  13   8   77.24    5.18
  -8 -13  -8   55.01    3.27
   8  13   9  158.66    9.12
  -8 -13  -9  130.80    6.83
   8  13  10  124.76    7.08
  -8 -13 -10   91.00    5.86
   8  13  11   76.08    5.64
   8  13  11   79.35    7.00
  -8 -13 -11   70.67    5.07
   8  13  12    5.12    1.73
   8  13  12    5.44    1.78
  -8 -13 -12    6.62    1.76
   8  13  13   99.60    7.00
   8  13  13  123.04    7.77
  -8 -13 -13  104.91    7.87
   8  13  14  200.87   12.23
   8  13  14  237.32   17.10
  -8 -13 -14  215.53   14.37
   8  13  15  151.40   10.00
   8  13  15  185.98   14.56
  -8 -13 -15  170.31   11.03
   8  13  16    0.41    1.25
   8  13  16    1.30    1.50
  -8 -13 -16    1.35    1.44
   8  13  17    6.85    2.10
   8  13  17   10.04    3.61
  -8 -13 -17    8.14    2.61
   8  14  -4   49.90    5.40
   8  14  -4   33.68    4.04
  -8 -14   4   55.04    6.28
   8  14  -3   46.71    6.97
   8  14  -3   49.77    4.68
  -8 -14   3   48.43    4.75
   8  14  -2    2.51    1.73
   8  14  -2    3.60    1.40
  -8 -14   2    1.35    1.45
   8  14  -1  111.72   10.36
   8  14  -1   98.47    6.69
  -8 -14   1  119.95    9.45
   8  14   0    3.44    1.14
  -8 -14   0    1.79    1.42
   8  14   1   33.53    2.26
  -8 -14  -1   48.80    4.68
   8  14   2    5.89    1.09
  -8 -14  -2    8.28    2.27
   8  14   3    6.54    1.91
   8  14   3    2.91    0.77
  -8 -14  -3    5.13    1.84
   8  14   4   71.07    6.15
  -8 -14  -4   69.58    4.82
   8  14   5   56.79    5.61
   8  14   5   59.86    4.59
   8  14   6   35.02    4.19
   8  14   6   34.37    3.45
   8  14   7   89.65    5.97
   8  14   7  109.42    6.59
   8  14   8  117.55    8.01
   8  14   8  109.32    9.02
   8  14   9  100.91    7.56
   8  14   9  103.43    8.61
   8  14  10  115.97    7.15
  -8 -14 -10   97.51    5.80
   8  14  11   21.80    3.07
  -8 -14 -11   21.05    2.72
   8  14  12  188.88   11.52
  -8 -14 -12  187.70   11.74
   8  14  13    8.27    2.11
  -8 -14 -13   11.55    2.42
   8  14  14   16.05    2.79
   8  14  14   20.24    3.26
  -8 -14 -14   19.22    2.69
   8  14  15   47.41    4.66
   8  14  15   63.20    7.52
  -8 -14 -15   50.60    5.91
   8  14  16   19.50    3.13
   8  14  16   25.11    3.93
  -8 -14 -16   25.44    3.49
   8  15  -2  133.69   10.51
   8  15  -2  127.68    8.57
  -8 -15   2  112.88   11.55
   8  15  -1   78.87    5.75
  -8 -15   1   78.23    8.23
   8  15   0   94.18    5.93
  -8 -15   0  102.89    9.26
   8  15   1    9.25    1.65
  -8 -15  -1   12.01    2.86
   8  15   2   44.16    5.13
   8  15   2   29.45    2.52
  -8 -15  -2   43.97    4.83
   8  15   3    1.52    1.71
  -8 -15  -3    0.95    1.61
   8  15   4    8.56    2.51
  -8 -15  -4    6.34    2.46
   8  15   5   16.11    3.28
   8  15   5   21.61    3.41
   8  15   6    4.19    1.78
   8  15   6    1.47    1.44
   8  15   7  251.84   16.18
   8  15   7  247.28   17.03
   8  15   8  168.57   10.14
   8  15   8  190.16   11.35
   8  15   9  123.56    9.02
   8  15   9  125.58   10.16
   8  15  10   84.34    7.12
   8  15  10  100.51    6.99
   8  15  11   27.54    3.58
   8  15  11   27.83    4.62
   8  15  12    1.93    1.26
   8  15  12   -1.29    1.64
  -8 -15 -12    0.65    1.18
   8  15  13    0.95    1.47
  -8 -15 -13    3.51    1.60
   8  15  14   21.25    2.95
  -8 -15 -14   19.63    3.64
   8  15  15   89.73    7.23
  -8 -15 -15  103.92    7.08
  -8 -15 -16   15.81    3.86
   8  16  -1   48.70    4.55
  -8 -16   1   33.63    6.27
   8  16   0  107.52    7.16
  -8 -16   0  102.43   10.58
   8  16   1  253.59   17.11
  -8 -16  -1  229.07   14.67
   8  16   2  190.75   13.15
  -8 -16  -2  179.40   14.07
   8  16   3  171.27   11.66
  -8 -16  -3  171.25   12.78
   8  16   4   87.90    5.46
   8  16   4   17.19    2.60
   8  16   5    3.96    2.21
   8  16   5    4.46    1.62
   8  16   6   34.05    4.55
   8  16   6   26.03    4.72
   8  16   7    7.31    2.48
   8  16   7    7.03    2.61
   8  16   8  109.87    9.03
   8  16   8  111.58    9.77
   8  16   9   53.07    5.52
   8  16   9   54.05    5.22
   8  16  10   22.52    3.51
   8  16  10   21.96    4.18
   8  16  11   17.21    3.12
   8  16  11   19.30    3.05
   8  16  12   16.15    2.79
   8  16  12   15.05    3.87
   8  16  13    4.64    1.36
   8  16  13    2.56    2.68
   8  16  14   34.06    3.68
   8  16  14   40.27    4.53
  -8 -16 -14   22.78    3.57
   8  16  15   62.99    5.81
   8  16  15   65.54    9.24
  -8 -16 -15   75.52    7.48
   8  17   2  185.36   13.98
  -8 -17  -2  179.42   15.04
   8  17   3   46.79    5.37
   8  17   4   86.15    7.32
   8  17   4   75.06    7.79
   8  17   5   39.80    6.15
   8  17   5   49.08    5.69
   8  17   6   10.84    3.11
   8  17   6   11.58    3.13
   8  17   7   13.67    3.44
   8  17   7   14.88    3.43
   8  17   8   12.87    2.45
   8  17   8   14.78    3.61
   8  17   9   21.16    3.74
   8  17   9   20.83    4.19
   8  17  10   20.21    3.90
   8  17  10   29.26    3.65
   8  17  11   42.78    5.13
   8  17  11   49.13    6.39
   8  17  12    9.56    2.49
   8  17  12    9.63    3.41
   8  17  13    1.03    1.43
   8  17  13    1.47    2.09
   8  17  14    1.45    1.65
   8  17  14    4.54    2.00
   8  18   5  264.23   20.97
   8  18   5  220.76   17.67
   8  18   6   22.17    3.46
   8  18   6   21.66    4.37
   8  18   7   24.05    5.11
   8  18   7   37.13    4.04
   8  18   8   52.37    6.51
   8  18   8  128.40    9.22
   8  18   9  149.61   11.99
   8  18   9  184.51   15.03
   8  18  10   28.66    4.39
   8  18  10   27.43    3.96
   8  18  11   62.81    6.63
   8  18  11   66.20    6.66
   8  18  12    6.94    1.77
   8  18  12    6.11    2.42
  -9  12   9   31.89    6.40
  -9  12   9   33.88    6.36
  -9  12   8   10.98    3.19
  -9  12   8   14.88    3.24
  -9  12   7    5.88    2.44
  -9  12   7    6.54    2.41
  -9  12   6   20.75    4.86
  -9  12   5   22.32    4.59
  -9  12   4    4.27    2.50
   9 -11 -12   59.34    6.88
   9 -11 -11    2.97    2.74
   9 -11 -10   10.90    2.91
  -9  11  10   11.29    3.11
  -9  11   9  225.76   19.69
  -9  11   8    8.39    3.52
  -9  11   8   10.56    2.74
  -9  11   7    7.04    2.34
  -9  11   6    4.81    2.01
  -9  11   5    4.54    2.54
  -9  11   4    2.45    2.77
  -9  11   4    6.40    1.93
  -9  11   3   39.75    5.40
  -9  11   3   53.27    5.99
  -9  11   2    7.26    2.86
  -9  11   2    6.12    2.63
  -9  11   1   68.40    9.22
  -9  11   1   82.40    7.86
   9 -10 -13   12.79    3.13
  -9  10  13    9.88    3.37
   9 -10 -12   20.82    3.95
  -9  10  12   26.24    4.21
   9 -10 -11    6.56    2.60
  -9  10  11    0.73    2.11
   9 -10 -10  203.16   16.73
   9 -10  -9  201.66   16.82
   9 -10  -8  324.65   23.77
  -9  10   8  326.33   20.86
  -9  10   7    6.08    2.15
  -9  10   6   10.62    2.44
  -9  10   5  193.63   13.90
  -9  10   5  167.02   13.36
  -9  10   4  288.34   18.76
  -9  10   4  302.67   17.79
  -9  10   3   49.03    6.72
  -9  10   3   50.96    5.93
  -9  10   2   39.31    5.64
  -9  10   2   66.65    6.15
  -9  10   1   10.71    3.33
  -9  10   1   10.64    3.00
   9 -10   0    2.72    1.68
  -9  10   0    0.71    1.55
  -9  10   0    1.71    1.74
   9 -10   1    5.32    2.39
  -9  10  -1    5.81    1.73
  -9  10  -1    3.88    2.80
   9  -9 -14   29.71    5.28
  -9   9  14   41.47    6.94
  -9   9  14   30.88    4.30
   9  -9 -13   -2.01    1.78
  -9   9  13    1.11    1.83
  -9   9  13    0.39    0.97
   9  -9 -12    2.05    2.30
  -9   9  12    3.02    2.38
  -9   9  12    1.34    1.18
   9  -9 -11   25.32    3.84
  -9   9  11   29.05    5.30
   9  -9 -10   10.36    3.61
  -9   9  10   15.68    3.86
   9  -9  -9   12.03    3.40
   9  -9  -8    7.73    2.25
   9  -9  -7   23.59    4.37
  -9   9   6  765.43   48.12
  -9   9   6  701.94   42.54
  -9   9   5  142.97   10.25
  -9   9   5  150.32   11.77
  -9   9   4   15.11    3.48
  -9   9   4   14.47    3.26
  -9   9   3  205.21   13.25
  -9   9   3  207.51   11.84
   9  -9  -2   14.34    2.49
  -9   9   2   20.92    3.76
  -9   9   2   20.14    3.46
   9  -9  -1   10.14    2.41
  -9   9   1   16.43    3.23
  -9   9   1   12.35    2.93
   9  -9   0   85.36    8.99
  -9   9   0  133.32    9.01
  -9   9   0  136.49    7.88
   9  -9   1    4.83    1.91
  -9   9  -1   11.97    1.82
  -9   9  -1    5.87    2.82
   9  -9   2   18.22    4.09
  -9   9  -2   23.90    3.57
  -9   9  -2   22.89    4.26
   9  -9   3   73.53    6.42
  -9   9  -3   89.96    7.00
  -9   9  -3   74.43    6.52
   9  -8 -15   35.63    7.34
  -9   8  15   30.13    4.76
  -9   8  15   41.70    5.67
   9  -8 -14    6.89    2.79
  -9   8  14    7.57    2.31
  -9   8  14    9.70    2.89
   9  -8 -13   14.77    4.54
  -9   8  13   15.34    4.56
  -9   8  13   19.16    2.84
   9  -8 -12    4.64    2.77
  -9   8  12    4.58    2.12
  -9   8  12    4.05    1.53
   9  -8 -11  186.72   14.23
  -9   8  11  192.38   11.92
  -9   8  11  162.87    9.33
   9  -8 -10   11.14    3.00
  -9   8  10    5.45    1.38
  -9   8  10   10.57    2.24
   9  -8  -9   42.58    4.70
  -9   8   9   60.74    6.06
  -9   8   9   41.74    2.77
   9  -8  -8  388.49   22.55
  -9   8   8  392.84   22.29
   9  -8  -7   49.86    4.63
   9  -8  -6   55.98    5.96
  -9   8   5   31.52    2.35
  -9   8   4    8.14    2.50
  -9   8   4    5.36    2.43
  -9   8   3   34.84    4.65
  -9   8   3   30.04    4.30
   9  -8  -2   11.75    2.18
  -9   8   2   17.12    2.45
  -9   8   2   19.63    2.37
   9  -8  -1   56.47    4.75
  -9   8   1   62.29    4.90
  -9   8   1   70.45    4.63
   9  -8   0   33.60    3.77
  -9   8   0   32.50    3.58
  -9   8   0   39.60    4.40
   9  -8   1  114.09    8.72
  -9   8  -1  122.45    8.47
  -9   8  -1  126.98    8.98
   9  -8   2   51.58    5.97
  -9   8  -2   59.15    5.43
  -9   8  -2   58.76    6.08
   9  -8   3   22.67    4.09
  -9   8  -3   23.83    2.67
  -9   8  -3   18.14    3.93
   9  -8   4   45.93    4.89
  -9   8  -4   47.28    4.88
  -9   8  -4   51.38    5.99
   9  -8   5    7.36    3.09
  -9   8  -5    7.81    2.22
  -9   8  -5    6.23    2.83
   9  -7 -15    6.03    3.52
  -9   7  15    5.06    1.91
  -9   7  15    8.33    2.65
   9  -7 -14   10.33    4.02
  -9   7  14   10.22    2.79
  -9   7  14   11.79    2.98
   9  -7 -13  156.35   14.42
  -9   7  13  127.74    9.85
  -9   7  13  186.72   14.28
   9  -7 -12  208.22   17.08
  -9   7  12  241.01   17.65
  -9   7  12  197.77   12.05
   9  -7 -11    5.29    2.52
  -9   7  11    3.26    2.51
  -9   7  11    4.00    1.41
   9  -7 -10    4.87    2.12
  -9   7  10    9.38    2.86
  -9   7  10    7.82    1.33
   9  -7  -9  318.96   19.98
  -9   7   9  307.42   16.38
  -9   7   9  255.17   11.64
   9  -7  -8  368.72   22.00
  -9   7   8  376.70   22.41
  -9   7   8  301.36   12.12
   9  -7  -7  181.32   11.69
  -9   7   7  175.22    9.83
  -9   7   7  135.99    5.12
   9  -7  -6  147.51    9.02
  -9   7   6  150.85   10.79
   9  -7  -5  848.26   51.12
   9  -7  -3  210.52   10.74
  -9   7   3  254.72   16.00
  -9   7   3  234.77   11.81
   9  -7  -2    5.60    1.54
  -9   7   2    7.38    2.25
  -9   7   2    9.53    2.28
   9  -7  -1   70.19    4.76
  -9   7   1   61.65    6.28
  -9   7   1   66.44    6.01
   9  -7   0  108.35    7.61
  -9   7   0  111.48    8.66
  -9   7   0  130.07    6.98
   9  -7   1  204.44   12.97
  -9   7  -1  213.11   12.18
  -9   7  -1  223.46   10.94
   9  -7   2   82.99    5.65
  -9   7  -2   92.55    6.43
  -9   7  -2   84.60    6.08
   9  -7   3   69.60    7.30
  -9   7  -3   79.73    6.47
  -9   7  -3   86.18    6.13
   9  -7   4    4.72    1.64
  -9   7  -4    3.12    1.35
  -9   7  -4    4.77    1.57
   9  -7   5   38.38    5.26
  -9   7  -5   37.94    4.09
  -9   7  -5   30.55    3.58
   9  -7   6    2.39    1.60
  -9   7  -6    1.10    1.51
  -9   7  -6    0.56    1.37
  -9   7  -6    1.80    1.32
   9  -6 -15  303.02   25.67
  -9   6  15  278.71   20.65
  -9   6  15  286.89   20.76
   9  -6 -14  302.55   20.37
  -9   6  14  272.78   18.95
  -9   6  14  262.97   18.48
   9  -6 -13  298.28   22.70
  -9   6  13  301.69   22.35
  -9   6  13  256.82   16.89
   9  -6 -12   14.90    2.82
  -9   6  12   12.18    2.46
  -9   6  12   14.55    3.64
   9  -6 -11  677.58   39.65
  -9   6  11  705.83   42.80
  -9   6  11  577.30   28.19
   9  -6 -10   16.95    3.29
  -9   6  10   10.94    3.30
  -9   6  10   11.12    1.95
   9  -6  -9    5.22    1.68
  -9   6   9    2.15    2.23
  -9   6   9    4.86    1.10
   9  -6  -8    8.25    1.94
  -9   6   8    7.40    1.95
  -9   6   8    7.29    1.21
   9  -6  -7  180.11   11.44
  -9   6   7  169.26    9.27
  -9   6   7  142.63    5.96
   9  -6  -6   14.93    2.55
  -9   6   6   15.80    2.08
  -9   6   6    8.66    0.99
   9  -6  -5    9.26    2.26
  -9   6   5   12.70    2.34
  -9   6   5    6.62    0.61
   9  -6  -4   12.48    1.82
   9  -6  -4   19.01    3.08
  -9   6   4   20.73    2.34
   9  -6  -3  410.60   18.98
   9  -6  -2   22.11    2.21
  -9   6   2   25.39    3.45
   9  -6  -1  107.81    5.41
  -9   6   1  119.72    6.88
  -9   6   1  128.55    8.01
   9  -6   0   97.16    5.86
  -9   6   0   91.58    6.99
  -9   6   0   98.37    6.76
   9  -6   1    4.10    1.59
  -9   6  -1    4.26    1.76
  -9   6  -1    3.79    1.28
   9  -6   2  186.59   11.58
  -9   6  -2  185.18    9.05
  -9   6  -2  187.92   10.35
   9  -6   3    8.04    1.82
  -9   6  -3    7.35    2.16
  -9   6  -3    9.61    2.22
   9  -6   4   46.02    5.36
  -9   6  -4   46.64    4.53
  -9   6  -4   49.92    4.94
   9  -6   5    4.41    1.97
  -9   6  -5    2.56    1.22
  -9   6  -5    2.66    1.36
   9  -6   6   14.82    3.26
  -9   6  -6    7.50    2.39
  -9   6  -6   11.01    2.03
   9  -6   7   44.13    4.93
  -9   6  -7   40.85    4.01
  -9   6  -7   45.54    4.69
   9  -6   8   24.80    4.29
  -9   6  -8   28.67    3.44
  -9   6  -8   27.63    3.90
   9  -5 -15   56.86    7.88
  -9   5  15   49.32    7.25
  -9   5  15   48.20    6.55
   9  -5 -14    6.24    2.71
  -9   5  14   11.63    2.13
  -9   5  14    7.97    3.36
   9  -5 -13    8.77    3.13
  -9   5  13    5.51    2.26
  -9   5  13    6.83    2.83
   9  -5 -12   83.70    7.37
  -9   5  12   98.94    6.82
  -9   5  12   90.27    6.96
   9  -5 -11    2.78    1.71
  -9   5  11    3.73    2.14
  -9   5  11    3.69    1.49
   9  -5 -10  141.32    8.89
  -9   5  10  146.50   10.68
  -9   5  10  127.10    7.43
   9  -5  -9  434.74   25.93
  -9   5   9  432.93   24.90
  -9   5   9  385.86   18.03
   9  -5  -8  214.05   13.46
  -9   5   8  218.95   11.43
  -9   5   8  197.66    8.97
   9  -5  -7  216.61   13.18
  -9   5   7  208.61   10.67
  -9   5   7  186.25    7.89
   9  -5  -6   39.87    3.30
  -9   5   6   41.35    3.20
  -9   5   6   31.12    1.97
   9  -5  -5    3.49    0.83
   9  -5  -5    2.74    1.32
  -9   5   5    4.10    0.68
  -9   5   5    4.80    1.76
   9  -5  -4   70.49    3.69
  -9   5   4   99.38    4.99
   9  -5  -3   17.32    1.84
  -9   5   3   26.32    2.99
   9  -5  -2  190.09    8.13
  -9   5   2  155.75    4.05
   9  -5  -1    6.67    1.44
  -9   5   1    5.55    1.97
   9  -5   0   37.86    3.22
  -9   5   0   42.11    3.12
   9  -5   1  158.73    9.15
  -9   5  -1  163.29   10.18
  -9   5  -1  166.77    8.21
   9  -5   2    3.18    1.64
  -9   5  -2    3.90    1.29
  -9   5  -2    5.99    1.69
   9  -5   3   70.96    5.51
  -9   5  -3   61.30    5.26
  -9   5  -3   65.76    4.20
   9  -5   4  386.97   23.28
  -9   5  -4  386.00   18.20
  -9   5  -4  381.33   21.91
   9  -5   5    2.61    1.53
  -9   5  -5    4.51    1.63
  -9   5  -5    4.86    1.76
   9  -5   6    2.17    1.57
  -9   5  -6    3.74    1.59
  -9   5  -6    3.45    1.33
   9  -5   7    3.80    1.86
  -9   5  -7    9.19    1.93
  -9   5  -7    1.78    1.91
   9  -5   8   61.55    5.99
  -9   5  -8   65.68    5.99
  -9   5  -8   59.82    5.59
   9  -5   9   38.04    6.64
  -9   5  -9   47.84    5.04
  -9   5  -9   36.70    3.61
   9  -4 -16    3.89    3.16
  -9   4  16    2.60    2.71
  -9   4  16    3.94    2.73
   9  -4 -15    7.53    2.67
  -9   4  15    5.23    2.96
  -9   4  15    5.28    2.81
   9  -4 -14   26.31    3.84
  -9   4  14   24.88    4.21
  -9   4  14   20.43    3.45
   9  -4 -13   53.20    6.25
  -9   4  13   43.36    5.08
  -9   4  13   34.21    4.50
   9  -4 -12  295.74   17.58
  -9   4  12  277.65   14.25
  -9   4  12  288.66   19.30
   9  -4 -11  216.50   15.08
  -9   4  11  202.08   11.63
  -9   4  11  207.48   11.80
   9  -4 -10  147.50   10.79
  -9   4  10  149.51   10.28
  -9   4  10  131.18    7.92
   9  -4  -9   60.64    4.48
  -9   4   9   64.11    4.20
  -9   4   9   45.40    3.08
   9  -4  -8   13.59    2.18
  -9   4   8   12.75    2.65
  -9   4   8   12.35    1.72
   9  -4  -7  373.16   18.37
  -9   4   7  369.96   17.45
  -9   4   7  342.53   14.31
   9  -4  -6  753.21   40.24
  -9   4   6  667.25   27.91
  -9   4   6  737.26   35.99
   9  -4  -5  205.01    7.46
  -9   4   5  242.21   12.59
  -9   4   5  214.40    7.60
   9  -4  -4    4.19    0.93
  -9   4   4    6.63    1.27
  -9   4   4    3.50    0.63
   9  -4  -3   11.46    1.49
  -9   4   3   15.19    1.78
  -9   4   3   12.24    0.77
   9  -4  -2  103.79    5.18
  -9   4   2  116.41    6.87
   9  -4  -1   75.79    4.67
  -9   4   1   87.06    4.73
  -9   4   1   97.56    4.59
   9  -4   0   90.61    4.53
  -9   4   0   94.55    5.11
   9  -4   1   76.38    4.20
  -9   4  -1   81.49    4.53
   9  -4   2   16.55    2.61
  -9   4  -2   20.42    2.02
   9  -4   3   88.38    6.18
  -9   4  -3   80.44    4.71
  -9   4  -3   84.12    4.65
   9  -4   4    8.82    2.13
  -9   4  -4    7.18    1.88
  -9   4  -4    7.32    1.39
   9  -4   5  176.58   11.75
  -9   4  -5  165.65    9.65
  -9   4  -5  174.53   10.34
   9  -4   6  178.77   10.46
  -9   4  -6  155.96    9.55
  -9   4  -6  151.82    9.92
   9  -4   7   10.49    2.31
  -9   4  -7    8.94    2.33
  -9   4  -7   12.53    1.79
   9  -4   8    2.39    2.37
  -9   4  -8    3.20    1.31
  -9   4  -8    5.31    1.36
   9  -4   9   34.20    5.54
  -9   4  -9   32.64    4.11
  -9   4  -9   36.55    3.27
   9  -4  10   11.39    2.65
  -9   4 -10    8.70    2.50
  -9   4 -10    6.78    1.93
   9  -3 -15    3.89    2.84
  -9   3  15    2.75    2.33
  -9   3  15    2.98    2.51
   9  -3 -14   10.71    3.46
  -9   3  14    6.35    2.84
  -9   3  14    7.37    2.91
   9  -3 -13   80.29    8.26
  -9   3  13   63.01    5.49
  -9   3  13   84.49    7.44
   9  -3 -12   13.93    2.64
  -9   3  12   13.40    2.39
  -9   3  12   13.68    2.81
   9  -3 -11   22.92    4.12
  -9   3  11   25.59    3.17
  -9   3  11   23.75    3.73
   9  -3 -10    4.31    2.35
  -9   3  10    6.16    2.11
  -9   3  10    6.96    1.79
   9  -3  -9    2.65    1.71
  -9   3   9    5.68    1.62
  -9   3   9    0.30    1.26
   9  -3  -8  817.33   45.68
  -9   3   8  786.66   39.08
  -9   3   8  761.72   36.31
   9  -3  -7  140.25    9.33
  -9   3   7  142.56    8.52
  -9   3   7  130.20    6.25
   9  -3  -6   16.48    1.38
  -9   3   6   26.85    2.80
  -9   3   6   20.42    1.78
   9  -3  -5   62.45    2.99
  -9   3   5   69.65    4.08
  -9   3   5   64.14    3.00
   9  -3  -4   46.56    2.46
  -9   3   4   51.55    4.07
  -9   3   4   42.50    1.92
   9  -3  -3   71.96    3.68
  -9   3   3   77.61    5.12
  -9   3   3   66.07    2.48
   9  -3  -2  213.15    8.83
   9  -3  -2  231.64    9.71
  -9   3   2  239.65   11.22
  -9   3   2  194.68    6.17
   9  -3  -1  580.31   26.26
   9  -3  -1  612.34   27.28
  -9   3   1  619.90   29.29
   9  -3   0   72.09    4.08
  -9   3   0   83.84    5.02
  -9   3   0   58.18    4.85
   9  -3   1   94.57    5.50
  -9   3  -1   98.37    5.91
  -9   3  -1  104.68    5.11
   9  -3   2  424.33   20.35
  -9   3  -2  412.51   18.10
   9  -3   3   60.73    4.32
  -9   3  -3   49.08    3.91
   9  -3   4   12.11    2.50
  -9   3  -4   16.39    1.70
  -9   3  -4   15.57    2.12
   9  -3   5  126.55    7.15
  -9   3  -5  117.88    5.96
  -9   3  -5  118.60    7.06
   9  -3   6    4.78    2.10
  -9   3  -6    5.57    1.61
  -9   3  -6    7.60    1.73
   9  -3   7   48.04    4.09
  -9   3  -7   33.68    3.77
  -9   3  -7   50.30    4.21
   9  -3   8  260.74   17.36
  -9   3  -8  205.15   12.21
  -9   3  -8  227.00   13.46
   9  -3   9    1.96    1.45
  -9   3  -9    1.59    1.32
  -9   3  -9    0.32    1.49
   9  -3  10    9.46    2.39
  -9   3 -10    8.28    2.18
  -9   3 -10    6.44    2.40
   9  -3  11   19.86    4.39
  -9   3 -11   15.72    3.03
  -9   3 -11   15.87    3.26
   9  -2 -15   25.63    5.63
  -9   2  15   26.07    4.59
  -9   2  15   26.52    5.24
   9  -2 -14  211.72   14.98
  -9   2  14  197.27   12.49
  -9   2  14  216.25   13.54
   9  -2 -13   10.48    2.63
  -9   2  13   13.30    2.47
  -9   2  13   12.83    2.97
   9  -2 -12   36.29    4.11
  -9   2  12   36.41    4.70
  -9   2  12   44.57    3.53
   9  -2 -11   57.52    6.18
  -9   2  11   49.61    4.95
  -9   2  11   56.41    5.22
   9  -2 -10   21.71    2.64
  -9   2  10   19.21    2.94
  -9   2  10   15.75    2.10
   9  -2  -9    0.50    1.02
  -9   2   9    2.42    1.29
  -9   2   9    0.22    1.08
   9  -2  -8    8.92    2.28
  -9   2   8   10.47    2.01
  -9   2   8    7.94    1.29
   9  -2  -7    2.21    0.67
  -9   2   7    3.11    1.40
  -9   2   7    2.23    1.10
   9  -2  -6   83.27    3.66
  -9   2   6   94.06    5.81
  -9   2   6   90.07    4.42
   9  -2  -5  100.03    4.07
  -9   2   5  111.20    6.54
  -9   2   5   99.74    4.49
   9  -2  -4   73.33    3.53
  -9   2   4   88.09    5.19
  -9   2   4   71.79    3.26
   9  -2  -3   10.46    1.47
   9  -2  -3   13.95    2.28
  -9   2   3   12.04    1.65
  -9   2   3   19.09    1.26
   9  -2  -2  222.72   10.80
   9  -2  -2  217.90    8.85
  -9   2   2  227.12    8.93
  -9   2   2  201.67    6.59
   9  -2  -1  173.85    7.44
   9  -2  -1  166.34    8.29
  -9   2   1  151.62    5.08
  -9   2   1  178.45    8.49
   9  -2   0    4.79    1.26
   9  -2   0    6.88    1.06
  -9   2   0    3.52    0.56
  -9   2   0    7.12    1.47
   9  -2   1   64.93    3.03
  -9   2  -1   54.79    3.87
  -9   2  -1   51.12    3.19
   9  -2   2  548.30   23.86
  -9   2  -2  533.94   25.18
  -9   2  -2  569.12   24.22
   9  -2   3  726.19   35.76
  -9   2  -3  711.38   34.51
   9  -2   4    4.53    1.49
  -9   2  -4    3.47    1.24
   9  -2   5  176.81   10.33
  -9   2  -5  172.18    8.72
   9  -2   6    2.65    1.26
  -9   2  -6    3.30    1.16
  -9   2  -6    2.96    1.38
   9  -2   7  107.96    7.64
  -9   2  -7   83.70    5.14
  -9   2  -7   98.92    6.23
   9  -2   8   42.17    4.76
  -9   2  -8   32.93    3.26
  -9   2  -8   39.65    3.88
   9  -2   9  155.67    9.90
  -9   2  -9  125.21    7.83
  -9   2  -9  145.41    9.21
   9  -2  10  131.92   10.47
  -9   2 -10  101.97    7.22
  -9   2 -10  110.71    6.90
  -9   2 -11   83.27    6.94
  -9   2 -11  101.79    6.31
  -9   2 -12    7.66    2.59
   9  -1 -15   39.66    5.70
  -9   1  15   16.20    4.23
   9  -1 -14    0.68    1.96
  -9   1  14    0.91    1.41
  -9   1  14    0.42    1.48
   9  -1 -13    1.60    2.00
  -9   1  13    1.45    1.81
  -9   1  13    1.05    1.56
   9  -1 -12   58.32    5.26
  -9   1  12   59.11    4.78
  -9   1  12   54.18    5.26
   9  -1 -11    5.54    2.38
  -9   1  11    5.00    2.14
  -9   1  11    6.36    1.92
   9  -1 -10  189.46   10.53
  -9   1  10  189.42   11.02
  -9   1  10  189.50    9.41
   9  -1  -9   54.77    3.97
  -9   1   9   47.43    4.31
  -9   1   9   48.01    4.30
  -9   1   8  145.28    8.21
  -9   1   8  147.91    7.87
   9  -1  -7    3.43    0.69
  -9   1   7    2.21    1.41
  -9   1   7    3.10    0.93
   9  -1  -6  337.85   12.79
  -9   1   6  367.15   16.96
  -9   1   6  358.73   15.11
   9  -1  -5  145.72    5.80
  -9   1   5  156.65    6.54
  -9   1   5  167.18    8.35
   9  -1  -4  836.84   35.10
   9  -1  -4  902.64   45.05
  -9   1   4  863.89   37.31
  -9   1   4  908.38   43.35
   9  -1  -3    7.83    1.10
   9  -1  -3    8.13    1.58
  -9   1   3    8.03    1.51
  -9   1   3    5.03    0.98
   9  -1  -2   92.30    4.33
   9  -1  -2   96.42    5.39
  -9   1   2   98.10    5.29
  -9   1   2   93.62    3.69
   9  -1  -1  360.27   15.62
   9  -1  -1  358.51   14.52
  -9   1   1  366.98   15.63
  -9   1   1  330.05   11.28
   9  -1   0 1331.49   69.21
   9  -1   0 1337.44   67.14
  -9   1   0 1402.60   68.94
  -9   1   0 1226.48   55.44
   9  -1   1   23.44    2.19
   9  -1   1   25.16    2.18
  -9   1  -1   23.75    1.82
  -9   1  -1   19.29    1.21
   9  -1   2  114.57    4.98
   9  -1   2  101.69    3.17
  -9   1  -2  111.88    4.62
  -9   1  -2  120.41    5.94
   9  -1   3 1006.20   47.30
   9  -1   3  863.33   34.50
  -9   1  -3 1016.22   45.94
  -9   1  -3  941.75   42.22
   9  -1   4  480.89   23.63
  -9   1  -4  476.67   20.20
  -9   1  -4  456.33   20.36
   9  -1   5   75.19    4.96
  -9   1  -5   61.88    3.76
   9  -1   6  206.14    9.82
  -9   1  -6  177.88    8.48
   9  -1   7   44.36    3.37
  -9   1  -7   33.71    2.89
  -9   1  -7   41.44    3.63
   9  -1   8   16.69    2.24
  -9   1  -8   10.95    1.88
  -9   1  -8   15.87    2.38
   9  -1   9    5.80    1.71
  -9   1  -9    3.70    1.39
  -9   1  -9    6.92    1.83
   9  -1  10  213.78   14.63
  -9   1 -10  160.39    9.26
  -9   1 -10  186.82   10.00
  -9   1 -11  124.40    7.81
  -9   1 -11  151.07   10.15
  -9   1 -12   12.92    3.06
   9   0 -15    3.35    3.02
   9   0 -14   18.43    4.50
  -9   0  14   15.66    4.29
   9   0 -13  142.06   10.57
  -9   0  13  152.93   10.61
   9   0 -12   84.48    8.57
  -9   0  12   91.98    6.56
  -9   0  12   90.49    8.36
   9   0 -11    4.77    2.15
  -9   0  11    4.10    1.64
  -9   0  11    3.92    1.51
   9   0 -10   32.18    3.38
  -9   0  10   37.96    3.48
  -9   0  10   33.05    3.07
  -9   0   9    1.17    1.27
  -9   0   9    3.00    1.41
   9   0  -8  450.99   17.75
  -9   0   8  467.48   22.14
  -9   0   8  483.39   23.13
   9   0  -7  434.15   17.01
  -9   0   7  461.97   19.28
  -9   0   7  467.44   21.31
   9   0  -6  451.49   17.46
  -9   0   6  478.12   19.50
  -9   0   6  490.25   21.27
   9   0  -5   38.78    2.13
   9   0  -5   36.07    3.32
  -9   0   5   33.18    2.90
  -9   0   5   31.77    2.63
   9   0  -4  233.28    8.98
   9   0  -4  255.88   11.91
  -9   0   4  254.20    9.65
  -9   0   4  243.97    9.68
   9   0  -3    6.92    1.16
   9   0  -3    8.60    1.19
  -9   0   3    5.96    1.12
  -9   0   3    9.06    1.13
   9   0  -2  176.68    7.05
   9   0  -2  167.95    6.83
  -9   0   2  171.40    6.47
  -9   0   2  179.22    6.46
   9   0  -1  325.43   11.86
   9   0  -1  331.56   13.64
  -9   0   1  310.20   11.21
  -9   0   1  323.84   11.86
   9   0   0  351.25   14.08
   9   0   0  339.55   14.25
  -9   0   0  355.94   14.58
  -9   0   0  322.91   11.18
   9   0   1    6.85    1.21
   9   0   1    6.49    1.10
  -9   0  -1    3.19    0.79
  -9   0  -1    4.20    0.97
   9   0   2    5.50    0.99
   9   0   2    4.58    0.74
  -9   0  -2    4.83    0.98
  -9   0  -2    5.75    0.88
   9   0   3   21.43    2.46
   9   0   3   22.83    1.33
  -9   0  -3   21.42    1.96
  -9   0  -3   22.96    2.22
   9   0   4  183.11    9.53
   9   0   4  172.95    6.07
  -9   0  -4  184.03    7.99
  -9   0  -4  183.54    8.78
   9   0   5   92.95    4.78
   9   0   5   81.26    3.22
  -9   0  -5   87.42    3.56
  -9   0  -5   95.61    4.30
   9   0   6   87.57    5.40
  -9   0  -6   69.27    3.76
  -9   0  -6   70.95    3.92
   9   0   7  180.20   10.19
  -9   0  -7  149.53    6.96
   9   0   8   14.65    2.63
  -9   0  -8   11.53    1.70
   9   0   9    9.30    2.23
  -9   0  -9    6.12    1.26
  -9   0  -9    4.07    1.84
  -9   0 -10    7.27    1.51
  -9   0 -10    9.27    1.64
  -9   0 -11    6.40    2.23
   9   0  12  245.30   18.44
  -9   0 -12  224.09   15.05
   9   0  13    4.28    2.71
  -9   0 -13    5.51    2.32
   9   1 -15   47.36    6.33
   9   1 -14    3.23    2.05
   9   1 -13  147.17   10.94
   9   1 -12   21.15    4.14
  -9  -1  11   35.28    3.69
  -9  -1  11   46.88    5.05
  -9  -1  10  168.66    9.08
  -9  -1  10  177.75   11.22
   9   1  -9   69.06    3.36
  -9  -1   9   75.01    4.89
  -9  -1   9   95.14    6.03
   9   1  -8  332.75   13.31
  -9  -1   8  343.67   15.65
  -9  -1   8  367.63   18.49
   9   1  -7 2029.24  114.55
  -9  -1   7 2092.70  125.01
  -9  -1   7 2185.06  134.88
   9   1  -6   27.77    2.02
   9   1  -6   29.21    2.34
  -9  -1   6   24.15    2.55
  -9  -1   6   30.83    2.66
   9   1  -5   25.99    1.95
   9   1  -5   31.35    2.83
  -9  -1   5   25.41    2.38
  -9  -1   5   25.34    2.35
   9   1  -4  407.35   15.82
   9   1  -4  428.11   17.27
  -9  -1   4  428.32   16.10
  -9  -1   4  435.13   17.87
   9   1  -3  331.57   12.80
   9   1  -3  345.30   14.99
  -9  -1   3  340.88   12.45
  -9  -1   3  330.22   13.11
   9   1  -2   82.63    3.30
   9   1  -2   95.87    4.71
  -9  -1   2   86.32    3.48
  -9  -1   2   80.49    3.88
   9   1  -1  299.93   11.70
   9   1  -1  284.05   11.74
  -9  -1   1  298.99   11.84
  -9  -1   1  291.85   10.80
   9   1   0  398.78   16.06
   9   1   0  399.16   16.42
  -9  -1   0  404.04   16.00
  -9  -1   0  400.32   14.78
   9   1   1  648.35   27.68
   9   1   1  626.26   25.72
  -9  -1  -1  607.39   23.70
  -9  -1  -1  647.80   25.33
   9   1   2    4.70    1.23
   9   1   2    4.73    0.96
  -9  -1  -2    5.23    1.09
  -9  -1  -2    3.32    0.69
   9   1   3   10.07    1.76
   9   1   3   11.04    1.08
  -9  -1  -3   13.50    1.37
  -9  -1  -3   10.88    1.59
   9   1   4    5.36    1.14
   9   1   4    6.06    0.80
  -9  -1  -4    6.41    1.03
  -9  -1  -4    3.68    1.33
   9   1   5    3.83    1.46
   9   1   5    3.67    0.81
  -9  -1  -5    4.84    0.89
  -9  -1  -5    3.75    0.92
   9   1   6   36.90    2.35
   9   1   6   24.18    1.74
  -9  -1  -6   22.65    1.87
  -9  -1  -6   30.07    2.03
   9   1   7    9.62    2.00
   9   1   7    8.96    1.16
  -9  -1  -7    6.44    1.13
  -9  -1  -7    9.63    1.72
   9   1   8   12.57    1.78
   9   1   8   10.56    1.15
  -9  -1  -8    8.90    1.32
  -9  -1  -9   51.93    3.08
  -9  -1 -10    0.33    0.71
  -9  -1 -11    2.86    1.30
   9   1  12  143.55    9.49
  -9  -1 -12  130.92    9.55
   9   1  13   12.50    2.60
  -9  -1 -13   11.13    2.29
   9   1  14    8.36    2.55
  -9  -1 -14    7.64    2.22
   9   2 -14  407.93   32.73
  -9  -2  14  424.13   28.80
   9   2 -13    7.29    3.23
  -9  -2  13    7.34    2.44
   9   2  -9  227.45    9.70
  -9  -2   9  234.94   11.02
   9   2  -8   19.50    2.03
   9   2  -8   25.30    3.17
  -9  -2   8   21.92    2.25
  -9  -2   8   27.46    3.05
   9   2  -7 1354.71   67.47
   9   2  -7 1384.52   75.29
  -9  -2   7 1361.56   71.08
  -9  -2   7 1455.28   81.06
   9   2  -6   76.40    4.11
   9   2  -6   90.76    5.46
  -9  -2   6   78.79    4.42
  -9  -2   6   96.89    5.32
   9   2  -5    6.14    0.87
   9   2  -5    6.77    1.57
  -9  -2   5    5.07    1.47
  -9  -2   5    5.56    1.24
   9   2  -4 1944.20  107.21
   9   2  -4 2021.33  113.62
  -9  -2   4 1936.06  107.18
  -9  -2   4 1983.20  110.01
   9   2  -3   64.31    3.42
   9   2  -3   69.86    3.31
  -9  -2   3   64.42    3.42
  -9  -2   3   69.74    3.78
   9   2  -2   52.77    2.34
   9   2  -2   44.65    2.43
  -9  -2   2   45.41    2.78
  -9  -2   2   56.88    2.91
   9   2  -1  272.98    9.57
   9   2  -1  278.30   10.86
  -9  -2   1  270.51    9.31
  -9  -2   1  269.38    9.39
   9   2   0   71.29    3.20
   9   2   0   74.47    3.59
  -9  -2   0   74.52    3.53
  -9  -2   0   75.74    3.78
   9   2   1   78.14    3.58
   9   2   1   74.56    3.34
  -9  -2  -1   71.53    3.38
  -9  -2  -1   81.94    3.88
   9   2   2  689.93   30.30
   9   2   2  648.94   26.09
  -9  -2  -2  676.52   26.38
  -9  -2  -2  656.09   26.37
   9   2   3   40.91    3.04
   9   2   3   34.86    1.63
  -9  -2  -3   44.56    2.01
   9   2   4  149.64    7.19
   9   2   4  140.71    5.50
  -9  -2  -4  132.37    5.01
  -9  -2  -4  146.85    5.42
   9   2   5   41.76    2.67
   9   2   5   44.11    2.27
  -9  -2  -5   36.50    2.01
  -9  -2  -5   42.70    2.27
   9   2   6  294.38   12.33
   9   2   6  266.09   10.32
  -9  -2  -6  255.56    9.11
  -9  -2  -6  271.76   10.86
   9   2   7   52.46    4.02
   9   2   7   38.85    2.42
  -9  -2  -7   33.29    2.04
  -9  -2  -7   47.93    2.55
   9   2   8  336.73   17.32
   9   2   8  297.89   12.42
  -9  -2  -8  263.48   10.36
  -9  -2  -8  312.00   14.79
   9   2   9   12.71    1.75
  -9  -2  -9   11.35    1.33
  -9  -2  -9   15.92    1.80
   9   2  10  109.74    6.07
   9   2  11   79.01    6.79
   9   2  12  120.41    8.29
  -9  -2 -12  113.93    7.12
   9   2  13   59.09    6.64
  -9  -2 -13   56.22    5.95
   9   2  14    1.60    2.29
  -9  -2 -14    3.36    2.10
   9   3 -14  315.01   23.48
  -9  -3  14  336.18   24.34
  -9  -3  13  211.15   15.42
  -9  -3  12    3.98    2.47
  -9  -3  11  197.66   12.46
   9   3 -10  174.95    8.61
   9   3  -9    2.54    1.13
   9   3  -9    3.70    1.75
   9   3  -8    8.42    1.56
   9   3  -8   13.71    2.36
  -9  -3   8   10.43    1.51
   9   3  -7   29.57    2.40
   9   3  -7   29.06    2.45
  -9  -3   7   24.86    2.25
   9   3  -6  173.87    7.64
   9   3  -6  177.94    7.99
  -9  -3   6  171.80    7.08
   9   3  -5   36.76    2.67
   9   3  -5   34.24    3.17
  -9  -3   5   40.19    3.33
  -9  -3   5   39.06    2.34
   9   3  -4  411.28   16.74
   9   3  -4  407.93   18.35
  -9  -3   4  403.18   15.66
  -9  -3   4  442.42   19.30
   9   3  -3  241.49    9.95
   9   3  -3  241.59   10.44
  -9  -3   3  245.02   10.72
  -9  -3   3  241.22    8.94
   9   3  -2  304.07   12.15
   9   3  -2  295.75   11.89
  -9  -3   2  284.87    9.68
  -9  -3   2  297.92   11.11
   9   3  -1  194.93    8.14
   9   3  -1  197.38    7.88
  -9  -3   1  197.67    7.39
  -9  -3   1  197.87    8.29
   9   3   0  228.53    8.55
   9   3   0  228.34    9.51
  -9  -3   0  218.67    8.24
  -9  -3   0  225.76    7.95
   9   3   1   96.28    4.05
   9   3   1   97.48    4.09
  -9  -3  -1   97.01    4.36
  -9  -3  -1   99.51    4.25
   9   3   2  364.35   13.06
   9   3   2  380.45   14.38
  -9  -3  -2  386.72   13.36
  -9  -3  -2  364.92   14.34
   9   3   3   11.72    1.81
   9   3   3   12.12    1.12
  -9  -3  -3   15.82    1.15
  -9  -3  -3   11.78    1.45
   9   3   4   13.88    1.78
   9   3   4   12.55    1.35
  -9  -3  -4    9.11    1.04
  -9  -3  -4   13.31    1.11
   9   3   5  542.22   24.45
   9   3   5  523.36   21.37
  -9  -3  -5  489.51   17.60
  -9  -3  -5  528.89   20.38
   9   3   6   55.22    4.11
   9   3   6   59.49    3.17
  -9  -3  -6   51.62    2.23
  -9  -3  -6   50.55    3.52
   9   3   7   10.27    1.98
   9   3   7    8.86    1.38
  -9  -3  -7    9.80    1.64
   9   3   8   42.12    2.78
  -9  -3  -8   31.04    1.77
  -9  -3  -8   44.86    2.48
   9   3   9   66.92    4.31
  -9  -3  -9   75.20    4.93
   9   3  10   56.07    3.89
  -9  -3 -10   62.61    4.65
   9   3  11    5.56    1.89
   9   3  11    2.48    1.36
   9   3  12    7.15    2.40
   9   3  12    6.93    1.83
   9   3  13  372.88   25.61
   9   3  14    4.77    1.87
  -9  -3 -14    5.03    1.78
   9   3  15   65.07    7.60
  -9  -3 -15   55.40    5.68
  -9  -4  13   25.47    4.35
  -9  -4  12  269.23   21.03
  -9  -4  11   75.12    6.44
   9   4 -10  120.30    7.20
   9   4 -10  140.55   10.43
  -9  -4  10  145.61   10.90
   9   4  -9   13.41    2.04
   9   4  -9   13.80    2.17
  -9  -4   9   12.98    3.01
   9   4  -8   22.46    2.60
   9   4  -8   29.29    2.65
  -9  -4   8   28.25    2.88
   9   4  -7  121.80    6.31
   9   4  -7  123.63    7.62
   9   4  -6    9.38    1.58
   9   4  -6   10.20    1.51
  -9  -4   6    9.36    1.19
   9   4  -5  199.54    8.97
   9   4  -5  210.36    8.61
  -9  -4   5  202.64    7.51
   9   4  -4   66.22    3.15
   9   4  -4   65.58    4.09
  -9  -4   4   62.00    2.61
   9   4  -3  624.94   26.52
   9   4  -3  614.94   26.50
  -9  -4   3  602.82   22.35
   9   4  -2   57.77    2.90
   9   4  -2   65.62    3.41
  -9  -4   2   58.78    2.75
  -9  -4   2   68.63    3.82
   9   4  -1 1143.83   54.77
   9   4  -1 1111.10   51.14
  -9  -4   1 1121.10   49.50
  -9  -4   1 1145.51   53.57
   9   4   0   48.99    3.16
   9   4   0   51.88    2.50
  -9  -4   0   47.30    2.97
  -9  -4   0   43.61    2.35
   9   4   1  229.12    8.59
   9   4   1  226.36    8.19
  -9  -4  -1  237.98    8.44
  -9  -4  -1  239.15    8.46
   9   4   2   54.35    2.61
   9   4   2   43.65    2.03
  -9  -4  -2   52.43    2.63
  -9  -4  -2   57.90    3.07
   9   4   3  519.40   22.43
   9   4   3  480.47   16.87
  -9  -4  -3  512.40   19.70
  -9  -4  -3  520.14   21.78
   9   4   4   57.04    2.88
   9   4   4   52.73    2.45
  -9  -4  -4   55.99    3.02
  -9  -4  -4   48.76    2.13
   9   4   5   21.98    1.76
   9   4   5   19.35    1.87
  -9  -4  -5   15.47    1.07
  -9  -4  -5   19.00    1.40
   9   4   6  846.04   41.64
   9   4   6  848.41   38.84
  -9  -4  -6  765.62   29.13
  -9  -4  -6  855.59   39.19
   9   4   7  426.08   19.78
   9   4   7  402.33   17.00
  -9  -4  -7  340.48   11.06
  -9  -4  -7  403.85   17.42
   9   4   8   24.52    2.23
  -9  -4  -8   24.90    2.46
   9   4   9  446.50   19.25
  -9  -4  -9  452.78   20.25
   9   4  10  224.44   12.94
   9   4  10  209.43   10.78
  -9  -4 -10  221.52   10.11
   9   4  11   27.31    3.47
   9   4  11   26.46    2.82
  -9  -4 -11   25.52    2.52
   9   4  12    3.27    1.89
   9   4  12    3.32    1.59
  -9  -4 -12    5.21    1.38
   9   4  13   11.83    2.23
   9   4  13   11.84    2.32
   9   4  14  128.14   10.37
   9   4  14  138.88    8.29
   9   4  15  119.97    8.84
  -9  -4 -15  122.62   10.81
  -9  -5  12   11.01    3.83
   9   5 -11   85.75    6.93
   9   5 -11   64.61    7.31
  -9  -5  11  128.54    7.89
   9   5 -10  174.84    8.81
   9   5 -10  189.41   11.50
  -9  -5  10  197.83   14.22
   9   5  -9  317.18   14.62
   9   5  -9  351.07   20.40
  -9  -5   9  361.82   21.59
   9   5  -8    4.06    1.38
   9   5  -8    3.91    1.37
  -9  -5   8    3.26    1.49
   9   5  -7  411.53   19.73
   9   5  -7  446.59   23.17
  -9  -5   7  463.11   24.74
   9   5  -6  188.31    9.21
   9   5  -6  184.96    8.61
  -9  -5   6  201.80   11.36
   9   5  -5   68.53    3.43
   9   5  -5   63.76    3.61
  -9  -5   5   59.18    2.66
  -9  -5   5   88.55    4.29
   9   5  -4  211.77    9.59
   9   5  -4  212.67    9.57
  -9  -5   4  203.73    6.93
   9   5  -3    8.58    1.58
   9   5  -3    8.35    1.39
  -9  -5   3    8.55    0.91
   9   5  -2  312.05   11.96
   9   5  -2  307.13   11.06
  -9  -5   2  313.38   10.45
   9   5  -1  193.71    8.67
   9   5  -1  181.16    7.18
  -9  -5   1  191.23    6.48
   9   5   0   15.84    1.87
   9   5   0   16.38    1.39
  -9  -5   0   15.63    1.21
  -9  -5   0   15.07    1.48
   9   5   1    6.87    1.40
   9   5   1    5.84    0.80
  -9  -5  -1    6.26    0.90
  -9  -5  -1    9.28    1.36
   9   5   2    2.43    1.17
   9   5   2    4.28    0.69
  -9  -5  -2    3.06    0.84
  -9  -5  -2    2.86    0.79
   9   5   3   39.57    2.25
   9   5   3   31.43    1.41
  -9  -5  -3   37.13    1.61
  -9  -5  -3   36.78    2.01
   9   5   4   15.98    1.96
   9   5   4   12.75    0.75
  -9  -5  -4   15.77    1.42
  -9  -5  -4   14.51    1.32
   9   5   5  598.62   25.08
   9   5   5  591.13   26.07
  -9  -5  -5  551.67   18.58
  -9  -5  -5  607.50   23.27
   9   5   6  199.40    9.46
   9   5   6  195.31    8.35
  -9  -5  -6  164.35    4.65
  -9  -5  -6  190.59    7.93
   9   5   7   79.52    4.52
  -9  -5  -7   76.80    4.34
   9   5   8  392.20   18.39
  -9  -5  -8  397.26   18.34
   9   5   9  301.40   13.75
   9   5   9  276.86   11.82
  -9  -5  -9  289.83   13.87
   9   5  10   81.40    6.02
   9   5  10   76.72    5.00
  -9  -5 -10   72.49    5.17
   9   5  11   21.09    2.93
   9   5  11   18.40    2.54
  -9  -5 -11   19.23    2.69
   9   5  12  366.81   21.42
   9   5  12  359.91   19.50
  -9  -5 -12  377.41   20.97
   9   5  13  164.21   11.57
   9   5  13  163.11   10.73
  -9  -5 -13  165.42    9.28
   9   5  14   17.85    2.66
   9   5  14   17.72    2.45
  -9  -5 -14   19.17    2.66
   9   5  15    4.84    1.96
   9   5  15    0.26    1.84
   9   5  16   43.08    5.88
   9   5  16   43.11    5.41
   9   6 -12   54.67    7.97
  -9  -6  12   56.21    6.30
   9   6 -11   38.50    4.88
   9   6 -11   35.50    5.06
  -9  -6  11   63.57    5.42
   9   6 -10  108.58    6.88
   9   6 -10  134.57   10.47
  -9  -6  10  140.55    8.93
   9   6  -9  111.67    7.77
   9   6  -9  114.40    9.09
  -9  -6   9  120.79    9.97
   9   6  -8  300.83   16.23
   9   6  -8  312.37   15.78
  -9  -6   8  343.45   17.70
   9   6  -7    9.46    1.60
   9   6  -7   10.67    2.26
  -9  -6   7   11.71    2.62
   9   6  -6   63.37    4.48
   9   6  -6   58.80    4.59
  -9  -6   6   59.80    4.14
   9   6  -5  467.82   22.16
   9   6  -5  465.13   20.16
  -9  -6   5  497.39   25.59
   9   6  -4  125.94    5.54
   9   6  -4  122.91    5.34
  -9  -6   4  134.81    6.25
   9   6  -3  429.42   19.08
   9   6  -3  410.87   17.64
  -9  -6   3  404.69   13.01
  -9  -6   3  448.42   19.16
   9   6  -2  594.56   27.02
   9   6  -2  571.04   23.98
  -9  -6   2  572.72   19.80
   9   6  -1  697.69   29.80
   9   6  -1  683.92   28.30
  -9  -6   1  694.50   24.95
   9   6   0   18.12    2.25
   9   6   0   20.77    1.56
  -9  -6   0   23.01    1.23
   9   6   1    4.65    1.36
   9   6   1    5.26    0.82
  -9  -6  -1    5.36    0.64
   9   6   2 1065.83   52.24
   9   6   2  989.16   40.32
  -9  -6  -2 1038.77   43.90
   9   6   3  636.76   26.91
   9   6   3  611.54   21.37
  -9  -6  -3  647.94   29.53
  -9  -6  -3  645.42   24.84
   9   6   4  258.63   10.10
   9   6   4  225.56    6.39
  -9  -6  -4  256.46    9.35
  -9  -6  -4  248.47   11.27
   9   6   5  109.42    5.93
   9   6   5   97.25    4.32
  -9  -6  -5   99.55    4.52
   9   6   6  249.34   10.43
  -9  -6  -6  256.06   10.39
   9   6   7    4.37    1.38
  -9  -6  -7    6.16    1.22
   9   6   8    5.42    1.62
  -9  -6  -8    8.37    1.42
   9   6   9    7.71    1.81
   9   6   9    4.48    1.63
  -9  -6  -9    7.63    1.18
   9   6  10   66.95    3.93
   9   6  10   57.40    3.55
  -9  -6 -10   63.20    3.39
   9   6  11   16.83    2.17
   9   6  11   16.75    1.91
  -9  -6 -11   16.66    2.49
   9   6  12   37.81    4.39
   9   6  12   36.64    4.00
  -9  -6 -12   45.36    3.11
   9   6  13  188.19   12.63
   9   6  13  184.56   12.23
  -9  -6 -13  209.76   13.13
   9   6  14   65.29    6.41
   9   6  14   65.85    6.30
  -9  -6 -14   73.59    6.49
   9   6  15   64.70    7.00
   9   6  15   78.37    7.42
  -9  -6 -15   84.27    6.06
   9   6  16    8.36    2.89
   9   6  16    9.41    2.92
   9   7 -11    3.11    1.58
   9   7 -11    4.30    1.99
  -9  -7  11    3.86    2.84
   9   7 -10    1.64    1.70
   9   7 -10    0.71    2.05
  -9  -7  10    2.73    1.65
   9   7  -9   60.06    5.66
   9   7  -9   53.36    6.58
  -9  -7   9   68.09    5.65
   9   7  -8    2.03    1.67
   9   7  -8    3.41    1.84
  -9  -7   8    3.26    1.52
   9   7  -7  885.69   48.63
   9   7  -7  864.58   45.62
  -9  -7   7  958.57   55.46
   9   7  -6   76.73    5.36
   9   7  -6   72.35    5.52
  -9  -7   6   72.88    5.27
   9   7  -5  180.87    8.53
   9   7  -5  179.44    9.67
  -9  -7   5  183.07    9.19
   9   7  -4  267.61   11.59
   9   7  -4  258.20   12.46
  -9  -7   4  303.18   15.34
   9   7  -3   52.79    4.21
   9   7  -3   56.11    3.54
  -9  -7   3   66.48    4.71
   9   7  -2   79.47    4.10
   9   7  -2   77.26    4.01
  -9  -7   2   88.78    5.56
   9   7  -1   51.02    2.72
   9   7  -1   54.27    2.53
  -9  -7   1   39.33    1.60
  -9  -7   1   46.38    3.78
   9   7   0  632.46   29.05
   9   7   0  588.56   23.10
  -9  -7   0  617.99   21.19
  -9  -7   0  633.21   30.01
   9   7   1  165.91    6.66
   9   7   1  153.74    5.35
  -9  -7  -1  150.36    4.89
   9   7   2   15.95    1.55
   9   7   2   12.55    0.89
  -9  -7  -2   15.29    1.06
   9   7   3  118.43    5.23
   9   7   3  107.71    3.29
  -9  -7  -3  122.52    4.38
   9   7   4   20.59    2.31
   9   7   4   18.91    0.89
  -9  -7  -4   17.81    1.40
   9   7   5   92.41    4.51
   9   7   5   85.34    4.14
  -9  -7  -5   88.09    3.96
   9   7   6  173.96    7.63
  -9  -7  -6  166.31    6.11
   9   7   7   96.13    5.27
  -9  -7  -7   82.64    4.47
   9   7   8  115.92    5.73
   9   7   8   87.65    5.57
  -9  -7  -8   75.48    4.63
   9   7   9   29.23    2.45
   9   7   9   26.91    2.35
  -9  -7  -9   31.40    2.65
   9   7  10  338.21   17.56
   9   7  10  336.47   15.79
  -9  -7 -10  352.38   17.01
   9   7  11    2.87    0.98
   9   7  11    0.62    0.98
  -9  -7 -11   -0.62    1.17
   9   7  12    8.47    2.31
   9   7  12    9.04    2.28
  -9  -7 -12   10.86    1.69
   9   7  13  137.45    9.83
   9   7  13  131.03    8.13
  -9  -7 -13  146.76    9.92
   9   7  14  122.45    9.36
   9   7  14  138.81   10.06
  -9  -7 -14  127.08    8.05
   9   7  15    5.84    1.80
   9   7  15    6.27    2.56
  -9  -7 -15    8.92    2.56
   9   7  16   72.97    5.71
   9   7  16   80.31    8.19
  -9  -7 -16   99.43    8.95
   9   8 -10  179.21   13.80
   9   8 -10  187.10   13.07
  -9  -8  10  199.57   16.55
   9   8  -9    9.57    3.00
   9   8  -9   13.58    3.22
  -9  -8   9   14.50    3.59
   9   8  -8  154.28   11.09
   9   8  -8  148.70   11.78
  -9  -8   8  166.61   12.75
   9   8  -7    5.70    1.65
   9   8  -7    6.99    2.20
  -9  -8   7    8.94    2.55
   9   8  -6  163.47   10.38
   9   8  -6  159.61    8.20
  -9  -8   6  169.59    9.69
   9   8  -5  180.51   10.39
   9   8  -5  165.42    9.43
  -9  -8   5  181.17    9.93
   9   8  -4   94.54    5.73
   9   8  -4   69.13    3.91
  -9  -8   4   96.04    6.33
   9   8  -3   78.62    5.13
   9   8  -3   63.18    4.01
  -9  -8   3   75.43    4.39
   9   8  -2   10.43    1.47
   9   8  -2    8.35    1.34
  -9  -8   2    8.06    1.53
   9   8  -1  106.23    6.17
   9   8  -1  101.52    4.60
  -9  -8   1  107.37    6.64
   9   8   0  217.14    9.23
   9   8   0  203.45    7.63
  -9  -8   0  217.25    6.06
  -9  -8   0  225.04    9.80
   9   8   1  806.22   36.63
   9   8   1  756.60   30.34
  -9  -8  -1  789.52   28.46
  -9  -8  -1  822.85   38.55
   9   8   2    5.85    1.16
   9   8   2    5.77    0.68
  -9  -8  -2    8.16    0.74
  -9  -8  -2    8.20    1.64
   9   8   3  189.27    7.92
   9   8   3  172.31    5.08
  -9  -8  -3  177.33    6.04
   9   8   4  191.84    8.09
   9   8   4  169.70    4.40
  -9  -8  -4  184.16    6.54
   9   8   5   95.74    2.24
  -9  -8  -5  119.86    4.46
   9   8   6  279.32   14.12
  -9  -8  -6  282.48   11.34
   9   8   7  631.49   31.97
  -9  -8  -7  608.98   26.60
   9   8   8   36.97    2.64
   9   8   8   35.60    3.34
  -9  -8  -8   30.62    2.50
   9   8   9   16.61    2.35
   9   8   9   13.57    2.38
  -9  -8  -9   13.48    1.50
   9   8  10  705.25   36.41
   9   8  10  684.06   36.91
  -9  -8 -10  666.03   30.75
   9   8  11    1.29    1.40
   9   8  11    3.09    1.43
  -9  -8 -11    1.30    1.30
   9   8  12   10.04    2.28
   9   8  12    8.40    1.86
  -9  -8 -12   10.88    2.16
   9   8  13    5.59    1.91
   9   8  13    3.91    2.04
  -9  -8 -13    4.74    1.89
   9   8  14   25.65    3.43
   9   8  14   21.73    3.94
  -9  -8 -14   21.30    3.63
   9   8  15    3.01    1.83
   9   8  15    3.93    2.12
  -9  -8 -15    2.72    1.56
   9   8  16    4.72    2.25
   9   8  16    7.42    2.73
  -9  -8 -16    5.73    2.09
   9   9  -9   41.12    5.76
   9   9  -9   45.19    6.10
  -9  -9   9   42.94    6.55
   9   9  -8  127.66    7.29
   9   9  -8   72.10    7.13
  -9  -9   8  130.82   10.22
   9   9  -7    5.56    2.33
   9   9  -7    7.30    2.22
  -9  -9   7    4.07    1.95
   9   9  -6   77.56    6.82
   9   9  -6   77.47    4.98
  -9  -9   6   85.60    7.53
   9   9  -5    2.42    1.32
   9   9  -5    3.59    1.49
  -9  -9   5    3.00    1.40
   9   9  -4    0.90    1.45
   9   9  -4    2.12    0.89
  -9  -9   4    0.77    1.16
   9   9  -3    7.77    1.97
   9   9  -3    5.78    1.49
  -9  -9   3    6.80    2.09
   9   9  -2   24.52    2.99
  -9  -9   2   24.25    3.26
   9   9  -1 1103.66   56.42
   9   9  -1 1076.83   50.79
  -9  -9   1 1147.35   62.83
   9   9   0  721.06   33.38
   9   9   0  686.86   28.28
  -9  -9   0  751.13   35.22
   9   9   1  165.34    7.59
   9   9   1  157.74    5.68
  -9  -9  -1  168.07    7.79
   9   9   2   46.58    3.96
  -9  -9  -2   52.86    3.09
   9   9   3  834.59   39.27
   9   9   3  804.96   29.48
  -9  -9  -3  803.75   31.46
  -9  -9  -3  875.76   44.74
   9   9   4  732.02   25.35
  -9  -9  -4  802.41   38.12
  -9  -9  -4  741.92   28.74
  -9  -9  -5  479.95   18.71
  -9  -9  -5  508.31   25.41
   9   9   6    7.80    1.81
  -9  -9  -6    7.91    1.13
   9   9   7    8.29    1.41
   9   9   7    8.43    1.91
  -9  -9  -7    7.52    1.27
   9   9   8   11.26    1.96
   9   9   8    9.51    1.52
  -9  -9  -8    7.15    1.47
   9   9   9   26.99    3.00
   9   9   9   27.96    2.47
  -9  -9  -9   22.62    2.46
   9   9  10 1759.18  106.45
   9   9  10 1887.41  121.31
  -9  -9 -10 1884.55  112.73
   9   9  11   87.70    6.12
   9   9  11   87.23    5.31
  -9  -9 -11   84.51    4.63
   9   9  12   -0.14    1.59
   9   9  12    5.92    1.78
  -9  -9 -12    3.51    1.18
   9   9  13   76.27    4.80
   9   9  13   74.50    5.34
  -9  -9 -13   76.58    4.80
   9   9  14   17.01    2.82
   9   9  14   15.82    2.49
  -9  -9 -14   12.25    2.28
   9   9  15   18.30    2.55
   9   9  15   19.25    3.04
  -9  -9 -15   24.37    3.00
   9   9  16   28.46    4.33
   9   9  16   36.22    4.36
  -9  -9 -16   37.42    4.25
   9   9  17   35.19    4.99
   9   9  17   46.27    6.87
  -9  -9 -17   51.00    5.22
   9  10  -8   41.05    6.34
   9  10  -8   51.79    6.04
  -9 -10   8   49.49    5.34
   9  10  -7  136.49    9.48
   9  10  -7  139.83   10.75
  -9 -10   7  173.55   12.46
   9  10  -6  245.72   16.56
   9  10  -6  222.96   12.18
  -9 -10   6  245.52   16.98
   9  10  -5    2.21    1.90
   9  10  -5    3.37    1.60
  -9 -10   5    2.97    2.06
   9  10  -4    7.91    1.90
   9  10  -4    9.07    1.91
  -9 -10   4    9.40    2.64
   9  10  -3  134.91    9.12
   9  10  -3  129.93    7.34
  -9 -10   3  139.00    9.55
   9  10  -2   25.76    3.30
   9  10  -2   20.36    2.32
  -9 -10   2   28.29    2.64
   9  10  -1   75.76    4.71
  -9 -10   1   83.60    4.83
   9  10   0  309.52   15.58
   9  10   0  267.69   10.43
  -9 -10   0  297.36   13.91
   9  10   1  262.55   13.12
   9  10   1  229.68    8.66
  -9 -10  -1  261.10   13.61
   9  10   2    7.83    1.80
   9  10   2    6.35    0.82
  -9 -10  -2    8.63    1.86
   9  10   3   42.21    2.85
   9  10   3   37.39    1.31
  -9 -10  -3   41.87    3.74
   9  10   4  111.76    3.09
  -9 -10  -4  118.88    3.96
  -9 -10  -4  149.81    6.72
  -9 -10  -5  139.84    5.37
  -9 -10  -5  155.88    8.78
   9  10   6   34.68    2.51
   9  10   6   35.41    2.51
  -9 -10  -6   27.13    1.95
   9  10   7  226.77   10.23
   9  10   7  228.02   12.81
  -9 -10  -7  207.63    8.89
   9  10   8  111.91    6.42
   9  10   8   89.76    5.25
  -9 -10  -8   84.87    3.99
   9  10   9  334.86   17.72
   9  10   9  340.92   19.23
  -9 -10  -9  326.34   15.47
   9  10  10   23.12    2.36
   9  10  10   24.46    2.70
  -9 -10 -10   26.89    2.65
   9  10  11    4.11    1.68
   9  10  11    3.26    1.91
  -9 -10 -11    4.83    1.53
   9  10  12  382.31   21.06
   9  10  12  395.17   23.75
  -9 -10 -12  389.96   18.98
   9  10  13  274.68   16.43
   9  10  13  292.79   17.44
  -9 -10 -13  298.07   17.64
   9  10  14   22.46    2.55
   9  10  14   23.50    3.12
  -9 -10 -14   22.35    3.64
   9  10  15   16.61    3.33
   9  10  15   20.29    3.23
  -9 -10 -15   22.80    2.90
   9  10  16    4.68    2.01
   9  10  16    2.79    2.69
  -9 -10 -16    4.92    1.96
   9  10  17    4.76    2.15
   9  10  17    2.74    2.98
  -9 -10 -17    6.15    2.89
   9  11  -7   47.15    6.28
   9  11  -7   36.07    4.23
  -9 -11   7   44.52    6.40
   9  11  -6  227.10   14.09
   9  11  -6  220.55   15.03
  -9 -11   6  234.55   15.19
   9  11  -5   65.05    5.12
   9  11  -5   51.65    5.45
  -9 -11   5   55.09    6.76
   9  11  -4    7.28    2.00
   9  11  -4    8.31    1.98
  -9 -11   4    7.38    2.70
   9  11  -3  386.19   23.03
   9  11  -3  339.09   17.84
  -9 -11   3  372.11   22.58
   9  11  -2    5.34    1.62
   9  11  -2    2.69    1.40
  -9 -11   2    9.14    1.61
   9  11  -1    2.84    1.31
   9  11  -1    2.98    1.09
  -9 -11   1    4.05    1.78
   9  11   0   17.72    2.83
   9  11   0   17.81    1.63
  -9 -11   0   14.80    2.94
   9  11   1   11.71    1.86
   9  11   1    9.36    1.01
  -9 -11  -1   16.61    1.84
   9  11   2  307.31   13.71
   9  11   2  257.43    8.61
  -9 -11  -2  312.95   16.16
   9  11   3   34.53    1.45
  -9 -11  -3   59.44    3.29
   9  11   4    5.53    0.57
  -9 -11  -4   10.63    1.48
  -9 -11  -5   81.67    3.17
  -9 -11  -5  122.64    6.47
   9  11   6  375.93   19.15
   9  11   6  378.80   19.83
  -9 -11  -6  324.71   13.12
   9  11   7  484.10   24.92
   9  11   7  467.54   23.44
  -9 -11  -7  423.15   18.32
   9  11   8  119.18    6.42
   9  11   8  131.07    7.07
  -9 -11  -8  109.26    5.68
   9  11   9   27.28    3.26
   9  11   9   27.94    3.80
  -9 -11  -9   27.12    2.51
   9  11  10   61.69    5.11
   9  11  10   68.90    5.89
  -9 -11 -10   56.79    4.24
   9  11  11    6.54    1.47
   9  11  11    5.75    1.75
  -9 -11 -11    7.39    1.35
   9  11  12   98.82    6.75
   9  11  12   90.22    6.37
  -9 -11 -12   97.55    6.64
   9  11  13  276.22   16.68
   9  11  13  300.91   17.55
  -9 -11 -13  295.09   18.15
   9  11  14  163.44   10.94
   9  11  14  169.39   11.08
  -9 -11 -14  169.62   10.18
   9  11  15    1.15    1.56
   9  11  15    2.57    1.53
  -9 -11 -15    0.68    1.84
   9  11  16   25.43    2.94
   9  11  16   28.10    5.21
  -9 -11 -16   28.49    3.78
   9  11  17   36.95    4.75
   9  11  17   40.11    7.15
  -9 -11 -17   49.01    5.09
   9  12  -6   10.88    3.68
   9  12  -6   10.12    3.00
  -9 -12   6   12.13    3.65
   9  12  -5    3.46    2.39
   9  12  -5    4.04    1.84
  -9 -12   5    2.12    1.76
   9  12  -4    8.18    2.74
   9  12  -4    5.31    2.00
  -9 -12   4    5.84    2.68
   9  12  -3   63.42    7.43
   9  12  -3   69.59    5.43
  -9 -12   3   84.41    7.28
   9  12  -2  184.49   11.03
   9  12  -2  173.56    9.78
  -9 -12   2  193.18   11.05
   9  12  -1   28.96    3.12
   9  12  -1   25.95    2.45
  -9 -12   1   26.61    3.91
   9  12   0  877.68   46.80
   9  12   0  753.17   35.40
  -9 -12   0  877.72   47.70
   9  12   1  515.36   28.20
   9  12   1  455.91   19.08
  -9 -12  -1  516.24   28.45
   9  12   2   87.08    3.64
  -9 -12  -2  117.21    7.42
   9  12   3   76.77    2.84
  -9 -12  -3  113.86    5.52
   9  12   4   57.62    1.75
  -9 -12  -4   90.59    5.65
   9  12   5  143.43    9.38
  -9 -12  -5  143.01    9.66
   9  12   6    9.36    2.15
   9  12   6    6.38    2.21
   9  12   7    9.98    2.11
   9  12   7    8.85    2.20
  -9 -12  -7    5.58    1.13
   9  12   8    7.52    2.04
   9  12   8    8.53    2.22
  -9 -12  -8    6.35    1.31
   9  12   9   20.02    3.03
   9  12   9   22.89    3.43
  -9 -12  -9   18.42    2.17
   9  12  10    5.05    1.56
   9  12  10    0.36    1.36
  -9 -12 -10    2.57    1.19
   9  12  11   63.24    5.28
   9  12  11   66.27    4.81
  -9 -12 -11   57.30    3.61
   9  12  12  248.34   14.60
   9  12  12  252.64   14.78
  -9 -12 -12  249.85   15.02
   9  12  13   -0.32    1.29
   9  12  13   -0.06    1.70
  -9 -12 -13    1.73    1.03
   9  12  14   17.50    3.10
   9  12  14   20.92    4.11
  -9 -12 -14   19.66    2.64
   9  12  15   30.47    3.23
   9  12  15   36.06    5.61
  -9 -12 -15   41.30    4.99
   9  12  16  113.83    8.54
   9  12  16   56.07    9.89
  -9 -12 -16  150.33   11.38
   9  13  -5  419.31   27.59
   9  13  -5  385.26   25.60
  -9 -13   5  432.50   31.70
   9  13  -4    3.30    1.71
   9  13  -4    0.91    1.60
  -9 -13   4    0.98    2.13
   9  13  -3    2.94    1.66
   9  13  -3    0.96    1.46
  -9 -13   3    2.47    1.56
   9  13  -2  335.27   22.14
   9  13  -2  277.27   15.62
  -9 -13   2  314.78   18.05
   9  13  -1   25.29    3.47
   9  13  -1   28.58    2.76
  -9 -13   1   30.65    4.40
   9  13   0    2.77    1.26
   9  13   0    1.66    0.93
  -9 -13   0   -0.82    1.24
   9  13   1   85.46    5.97
   9  13   1   71.70    3.90
  -9 -13  -1   95.62    7.18
   9  13   2  178.56    6.96
  -9 -13  -2  236.60   12.37
   9  13   3    0.75    0.45
  -9 -13  -3    2.67    1.10
   9  13   4    1.19    1.20
  -9 -13  -4    2.75    1.59
   9  13   5  104.78    7.70
  -9 -13  -5   99.34    6.16
   9  13   6   18.34    2.41
   9  13   7  302.96   15.83
   9  13   8  114.85    6.84
   9  13   9  133.38    8.78
   9  13   9  137.39    9.88
  -9 -13  -9  104.97    6.21
   9  13  10   64.63    5.22
   9  13  10   61.66    6.04
  -9 -13 -10   52.29    3.09
   9  13  11  266.54   15.92
   9  13  11  285.85   16.15
  -9 -13 -11  242.88   13.92
   9  13  12   42.56    3.43
   9  13  12   43.61    4.41
  -9 -13 -12   46.12    4.14
   9  13  13   53.23    4.04
   9  13  13   61.58    6.63
  -9 -13 -13   50.00    5.46
   9  13  14  195.62   13.56
   9  13  14  246.08   18.15
  -9 -13 -14  225.48   15.56
   9  13  15   63.11    5.72
   9  13  15   54.30    6.30
  -9 -13 -15   65.38    7.17
   9  13  16   20.02    3.66
   9  13  16   34.09    5.67
  -9 -13 -16   30.16    4.88
   9  14  -3   10.30    3.73
   9  14  -3    8.64    2.47
  -9 -14   3   14.32    3.48
   9  14  -2  106.30    8.81
   9  14  -2  103.52    7.08
  -9 -14   2   96.32    9.90
   9  14  -1   17.94    3.90
   9  14  -1   13.65    2.17
  -9 -14   1   18.06    3.70
   9  14   0    9.58    2.25
   9  14   0    5.57    1.57
  -9 -14   0   11.90    2.17
   9  14   1    5.80    1.08
  -9 -14  -1    6.60    2.42
   9  14   2    3.11    0.79
  -9 -14  -2    2.56    1.97
   9  14   3  140.03   10.58
  -9 -14  -3  135.09   10.33
   9  14   4  403.27   25.15
  -9 -14  -4  390.73   24.91
   9  14   5   50.39    3.61
   9  14   5   11.09    1.73
   9  14   6   96.27    6.60
   9  14   6  100.76    8.42
   9  14   7  204.16   13.63
   9  14   7  206.27   12.70
   9  14   8   62.82    6.07
   9  14   9   11.63    2.69
   9  14  10  147.22    8.65
   9  14  11   44.48    4.51
  -9 -14 -11   36.68    3.69
   9  14  12    8.30    1.85
   9  14  12   12.23    3.04
  -9 -14 -12    9.04    1.68
   9  14  13   19.82    3.11
   9  14  13   19.38    3.20
  -9 -14 -13   18.50    3.23
   9  14  14    6.68    2.14
   9  14  14    6.70    2.87
  -9 -14 -14    4.60    2.32
   9  14  15   21.70    3.32
   9  14  15   21.14    3.75
  -9 -14 -15   20.27    4.25
   9  14  16   11.26    2.87
   9  14  16   16.81    4.42
  -9 -14 -16   15.14    3.84
   9  15  -2    7.10    3.26
   9  15  -2    5.50    2.01
  -9 -15   2    6.81    2.96
   9  15  -1   60.81    6.69
   9  15  -1   61.88    5.02
  -9 -15   1   62.92    7.81
   9  15   0  118.19    7.39
  -9 -15   0  139.24    9.87
  -9 -15  -1    3.88    2.31
  -9 -15  -2  139.76    9.70
   9  15   3   21.96    4.16
  -9 -15  -3   23.74    3.20
   9  15   4    6.04    2.27
  -9 -15  -4    4.14    1.79
   9  15   5    1.65    1.22
   9  15   5    0.00    1.23
   9  15   6    5.32    2.11
   9  15   6    2.85    1.64
   9  15   7   98.71    9.12
   9  15   7  123.47   10.13
   9  15   8  158.68   12.00
   9  15   8  157.81   10.92
   9  15   9   26.36    3.97
   9  15   9   25.08    4.58
   9  15  10   14.86    3.00
   9  15  11   50.53    5.37
   9  15  12  107.20    8.83
   9  15  13   34.27    4.25
  -9 -15 -13   35.63    4.41
   9  15  14    5.10    1.55
  -9 -15 -14    5.90    2.36
   9  15  15   46.07    5.55
   9  15  15   60.21    8.18
  -9 -15 -15   56.70    5.10
  -9 -16   0    2.74    2.35
  -9 -16  -1   50.05    6.83
   9  16   2   31.68    6.00
  -9 -16  -2   40.63    4.31
   9  16   3   31.75    4.21
  -9 -16  -3   34.97    5.31
   9  16   4   34.10    5.25
   9  16   5  120.89    8.77
   9  16   5  117.93    8.43
   9  16   6    4.49    1.83
   9  16   6    5.49    2.50
   9  16   7    1.05    1.52
   9  16   7    6.75    2.20
   9  16   8   47.99    5.98
   9  16   8   50.42    6.33
   9  16   9  121.34    9.72
   9  16   9  109.07    8.52
   9  16  10   12.01    3.03
   9  16  10   11.90    2.66
   9  16  11   14.76    3.51
   9  16  11   21.27    4.24
   9  16  12    4.08    1.71
   9  16  12    7.70    2.21
   9  16  13   23.06    3.78
   9  16  14   -0.17    1.23
   9  17   3   10.08    3.57
  -9 -17  -3    8.15    3.26
   9  17   4   32.78    5.56
   9  17   4   25.33    3.92
   9  17   5   52.91    6.76
   9  17   5   79.43    7.66
   9  17   6    1.86    1.46
   9  17   6    0.63    2.07
   9  17   7   26.09    3.62
   9  17   7   27.26    5.01
   9  17   8   77.34    6.65
   9  17   8   95.73    9.00
   9  17   9   13.75    3.40
   9  17   9   14.89    3.91
   9  17  10    0.58    1.88
   9  17  10    4.13    2.29
   9  17  11   82.18    8.08
   9  17  11   97.19    7.94
   9  17  12   11.39    2.97
   9  17  12   11.84    3.03
   9  17  13   25.54    4.27
   9  17  13   29.73    5.78
   9  18   7   13.22    2.86
   9  18   7   14.84    3.96
   9  18   8    6.16    2.56
   9  18   8   18.44    3.70
   9  18   9   12.58    3.60
   9  18   9   16.11    4.21
   9  18  10   10.87    2.38
   9  18  10    8.10    3.68
 -10  11   8    7.60    3.70
 -10  11   7   31.84    6.16
 -10  11   6   75.53    9.47
 -10  11   5   44.00    5.53
 -10  11   5   40.29    6.80
  10 -10 -11   18.97    4.23
 -10  10  11   28.80    5.85
  10 -10 -10  136.99   14.56
  10 -10  -9   43.80    5.64
 -10  10   8   16.84    4.59
 -10  10   7    6.21    3.26
 -10  10   7    6.41    3.17
 -10  10   6    5.48    2.70
 -10  10   6    1.79    2.64
 -10  10   5    6.28    2.91
 -10  10   5    4.90    2.92
 -10  10   4    0.87    1.69
 -10  10   4    2.31    1.65
 -10  10   3  101.17    8.73
 -10  10   3  101.56   10.10
 -10  10   2   47.66    6.73
 -10  10   2   35.75    4.61
 -10  10   1   30.02    5.79
 -10  10   1   66.67    6.51
  10  -9 -12   16.48    3.82
 -10   9  12   22.09    5.32
  10  -9 -11    2.23    1.86
 -10   9  11    2.08    2.69
  10  -9 -10   42.96    6.86
 -10   9  10   43.86    7.03
  10  -9  -9   20.83    4.01
 -10   9   9   31.55    5.50
  10  -9  -8   24.75    5.01
  10  -9  -7   66.54    8.27
 -10   9   6   40.08    5.85
 -10   9   6   36.14    5.99
 -10   9   5   48.11    5.45
 -10   9   5   54.55    5.20
 -10   9   4    4.35    2.58
 -10   9   4    4.72    1.97
 -10   9   3  447.76   33.32
 -10   9   3  436.38   29.88
 -10   9   2    4.58    2.18
 -10   9   2    7.38    2.01
 -10   9   1  138.49   13.99
 -10   9   1  164.38   10.84
  10  -9   0   62.06    6.81
 -10   9   0   67.03    8.30
 -10   9   0   77.84    7.61
  10  -9   1  171.41   14.63
 -10   9  -1  222.13   15.23
 -10   9  -1  190.73   14.00
  10  -8 -13    1.00    1.82
 -10   8  13    0.38    2.44
 -10   8  13    1.45    1.40
  10  -8 -12   14.20    3.50
 -10   8  12   16.43    3.58
  10  -8 -11    2.69    2.11
 -10   8  11    4.07    2.14
  10  -8 -10   97.14   10.62
 -10   8  10  109.55    8.67
  10  -8  -9  434.18   28.66
 -10   8   9  454.59   28.28
  10  -8  -8  561.02   39.38
 -10   8   8  591.54   40.28
  10  -8  -7  127.22   11.41
  10  -8  -6    6.30    2.05
 -10   8   5  419.23   25.88
 -10   8   4    1.95    2.27
 -10   8   4    4.09    2.16
 -10   8   3   90.08    6.83
 -10   8   3   75.14    6.17
 -10   8   2   32.92    4.05
 -10   8   2   32.70    4.90
  10  -8  -1   62.78    6.29
 -10   8   1   91.47    8.52
 -10   8   1  101.64    8.12
  10  -8   0    1.88    1.41
 -10   8   0    5.16    2.38
 -10   8   0    6.54    1.67
  10  -8   1   17.58    2.88
 -10   8  -1   21.77    2.91
 -10   8  -1   30.47    3.42
  10  -8   2   58.82    5.58
 -10   8  -2   62.94    5.23
 -10   8  -2   73.12    7.62
  10  -8   3   36.98    5.89
 -10   8  -3   37.60    3.98
 -10   8  -3   41.48    5.61
  10  -7 -14   77.34   10.42
 -10   7  14   71.51   10.34
 -10   7  14   65.88    7.03
  10  -7 -13   12.39    3.24
 -10   7  13   14.45    4.33
 -10   7  13   11.15    2.10
  10  -7 -12  110.58    8.59
 -10   7  12   59.70    8.16
 -10   7  12   91.09    6.71
  10  -7 -11   63.10    7.42
 -10   7  11  106.59    7.51
 -10   7  11   67.74    5.34
  10  -7 -10   47.95    6.53
 -10   7  10   60.25    6.59
 -10   7  10   37.14    3.33
  10  -7  -9   95.78    7.25
 -10   7   9   90.45    6.97
 -10   7   9   69.57    4.52
  10  -7  -8    3.83    2.42
 -10   7   8    4.61    2.48
  10  -7  -7   32.18    5.57
 -10   7   7   46.42    4.42
  10  -7  -6  187.19   11.68
 -10   7   6  185.85   11.54
  10  -7  -5   30.20    3.53
 -10   7   4    4.00    1.70
 -10   7   3    7.49    2.70
  10  -7  -2  154.16    9.82
 -10   7   2  176.10   12.82
 -10   7   2  182.96   12.40
  10  -7  -1   18.77    2.83
 -10   7   1   21.56    2.98
 -10   7   1   20.02    2.81
  10  -7   0   56.02    5.52
 -10   7   0   61.32    5.30
 -10   7   0   58.33    6.32
  10  -7   1  323.56   21.82
 -10   7  -1  362.19   21.15
 -10   7  -1  380.99   22.92
  10  -7   2    7.10    2.41
 -10   7  -2    8.65    2.34
 -10   7  -2    5.54    1.95
  10  -7   3   29.75    4.07
 -10   7  -3   43.48    4.86
 -10   7  -3   47.60    4.31
  10  -7   4   49.79    6.72
 -10   7  -4   55.43    5.59
 -10   7  -4   55.81    4.99
  10  -7   5    7.03    2.13
 -10   7  -5    3.84    2.23
 -10   7  -5    4.50    1.89
  10  -6 -14    2.73    2.99
 -10   6  14    1.53    2.85
 -10   6  14    3.89    2.03
  10  -6 -13    3.34    2.52
 -10   6  13    5.95    3.20
 -10   6  13    7.44    2.20
  10  -6 -12    2.55    1.66
 -10   6  12    0.40    1.55
 -10   6  12    0.28    1.34
  10  -6 -11    3.46    1.93
 -10   6  11    3.64    1.95
 -10   6  11    3.81    1.53
  10  -6 -10  147.26    9.91
 -10   6  10  154.53   11.98
 -10   6  10  112.09    7.15
  10  -6  -9   61.76    6.44
 -10   6   9   57.95    5.05
 -10   6   9   46.27    3.55
  10  -6  -8    7.05    2.72
 -10   6   8   10.52    2.64
 -10   6   8    5.95    1.06
  10  -6  -7  161.55   11.74
 -10   6   7  163.15    9.26
 -10   6   7  119.39    5.26
  10  -6  -6  333.00   19.68
 -10   6   6  319.65   18.58
 -10   6   6  238.57    9.08
 -10   6   5  506.36   27.02
 -10   6   4   20.00    2.79
  10  -6  -3  281.75   15.04
 -10   6   3  339.98   18.52
  10  -6  -2  220.26   12.26
 -10   6   2  274.40   17.22
  10  -6  -1   24.85    3.19
 -10   6   1   32.52    4.33
 -10   6   1   34.46    3.21
  10  -6   0   33.05    3.50
 -10   6   0   29.52    3.23
 -10   6   0   29.73    4.12
  10  -6   1    3.20    1.81
 -10   6  -1    5.69    1.56
 -10   6  -1    3.72    1.96
  10  -6   2   23.01    2.64
 -10   6  -2   21.40    3.30
 -10   6  -2   17.62    3.40
  10  -6   3    6.68    2.73
 -10   6  -3   11.44    2.53
 -10   6  -3    8.91    2.64
  10  -6   4  185.63   14.41
 -10   6  -4  178.97   11.98
 -10   6  -4  175.09   13.06
  10  -6   5   -0.05    1.49
 -10   6  -5    4.62    1.60
 -10   6  -5    0.22    1.75
  10  -6   6   71.32    6.55
 -10   6  -6   70.75    6.49
 -10   6  -6   67.79    7.10
  10  -5 -14   59.62    6.53
 -10   5  14   50.78    5.94
 -10   5  14   40.62    6.20
  10  -5 -13    5.34    3.24
 -10   5  13    7.85    2.31
 -10   5  13    3.41    2.28
  10  -5 -12  139.45   10.31
 -10   5  12  144.48   12.05
 -10   5  12  116.18    9.40
  10  -5 -11  213.08   14.07
 -10   5  11  202.40   13.42
 -10   5  11  186.40   11.79
  10  -5 -10  147.83   10.19
 -10   5  10  157.86    9.82
 -10   5  10  127.33    7.92
  10  -5  -9  291.35   19.85
 -10   5   9  309.63   16.65
 -10   5   9  261.00   12.93
  10  -5  -8  629.99   34.48
 -10   5   8  651.46   37.71
 -10   5   8  541.25   25.21
  10  -5  -7  160.51    9.56
 -10   5   7  168.42    9.47
 -10   5   7  133.53    6.32
 -10   5   6  103.25    6.18
 -10   5   6   78.64    3.95
 -10   5   5  187.54    9.32
 -10   5   5  139.19    5.19
  10  -5  -4    9.63    1.52
 -10   5   4   14.14    2.09
 -10   5   4   10.33    0.76
  10  -5  -3  153.28    8.03
 -10   5   3  186.00   11.19
  10  -5  -2    5.72    1.61
 -10   5   2   10.30    1.73
 -10   5   2    7.75    1.77
  10  -5  -1   27.95    3.25
 -10   5   1   41.29    3.31
  10  -5   0  105.07    6.82
 -10   5   0  111.43    7.98
  10  -5   1  120.31    7.92
 -10   5  -1  117.11    7.26
 -10   5  -1  125.51    8.76
  10  -5   2    2.81    1.69
 -10   5  -2    1.56    1.68
 -10   5  -2    5.14    1.71
  10  -5   3  102.95    7.04
 -10   5  -3  118.08    8.25
 -10   5  -3  110.83    8.90
  10  -5   4   57.35    5.00
 -10   5  -4   56.59    5.64
 -10   5  -4   59.40    4.60
  10  -5   5   79.71    5.71
 -10   5  -5   61.56    5.98
 -10   5  -5   50.19    6.01
  10  -5   6    1.35    2.34
 -10   5  -6    3.65    1.85
 -10   5  -6    4.04    1.86
  10  -5   7   17.75    3.97
 -10   5  -7    8.77    2.46
 -10   5  -7   22.18    3.07
  10  -4 -15    4.08    3.83
 -10   4  15    4.20    3.11
 -10   4  15    9.24    2.47
  10  -4 -14   85.81   10.22
 -10   4  14   73.84    8.89
 -10   4  14   73.27    7.91
  10  -4 -13   33.12    5.20
 -10   4  13   20.30    4.58
 -10   4  13   19.59    3.07
  10  -4 -12    3.40    2.06
 -10   4  12    3.96    1.86
 -10   4  12    3.86    1.51
  10  -4 -11    7.81    2.47
 -10   4  11   10.24    2.89
 -10   4  11    7.84    2.19
  10  -4 -10   71.30    6.57
 -10   4  10   83.35    7.59
 -10   4  10   79.49    5.53
  10  -4  -9  199.97   12.37
 -10   4   9  192.21   13.80
 -10   4   9  190.42   10.35
  10  -4  -8   24.63    3.25
 -10   4   8   31.83    3.88
 -10   4   8   22.59    2.40
 -10   4   7    2.46    1.84
 -10   4   7    2.59    1.01
 -10   4   6   46.75    3.72
 -10   4   6   43.49    2.69
 -10   4   5  460.50   21.70
 -10   4   5  379.95   14.73
  10  -4  -4   46.41    3.31
 -10   4   4   71.34    5.10
 -10   4   4   49.61    2.36
  10  -4  -3    3.24    1.18
  10  -4  -3    4.65    1.82
 -10   4   3    6.86    1.37
 -10   4   3    3.84    0.57
  10  -4  -2   25.70    2.48
  10  -4  -2   29.00    2.61
 -10   4   2   23.20    1.04
 -10   4   2   36.72    3.43
  10  -4  -1   44.95    3.63
 -10   4   1   51.16    4.83
 -10   4   1   59.33    4.73
  10  -4   0   10.02    2.00
 -10   4   0   15.39    1.87
  10  -4   1  122.65    7.81
 -10   4  -1  137.66    8.73
  10  -4   2    9.18    2.07
 -10   4  -2    6.04    2.00
  10  -4   3   66.08    6.16
 -10   4  -3   69.26    4.64
 -10   4  -3   78.22    4.58
  10  -4   4   50.85    5.52
 -10   4  -4   55.54    4.16
 -10   4  -4   52.02    5.34
  10  -4   5   72.22    6.72
 -10   4  -5   66.18    4.66
 -10   4  -5   68.79    5.77
  10  -4   6    5.17    2.26
 -10   4  -6    3.84    1.41
 -10   4  -6    3.91    1.80
  10  -4   7   19.22    2.91
 -10   4  -7   10.98    2.87
 -10   4  -7   17.33    2.29
  10  -4   8   15.96    4.19
 -10   4  -8   31.87    3.83
 -10   4  -8   34.63    4.16
  10  -4   9   43.98    5.46
 -10   4  -9   44.24    5.07
 -10   4  -9   42.99    5.38
  10  -3 -15    2.43    2.19
 -10   3  15   -1.49    2.41
 -10   3  15    3.88    1.78
  10  -3 -14   18.57    3.61
 -10   3  14   17.62    3.86
 -10   3  14   10.53    2.97
  10  -3 -13   89.16    8.04
 -10   3  13   81.85    8.64
 -10   3  13   80.27    8.33
  10  -3 -12  129.25   11.29
 -10   3  12  115.73    9.84
 -10   3  12  104.42    9.06
  10  -3 -11   14.75    2.93
 -10   3  11   16.76    3.55
 -10   3  11   19.12    2.93
  10  -3 -10  108.30    7.84
 -10   3  10  109.57    7.14
 -10   3  10  110.15    7.12
  10  -3  -9   24.06    3.15
 -10   3   9   23.30    2.85
 -10   3   9   21.92    2.84
 -10   3   8  471.06   25.98
 -10   3   8  428.18   20.77
 -10   3   7  157.59    8.57
 -10   3   7  150.87    7.53
 -10   3   6  475.74   25.16
 -10   3   6  428.62   18.28
  10  -3  -5   51.22    2.91
 -10   3   5   67.98    5.03
 -10   3   5   43.97    2.85
  10  -3  -4  303.31   13.21
  10  -3  -4  343.07   16.16
 -10   3   4  329.05   15.09
 -10   3   4  292.95   11.49
  10  -3  -3   30.84    2.85
  10  -3  -3   54.72    4.12
 -10   3   3   46.71    4.01
 -10   3   3   39.27    1.93
  10  -3  -2   20.64    2.33
  10  -3  -2   29.99    2.39
 -10   3   2   23.00    2.41
  10  -3  -1  223.34    9.55
  10  -3  -1  229.34   12.56
 -10   3   1  245.12   10.99
  10  -3   0    1.32    1.26
 -10   3   0    5.09    1.49
 -10   3   0    2.43    1.49
  10  -3   1   31.43    3.22
 -10   3  -1   34.47    3.46
 -10   3  -1   32.45    3.58
  10  -3   2   92.43    5.37
 -10   3  -2  101.19    6.49
  10  -3   3    6.47    2.10
 -10   3  -3    9.18    1.89
  10  -3   4   38.00    4.39
 -10   3  -4   42.54    3.98
 -10   3  -4   38.45    3.68
  10  -3   5  198.80   11.54
 -10   3  -5  189.23   11.40
 -10   3  -5  180.88   10.89
  10  -3   6   34.92    4.20
 -10   3  -6   22.36    2.51
 -10   3  -6   33.19    3.60
  10  -3   7   11.34    2.87
 -10   3  -7    7.19    2.10
 -10   3  -7    7.17    2.31
  10  -3   8   32.09    3.92
 -10   3  -8   29.52    3.80
 -10   3  -8   35.13    4.25
  10  -3   9  409.92   28.70
 -10   3  -9  309.20   18.76
 -10   3  -9  361.84   19.56
  10  -3  10   46.77    7.34
 -10   3 -10   42.82    4.77
 -10   3 -10   39.44    5.44
  10  -2 -14   94.70   10.59
 -10   2  14   73.78    8.01
 -10   2  14   80.44    9.27
  10  -2 -13   10.24    3.43
 -10   2  13    7.37    2.80
 -10   2  13    6.55    2.91
  10  -2 -12    2.53    2.47
 -10   2  12    3.19    1.54
 -10   2  12    3.38    1.55
  10  -2 -11  538.51   32.17
 -10   2  11  529.25   32.18
 -10   2  11  544.13   31.51
  10  -2 -10  211.35   15.38
 -10   2  10  212.85   12.41
 -10   2  10  198.59   11.01
 -10   2   9   45.51    3.73
 -10   2   9   48.88    4.24
 -10   2   8   52.05    4.85
 -10   2   8   47.22    3.05
 -10   2   7   13.52    2.38
 -10   2   7   10.53    1.78
  10  -2  -6   65.26    3.51
 -10   2   6   71.20    5.39
 -10   2   6   58.61    4.15
  10  -2  -5  193.49    8.47
  10  -2  -5  199.45   11.94
 -10   2   5  204.77   11.25
 -10   2   5  195.24    8.42
  10  -2  -4   39.90    2.75
  10  -2  -4   60.83    4.24
 -10   2   4   53.27    3.22
 -10   2   4   39.71    2.54
  10  -2  -3  298.57   13.01
  10  -2  -3  330.49   14.94
 -10   2   3  325.39   15.98
 -10   2   3  291.22   10.96
  10  -2  -2 1068.99   51.12
  10  -2  -2 1092.53   59.47
 -10   2   2 1121.09   56.16
 -10   2   2  967.76   43.73
  10  -2  -1    5.73    1.37
  10  -2  -1    4.60    1.66
 -10   2   1    5.37    1.72
 -10   2   1    5.40    0.73
  10  -2   0  113.18    6.44
  10  -2   0  114.12    6.79
 -10   2   0  119.29    6.95
 -10   2   0   98.80    3.74
  10  -2   1    8.61    1.48
 -10   2  -1    8.75    2.03
 -10   2  -1   15.09    2.08
  10  -2   2  729.80   38.33
 -10   2  -2  726.39   34.77
 -10   2  -2  797.67   41.01
  10  -2   3    5.38    1.29
 -10   2  -3    3.44    1.59
 -10   2  -3    3.17    1.45
  10  -2   4  224.92   13.24
 -10   2  -4  212.56   11.47
  10  -2   5   20.28    3.02
 -10   2  -5   15.63    1.81
  10  -2   6   22.16    2.38
 -10   2  -6    8.79    1.65
 -10   2  -6   20.04    2.63
  10  -2   7   13.89    3.14
 -10   2  -7    7.38    1.55
 -10   2  -7   20.00    1.99
  10  -2   8   36.45    4.29
 -10   2  -8   37.88    3.74
 -10   2  -8   42.72    3.58
  10  -2   9   18.36    3.82
 -10   2  -9   14.33    2.57
 -10   2  -9   16.83    3.18
  10  -2  10   43.79    5.16
 -10   2 -10   36.79    3.43
 -10   2 -10   45.48    5.29
  10  -1 -14    1.10    2.46
 -10   1  14    2.33    1.77
  10  -1 -13    7.04    2.57
 -10   1  13    6.90    2.66
 -10   1  13   11.07    3.11
  10  -1 -12   13.96    2.93
 -10   1  12   14.85    2.99
 -10   1  12   12.72    2.54
  10  -1 -11    5.49    2.62
 -10   1  11    4.73    2.07
 -10   1  11    6.20    1.70
 -10   1  10  584.02   32.94
 -10   1  10  605.31   33.71
 -10   1   9   12.95    2.52
 -10   1   9   11.86    1.85
 -10   1   8  187.67   11.21
 -10   1   8  195.46   10.51
 -10   1   7    5.22    1.31
 -10   1   7    4.78    1.16
  10  -1  -6    4.94    1.11
  10  -1  -6    6.82    2.02
 -10   1   6    9.25    1.78
 -10   1   6    5.09    1.41
  10  -1  -5    5.52    1.11
  10  -1  -5    5.78    1.42
 -10   1   5    4.32    1.69
 -10   1   5    5.30    1.22
  10  -1  -4  193.68    8.60
  10  -1  -4  206.58    9.80
 -10   1   4  199.69    9.01
 -10   1   4  208.83    8.63
  10  -1  -3   29.29    2.43
  10  -1  -3   23.74    3.14
 -10   1   3   20.64    2.99
 -10   1   3   33.68    2.10
  10  -1  -2  113.18    5.69
  10  -1  -2  118.79    5.63
 -10   1   2  104.23    4.23
 -10   1   2  120.91    5.62
  10  -1  -1  805.26   38.44
  10  -1  -1  826.82   38.14
 -10   1   1  851.56   39.05
 -10   1   1  746.04   31.61
  10  -1   0   12.04    1.49
  10  -1   0   15.33    2.02
 -10   1   0   11.49    1.63
 -10   1   0   11.06    1.20
  10  -1   1   49.58    3.12
 -10   1  -1   62.25    4.08
  10  -1   2   26.46    2.64
 -10   1  -2   31.48    3.01
 -10   1  -2   45.59    3.41
  10  -1   3   67.13    3.66
 -10   1  -3   70.17    4.45
 -10   1  -3   37.26    3.83
  10  -1   4   29.29    3.13
 -10   1  -4   26.79    2.88
 -10   1  -4   21.52    2.46
  10  -1   5    9.62    2.26
 -10   1  -5    8.91    1.65
  10  -1   6   76.66    6.63
 -10   1  -6   80.82    4.76
  10  -1   7    6.91    1.63
 -10   1  -7    3.77    1.39
  10  -1   8    4.83    1.71
 -10   1  -8    3.75    1.39
 -10   1  -8    4.99    1.39
  10  -1   9   35.08    4.71
 -10   1  -9   24.57    2.88
 -10   1  -9   28.79    3.82
  10  -1  10   74.37    8.24
 -10   1 -10   75.24    6.72
 -10   1 -11   71.24    5.73
  10   0 -14    3.92    2.94
 -10   0  14    2.94    2.06
  10   0 -13   48.90    5.78
 -10   0  13   53.58    6.97
  10   0 -12   47.20    6.27
 -10   0  12   30.73    4.63
 -10   0  12   46.60    4.38
 -10   0  11    6.16    2.08
 -10   0  11    7.79    1.89
 -10   0  10  159.73    8.50
 -10   0  10  164.26    9.05
 -10   0   9   23.83    3.06
 -10   0   9   22.18    3.21
 -10   0   8  773.94   37.94
 -10   0   8  799.36   42.11
  10   0  -7    3.12    0.91
  10   0  -7    1.76    1.70
 -10   0   7    1.04    1.42
 -10   0   7    4.06    1.37
  10   0  -6   44.94    2.53
  10   0  -6   58.28    3.63
 -10   0   6   44.54    3.92
 -10   0   6   52.00    3.59
  10   0  -5  179.57    7.57
  10   0  -5  185.34   10.74
 -10   0   5  186.99    9.45
 -10   0   5  175.94    7.24
  10   0  -4  222.64    9.77
  10   0  -4  246.91   12.67
 -10   0   4  254.98   11.92
 -10   0   4  236.33   10.15
  10   0  -3 1283.43   65.11
  10   0  -3 1315.22   72.66
 -10   0   3 1317.15   66.30
 -10   0   3 1290.39   64.46
  10   0  -2  173.60    8.04
  10   0  -2  173.00    9.03
 -10   0   2  178.88    8.79
 -10   0   2  168.15    7.05
  10   0  -1   68.95    4.53
  10   0  -1   78.88    4.68
 -10   0   1   68.63    4.74
 -10   0   1   74.84    3.50
  10   0   0  284.25   12.64
  10   0   0  265.75   10.45
 -10   0   0  294.00   12.96
 -10   0   0  236.84    8.84
  10   0   1    7.61    1.14
  10   0   1    5.60    1.36
 -10   0  -1    5.42    1.52
 -10   0  -1    4.81    0.78
  10   0   2    4.70    1.50
  10   0   2    3.27    0.72
 -10   0  -2    6.36    1.28
 -10   0  -2    7.83    1.37
  10   0   3  156.61    8.66
  10   0   3  136.33    5.32
 -10   0  -3  145.72    7.20
 -10   0  -3  152.30    6.67
  10   0   4   70.33    4.49
 -10   0  -4   44.74    3.35
 -10   0  -4   56.76    3.18
  10   0   5  146.29    9.20
 -10   0  -5  133.08    6.75
 -10   0  -5  140.79    6.84
  10   0   6  172.37   10.36
 -10   0  -6  142.30    7.30
 -10   0  -6  161.88    7.58
  10   0   7    4.42    1.63
 -10   0  -7    1.44    1.06
  10   0   8   33.86    4.06
 -10   0  -8   25.72    2.47
  10   0   9   21.40    3.38
 -10   0  -9   12.49    1.97
 -10   0  -9   18.18    2.27
  10   0  10    0.08    1.77
 -10   0 -10    1.66    1.51
 -10   0 -11   55.73    4.60
 -10   0 -12    2.08    1.90
  10   1 -14  106.52   12.76
 -10  -1  14  102.22   12.30
  10   1 -13  105.26    9.34
 -10  -1  13  109.66    9.02
 -10  -1  12    9.59    3.18
 -10  -1  11   12.10    2.53
 -10  -1  10   83.02    6.16
 -10  -1  10   93.39    7.75
 -10  -1   9  373.26   19.28
 -10  -1   9  395.96   22.14
  10   1  -8  142.49    6.87
  10   1  -8  146.67    8.37
 -10  -1   8  140.86    8.10
 -10  -1   8  147.08    9.09
  10   1  -7  679.50   30.99
  10   1  -7  729.81   36.72
 -10  -1   7  720.06   35.30
 -10  -1   7  728.02   37.17
  10   1  -6   18.46    1.59
  10   1  -6   20.13    2.84
 -10  -1   6   15.36    2.25
 -10  -1   6   13.29    2.30
  10   1  -5    6.11    1.26
  10   1  -5    6.90    1.37
 -10  -1   5    6.95    1.50
 -10  -1   5    5.32    1.15
  10   1  -4  156.29    7.09
  10   1  -4  165.95    8.96
 -10  -1   4  167.85    7.93
 -10  -1   4  158.22    7.71
  10   1  -3    3.41    1.04
  10   1  -3    4.92    1.34
 -10  -1   3    1.43    0.89
 -10  -1   3    3.14    1.05
  10   1  -2  156.29    7.29
  10   1  -2  160.80    8.19
 -10  -1   2  161.16    7.66
 -10  -1   2  154.72    6.98
  10   1  -1  115.43    5.06
  10   1  -1  115.93    6.18
 -10  -1   1  121.29    5.37
 -10  -1   1  120.29    6.32
  10   1   0  193.92    8.90
  10   1   0  181.44    8.36
 -10  -1   0  194.36    8.76
 -10  -1   0  171.57    7.25
  10   1   1   69.86    3.43
  10   1   1   69.64    3.71
 -10  -1  -1   62.08    4.01
 -10  -1  -1   57.31    2.78
  10   1   2   16.90    2.15
  10   1   2   15.17    1.74
 -10  -1  -2   14.98    1.53
 -10  -1  -2   15.28    1.43
  10   1   3   14.68    1.67
  10   1   3   11.97    1.37
 -10  -1  -3   14.98    1.70
 -10  -1  -3   16.06    1.48
  10   1   4   35.77    3.09
  10   1   4   25.61    1.87
 -10  -1  -4   23.87    2.20
 -10  -1  -4   30.88    2.09
  10   1   5  139.93    8.23
  10   1   5  120.85    5.12
 -10  -1  -5  117.79    5.64
 -10  -1  -5  130.70    7.19
  10   1   6   19.96    2.18
 -10  -1  -6   14.30    1.71
 -10  -1  -6   20.37    2.39
  10   1   7   13.22    1.59
 -10  -1  -7    3.62    1.03
 -10  -1  -7    5.01    1.33
  10   1   8   74.99    6.26
 -10  -1  -8   69.05    5.55
  10   1   9  164.17   12.21
 -10  -1 -11   35.75    3.60
  10   1  12   69.23    8.06
 -10  -1 -12   63.05    6.74
  10   1  13   60.27    7.54
 -10  -1 -13   43.30    6.34
 -10  -2  11  786.39   51.41
 -10  -2  10  244.35   16.65
  10   2  -9  236.95   15.62
 -10  -2   9  222.50   11.58
 -10  -2   9  250.13   12.92
  10   2  -8   11.28    1.70
  10   2  -8   11.88    2.06
 -10  -2   8   10.67    1.95
 -10  -2   8   14.88    2.60
  10   2  -7  658.72   30.28
  10   2  -7  695.13   34.48
 -10  -2   7  646.38   30.71
 -10  -2   7  693.17   36.51
  10   2  -6  465.85   20.91
  10   2  -6  506.31   25.99
 -10  -2   6  491.26   22.08
 -10  -2   6  506.33   22.70
  10   2  -5  282.32   12.19
  10   2  -5  283.42   14.64
 -10  -2   5  279.31   12.48
 -10  -2   5  289.76   13.87
  10   2  -4  117.85    5.85
  10   2  -4  123.17    6.96
 -10  -2   4  118.00    5.79
 -10  -2   4  118.10    6.45
  10   2  -3   79.59    3.64
  10   2  -3   84.86    4.95
 -10  -2   3   86.13    4.38
 -10  -2   3   74.37    3.70
  10   2  -2    4.88    1.19
  10   2  -2    2.59    1.26
 -10  -2   2    3.09    1.14
 -10  -2   2    3.53    1.11
  10   2  -1 1173.15   58.15
  10   2  -1 1150.50   57.24
 -10  -2   1 1141.30   53.29
 -10  -2   1 1122.25   54.66
  10   2   0  763.51   35.42
  10   2   0  747.40   33.95
 -10  -2   0  779.75   33.03
 -10  -2   0  744.17   33.00
  10   2   1  180.71    7.41
  10   2   1  179.61    6.51
 -10  -2  -1  165.08    7.24
 -10  -2  -1  183.39    8.07
  10   2   2  388.35   17.85
  10   2   2  368.21   14.84
 -10  -2  -2  382.55   16.48
 -10  -2  -2  363.00   14.94
  10   2   3   22.10    2.70
  10   2   3   23.42    1.86
 -10  -2  -3   23.71    2.31
 -10  -2  -3   24.33    1.90
  10   2   4    1.96    1.03
  10   2   4    2.94    0.90
 -10  -2  -4    2.26    0.88
 -10  -2  -4    3.70    0.88
  10   2   5  186.26   10.12
  10   2   5  180.25    7.64
 -10  -2  -5  161.45    6.45
 -10  -2  -5  183.93    7.88
  10   2   6  657.46   31.82
  10   2   6  599.82   26.55
 -10  -2  -6  547.04   23.82
 -10  -2  -6  626.18   30.92
  10   2   7   83.20    5.78
  10   2   7   63.11    3.59
 -10  -2  -7   80.68    4.08
  10   2   8  214.11   10.92
  10   2   8  180.93    8.50
 -10  -2  -8  186.41   10.58
  10   2   9    2.79    1.22
 -10  -2  -9    0.81    1.06
  10   2  12  114.85    8.15
  10   2  13   28.39    3.86
 -10  -2 -13   22.62    3.35
 -10  -3  13   64.08    7.00
  10   3 -11  285.89   21.45
  10   3 -10  162.42   10.59
  10   3  -9   99.10    5.96
  10   3  -9  106.78    7.13
  10   3  -8    8.59    1.70
  10   3  -8   11.33    2.52
 -10  -3   8    9.35    2.61
  10   3  -7  275.55   12.96
  10   3  -7  297.81   14.44
 -10  -3   7  279.32   12.59
 -10  -3   7  306.44   16.62
  10   3  -6  105.65    5.86
  10   3  -6  109.60    5.99
 -10  -3   6  107.53    5.43
 -10  -3   6  113.23    6.03
  10   3  -5    3.25    0.91
  10   3  -5    3.11    1.48
 -10  -3   5    3.51    0.98
 -10  -3   5    4.60    1.49
  10   3  -4  455.60   20.49
  10   3  -4  475.23   20.25
 -10  -3   4  446.94   18.69
 -10  -3   4  476.03   20.25
  10   3  -3  902.70   40.53
  10   3  -3  916.01   44.77
 -10  -3   3  891.23   40.26
 -10  -3   3  911.94   42.33
  10   3  -2    1.17    0.97
  10   3  -2    1.40    0.97
 -10  -3   2    1.50    0.85
 -10  -3   2    0.73    0.99
  10   3  -1   41.09    2.65
  10   3  -1   46.06    3.03
 -10  -3   1   48.98    3.05
 -10  -3   1   39.20    2.18
  10   3   0    2.71    1.29
  10   3   0    5.38    1.09
 -10  -3   0    4.42    1.09
 -10  -3   0    4.64    1.17
  10   3   1    6.54    1.49
  10   3   1    6.48    1.13
 -10  -3  -1    5.83    1.21
 -10  -3  -1    5.59    1.21
  10   3   2  575.57   24.56
  10   3   2  545.12   22.40
 -10  -3  -2  573.39   24.56
 -10  -3  -2  555.52   22.22
  10   3   3  231.13    9.60
  10   3   3  208.65    8.18
 -10  -3  -3  229.02    8.76
 -10  -3  -3  219.14    9.38
  10   3   4   68.78    4.58
  10   3   4   76.49    3.53
 -10  -3  -4   60.94    2.93
 -10  -3  -4   61.68    3.04
  10   3   5 1256.35   67.84
  10   3   5 1168.23   57.27
 -10  -3  -5 1099.81   51.39
 -10  -3  -5 1169.70   60.46
  10   3   6   24.00    2.01
  10   3   6   16.02    1.84
 -10  -3  -6   11.30    1.32
 -10  -3  -6   17.43    1.69
  10   3   7  187.58   10.81
  10   3   7  164.11    7.90
 -10  -3  -7  169.10    9.38
  10   3   8   85.30    6.54
  10   3   8   67.57    4.30
 -10  -3  -8   77.20    4.01
  10   3   9   36.73    3.17
 -10  -3  -9   44.51    2.99
  10   3  10  107.63    6.39
 -10  -3 -10  115.76    7.61
  10   3  11   11.52    2.81
 -10  -3 -11    9.01    2.50
  10   3  12    8.49    2.11
  10   3  13    8.35    3.01
  10   3  14    5.22    2.36
 -10  -3 -14    0.21    2.11
  10   4 -12  133.14   13.94
 -10  -4  12  148.52   11.35
  10   4 -11   15.25    4.02
 -10  -4  11   13.82    3.93
  10   4 -10  168.95   11.00
  10   4  -9  716.78   37.25
  10   4  -9  791.82   43.33
  10   4  -8  218.27   11.26
  10   4  -8  228.34   12.21
  10   4  -7  101.44    5.75
  10   4  -7   99.35    7.11
  10   4  -6   11.49    1.87
  10   4  -6   12.90    2.20
 -10  -4   6   10.09    1.27
  10   4  -5    1.81    0.81
  10   4  -5    0.79    1.21
 -10  -4   5    1.03    0.81
 -10  -4   5    3.72    1.34
  10   4  -4   11.75    1.78
  10   4  -4    9.32    1.92
 -10  -4   4    8.07    1.34
 -10  -4   4   15.78    2.08
  10   4  -3 1037.49   50.91
  10   4  -3 1000.26   47.26
 -10  -4   3 1003.48   45.12
 -10  -4   3 1046.19   50.82
  10   4  -2  388.18   15.84
  10   4  -2  396.04   16.98
 -10  -4   2  378.77   14.59
 -10  -4   2  387.24   15.90
  10   4  -1   92.71    4.99
  10   4  -1   78.42    4.43
 -10  -4   1   77.68    3.80
 -10  -4   1   89.62    4.83
  10   4   0    2.49    0.92
  10   4   0    3.39    0.95
 -10  -4   0    4.48    1.18
 -10  -4   0    2.01    0.92
  10   4   1  113.60    6.08
  10   4   1  106.64    4.66
 -10  -4  -1  103.68    4.94
 -10  -4  -1  106.92    4.61
  10   4   2   78.83    5.07
  10   4   2   77.23    3.68
 -10  -4  -2   82.49    4.12
 -10  -4  -2   83.57    4.53
  10   4   3   72.18    4.31
  10   4   3   59.16    2.81
 -10  -4  -3   62.49    3.53
 -10  -4  -3   61.89    3.11
  10   4   4   27.54    2.64
  10   4   4   22.97    2.08
 -10  -4  -4   21.73    1.62
 -10  -4  -4   19.41    1.30
  10   4   5   42.56    2.87
  10   4   5   44.62    2.93
 -10  -4  -5   31.91    2.88
  10   4   6    6.39    1.33
  10   4   6    6.75    1.31
 -10  -4  -6    4.33    1.05
  10   4   7  187.37    9.29
  10   4   7  178.45    8.71
 -10  -4  -7  176.30    7.83
  10   4   8  542.26   26.15
 -10  -4  -8  548.54   27.87
  10   4   9    1.85    1.09
 -10  -4  -9    0.36    1.20
  10   4  10  315.57   16.28
 -10  -4 -10  325.59   17.68
  10   4  11    1.38    1.65
  10   4  11    0.17    1.22
 -10  -4 -11    2.98    1.40
  10   4  12   29.52    4.62
  10   4  12   32.01    3.60
 -10  -4 -12   32.19    3.97
  10   4  13   10.10    3.11
  10   4  14    4.20    2.51
  10   5 -12   33.95    7.06
 -10  -5  12   44.62    5.60
  10   5 -11   36.93    6.55
 -10  -5  11   48.62    6.71
  10   5 -10  142.76    7.97
  10   5 -10  164.82   12.92
 -10  -5  10  170.06   13.21
  10   5  -9   45.90    3.25
  10   5  -9   43.23    4.22
 -10  -5   9   49.02    6.06
  10   5  -8    3.14    1.34
  10   5  -8    0.91    1.33
 -10  -5   8    2.27    1.88
  10   5  -7   88.84    5.49
  10   5  -7   85.57    5.17
  10   5  -6  186.83    9.92
  10   5  -6  186.64   10.80
  10   5  -5  132.93    7.37
  10   5  -5  135.28    7.83
  10   5  -4   12.85    2.06
  10   5  -4   13.17    2.06
 -10  -5   4   12.41    1.13
  10   5  -3  510.39   21.73
  10   5  -3  522.24   23.65
 -10  -5   3  499.09   19.16
  10   5  -2   72.09    3.67
  10   5  -2   78.80    3.97
 -10  -5   2   57.73    3.01
 -10  -5   2   72.16    4.92
  10   5  -1  236.21   11.14
  10   5  -1  221.47    9.68
 -10  -5   1  240.39   11.79
 -10  -5   1  225.08    8.57
  10   5   0  665.75   29.09
  10   5   0  658.27   27.71
 -10  -5   0  646.98   26.03
 -10  -5   0  670.32   29.33
  10   5   1  140.66    7.38
  10   5   1  123.86    5.47
 -10  -5  -1  135.35    5.41
 -10  -5  -1  141.24    5.90
  10   5   2  366.44   17.04
  10   5   2  351.00   12.90
 -10  -5  -2  343.15   13.57
 -10  -5  -2  345.98   15.88
  10   5   3   14.09    1.96
  10   5   3   10.31    0.95
 -10  -5  -3   12.48    1.43
 -10  -5  -3    9.99    1.34
  10   5   4    4.28    1.36
  10   5   4    2.66    0.56
 -10  -5  -4    3.33    0.99
 -10  -5  -4    2.54    1.20
  10   5   5    2.96    1.19
  10   5   5    1.55    0.98
 -10  -5  -5    0.71    0.67
  10   5   6 1083.10   58.72
  10   5   6 1032.16   53.85
 -10  -5  -6 1022.72   49.23
  10   5   7  234.98   12.57
  10   5   7  224.07   11.10
 -10  -5  -7  218.76    9.65
  10   5   8  129.59    7.31
 -10  -5  -8  127.85    7.46
  10   5   9   68.89    4.79
 -10  -5  -9   69.96    3.92
  10   5  10  233.56   12.47
  10   5  10  213.10   11.80
 -10  -5 -10  202.22   10.19
  10   5  11   59.10    5.64
  10   5  11   56.03    4.66
 -10  -5 -11   58.53    3.78
  10   5  12    1.26    1.80
  10   5  12    2.77    1.42
 -10  -5 -12    1.22    1.20
  10   5  13  194.95   12.45
  10   5  13  194.87   12.87
 -10  -5 -13  196.72   13.47
  10   5  14   20.59    4.15
  10   5  14   20.77    3.61
 -10  -5 -14   26.87    4.20
  10   5  15    3.79    2.52
  10   6 -11   14.46    4.16
 -10  -6  11   12.48    4.30
  10   6 -10  216.82   14.45
  10   6 -10  242.10   17.99
 -10  -6  10  253.07   19.52
  10   6  -9  231.59   14.11
  10   6  -9  249.66   17.29
 -10  -6   9  265.54   16.38
  10   6  -8  114.90    7.67
  10   6  -8  112.08    7.49
 -10  -6   8  119.85    9.99
  10   6  -7  722.18   39.02
  10   6  -7  726.80   38.04
 -10  -6   7  810.77   43.18
  10   6  -6  529.47   27.32
  10   6  -6  547.85   29.14
 -10  -6   6  597.88   29.90
  10   6  -5  287.42   14.69
  10   6  -5  277.32   12.83
 -10  -6   5  301.90   14.76
  10   6  -4  534.26   26.04
  10   6  -4  517.83   22.69
  10   6  -3  193.42    8.43
  10   6  -3  184.57    9.21
 -10  -6   3  180.55    6.10
  10   6  -2  954.41   46.31
  10   6  -2  959.07   45.73
 -10  -6   2  945.98   39.76
  10   6  -1  269.77   11.41
  10   6  -1  260.14   10.85
 -10  -6   1  263.04    9.33
  10   6   0  985.11   49.86
  10   6   0  943.25   42.66
 -10  -6   0  944.59   39.50
 -10  -6   0  973.87   47.03
  10   6   1  194.04    8.41
  10   6   1  185.18    7.19
 -10  -6  -1  180.10    6.63
 -10  -6  -1  187.66    9.53
  10   6   2    2.52    1.26
  10   6   2    1.92    0.71
 -10  -6  -2    2.68    0.79
 -10  -6  -2    2.91    1.19
  10   6   3  169.85    8.71
  10   6   3  148.60    4.94
 -10  -6  -3  158.13    6.49
 -10  -6  -3  161.80    8.30
  10   6   4   83.14    5.13
  10   6   4   62.11    2.24
 -10  -6  -4   73.61    3.65
 -10  -6  -4   73.14    3.67
  10   6   5  131.58    6.42
  10   6   5   92.63    5.76
 -10  -6  -5   91.10    4.89
  10   6   6   33.00    3.07
  10   6   6   25.17    2.13
 -10  -6  -6   24.25    2.34
  10   6   7  153.34    8.42
 -10  -6  -7  151.53    7.74
  10   6   8   61.75    3.52
 -10  -6  -8   62.69    4.18
  10   6   9  101.15    6.62
 -10  -6  -9  103.58    6.35
  10   6  10  124.82    8.20
  10   6  10  103.85    7.13
 -10  -6 -10  107.26    6.10
  10   6  11   55.68    5.25
  10   6  11   54.61    4.46
 -10  -6 -11   49.71    4.64
  10   6  12   73.13    6.38
  10   6  12   63.51    4.40
 -10  -6 -12   66.00    5.91
  10   6  13   12.89    3.14
  10   6  13    9.95    2.78
 -10  -6 -13   16.02    2.20
  10   6  14    6.37    2.41
  10   6  14    3.57    2.22
 -10  -6 -14    6.42    2.42
  10   6  15   39.05    4.37
  10   6  15   36.62    3.97
 -10  -6 -15   47.89    4.64
  10   7 -10   71.75    6.93
  10   7 -10   66.18    8.42
 -10  -7  10   83.54    9.14
  10   7  -9   14.87    3.27
  10   7  -9   17.32    3.59
 -10  -7   9   20.12    3.09
  10   7  -8   95.14    6.19
  10   7  -8   91.69    8.44
 -10  -7   8  136.09    9.85
  10   7  -7  292.67   16.65
  10   7  -7  290.78   18.29
 -10  -7   7  341.28   20.75
  10   7  -6  566.29   31.06
  10   7  -6  571.21   31.90
 -10  -7   6  649.31   37.53
  10   7  -5   63.21    5.07
  10   7  -5   62.37    4.90
 -10  -7   5   61.78    5.94
  10   7  -4 2096.31  134.54
  10   7  -4 2053.12  127.89
 -10  -7   4 2214.41  140.99
  10   7  -3   20.21    2.69
  10   7  -3   17.16    2.23
 -10  -7   3   21.37    2.99
  10   7  -2  106.00    6.57
  10   7  -2   99.01    5.24
  10   7  -1   25.84    2.09
  10   7  -1   20.49    1.95
 -10  -7   1   20.86    1.27
  10   7   0  675.44   33.46
  10   7   0  629.97   26.48
 -10  -7   0  657.27   24.83
  10   7   1  506.86   23.90
  10   7   1  471.61   17.63
 -10  -7  -1  465.51   17.00
  10   7   2   47.69    3.06
  10   7   2   37.68    2.22
 -10  -7  -2   50.36    2.23
  10   7   3  125.76    5.99
  10   7   3  110.28    3.61
 -10  -7  -3  116.12    4.87
 -10  -7  -3  121.62    6.99
  10   7   4    8.41    1.32
  10   7   4    7.30    0.77
 -10  -7  -4    6.74    1.12
 -10  -7  -4    6.52    1.68
  10   7   5   83.23    4.19
  10   7   5   68.55    3.70
 -10  -7  -5   62.10    3.48
  10   7   6  603.19   28.23
 -10  -7  -6  577.88   24.24
  10   7   7    4.77    1.56
 -10  -7  -7    4.77    1.27
  10   7   8  106.61    6.93
 -10  -7  -8  104.24    5.97
  10   7   9  358.35   19.65
  10   7   9  365.27   19.68
 -10  -7  -9  369.88   18.55
  10   7  10  337.50   19.25
  10   7  10  326.55   18.42
 -10  -7 -10  331.82   17.40
  10   7  11    0.35    1.55
  10   7  11    1.19    1.42
 -10  -7 -11    2.58    1.34
  10   7  12   14.65    3.05
  10   7  12   14.48    2.17
 -10  -7 -12   13.93    2.06
  10   7  13   15.22    3.31
  10   7  13   17.21    3.21
 -10  -7 -13   20.12    3.34
  10   7  14  105.98    8.97
  10   7  14  123.89    9.62
 -10  -7 -14  111.45    7.59
  10   7  15   12.95    3.31
  10   7  15   14.62    3.30
 -10  -7 -15   12.86    3.49
  10   8 -10   12.76    3.53
  10   8 -10   13.51    4.21
 -10  -8  10   20.78    4.58
  10   8  -9   11.77    3.08
  10   8  -9   10.62    3.35
 -10  -8   9   13.74    3.96
  10   8  -8   12.87    3.15
  10   8  -8   12.67    3.24
 -10  -8   8   17.30    3.79
  10   8  -7   53.09    5.40
  10   8  -7   46.06    4.26
 -10  -8   7   59.75    6.56
  10   8  -6    4.65    1.89
  10   8  -6    3.39    1.78
 -10  -8   6    4.22    1.66
  10   8  -5    7.78    1.71
  10   8  -5    8.25    1.96
 -10  -8   5    9.14    1.99
  10   8  -4    5.35    1.79
  10   8  -4    2.27    1.50
 -10  -8   4    6.10    2.02
  10   8  -3  392.14   18.31
  10   8  -3  380.96   18.12
 -10  -8   3  417.20   20.21
  10   8  -2   42.22    3.02
  10   8  -2   33.05    2.86
 -10  -8   2   41.55    4.05
  10   8  -1  117.57    5.92
  10   8  -1  108.44    5.25
 -10  -8   1  116.03    6.31
  10   8   0   57.90    4.16
  10   8   0   44.50    2.68
 -10  -8   0   49.34    4.25
  10   8   1  395.98   17.06
  10   8   1  373.63   14.04
 -10  -8  -1  369.18   12.86
  10   8   2   12.19    2.12
  10   8   2   10.01    1.06
 -10  -8  -2   11.03    1.04
  10   8   3   26.17    2.16
  10   8   3   19.65    1.06
 -10  -8  -3   22.42    1.52
  10   8   4   27.84    3.05
  10   8   4   23.76    0.99
 -10  -8  -4   26.06    1.88
  10   8   5  201.63   10.24
  10   8   5  155.06    4.01
 -10  -8  -5  182.85    7.35
  10   8   6   45.20    3.43
 -10  -8  -6   27.70    2.53
  10   8   7  309.27   16.41
 -10  -8  -7  283.12   11.50
  10   8   8  197.87    9.92
  10   8   8  186.99   11.13
 -10  -8  -8  187.89    9.29
  10   8   9   80.42    6.31
  10   8   9   88.26    6.18
 -10  -8  -9   78.57    5.17
  10   8  10  262.17   15.78
  10   8  10  269.76   13.94
 -10  -8 -10  277.39   12.88
  10   8  11  127.04    7.32
  10   8  11  121.73    8.74
 -10  -8 -11  117.82    6.46
  10   8  12  170.84   10.06
  10   8  12  171.39   10.25
 -10  -8 -12  179.13   11.50
  10   8  13   19.74    3.34
  10   8  13   16.26    3.27
 -10  -8 -13   15.65    3.13
  10   8  14    0.39    1.54
  10   8  14    2.53    1.66
 -10  -8 -14    0.02    1.22
  10   8  15    5.00    2.56
  10   8  15    6.53    2.03
 -10  -8 -15    8.34    2.05
  10   8  16   29.82    4.77
  10   8  16   28.91    5.34
 -10  -8 -16   32.81    5.77
  10   9  -9    0.76    2.24
  10   9  -9    2.95    2.34
 -10  -9   9    5.46    2.67
  10   9  -8   29.36    3.97
  10   9  -8   41.15    5.22
 -10  -9   8   47.05    6.19
  10   9  -7   41.66    4.90
  10   9  -7   29.92    3.71
 -10  -9   7   49.44    5.84
  10   9  -6   30.27    4.75
  10   9  -6   30.92    4.23
 -10  -9   6   44.79    4.13
  10   9  -5   42.72    3.66
  10   9  -5   35.02    3.23
 -10  -9   5   42.02    4.18
  10   9  -4   13.45    2.83
  10   9  -4   12.14    2.22
 -10  -9   4   15.57    2.42
  10   9  -3    4.04    1.92
  10   9  -3    5.28    1.44
 -10  -9   3    5.46    2.13
  10   9  -2  348.27   18.76
  10   9  -2  317.42   14.98
 -10  -9   2  373.99   17.90
  10   9  -1   42.70    3.12
  10   9  -1   33.72    2.36
 -10  -9   1   41.85    3.31
  10   9   0  330.63   17.39
  10   9   0  311.71   12.49
 -10  -9   0  339.83   18.48
  10   9   1  329.49   16.85
  10   9   1  295.32   10.98
 -10  -9  -1  337.56   15.74
  10   9   2    4.39    1.21
  10   9   2    2.80    0.73
 -10  -9  -2    4.72    1.17
 -10  -9  -2    2.60    0.62
  10   9   3  360.55   18.30
  10   9   3  303.85   10.21
 -10  -9  -3  363.01   16.76
 -10  -9  -3  333.63   12.11
  10   9   4  207.52    9.88
  10   9   4  173.19    5.34
 -10  -9  -4  186.66    7.22
  10   9   5  158.20    4.10
 -10  -9  -5  184.07    7.32
  10   9   6  121.43    7.99
 -10  -9  -6  120.66    5.72
  10   9   7  455.69   21.73
 -10  -9  -7  415.31   16.98
  10   9   8   47.43    3.57
  10   9   8   53.61    4.42
 -10  -9  -8   42.05    2.67
  10   9   9   35.66    3.92
  10   9   9   35.69    3.93
 -10  -9  -9   33.47    3.03
  10   9  10  105.22    7.51
  10   9  10   95.25    6.12
 -10  -9 -10  105.77    6.27
  10   9  11  223.93   12.02
  10   9  11  230.56   15.02
 -10  -9 -11  243.09   13.82
  10   9  12  143.64   10.36
  10   9  12  143.55    9.24
 -10  -9 -12  147.38    9.75
  10   9  13   85.02    7.18
  10   9  13   82.02    6.08
 -10  -9 -13   82.45    5.78
  10   9  14   24.96    4.08
  10   9  14   28.48    4.50
 -10  -9 -14   29.27    3.23
  10   9  15   -0.96    1.10
  10   9  15    0.82    1.65
 -10  -9 -15    1.58    1.20
  10   9  16   22.49    4.12
  10   9  16   26.54    4.98
 -10  -9 -16   25.93    3.83
  10  10  -8   18.08    3.24
  10  10  -8   17.80    4.13
 -10 -10   8   17.07    4.83
  10  10  -7   60.07    7.15
  10  10  -7   54.61    6.36
 -10 -10   7   65.31    6.10
  10  10  -6  450.84   28.40
  10  10  -6  393.00   25.31
 -10 -10   6  463.55   27.78
  10  10  -5   39.60    5.43
  10  10  -5   32.40    3.34
 -10 -10   5   52.22    4.36
  10  10  -4   68.80    5.27
  10  10  -4   65.48    5.34
 -10 -10   4   79.53    7.24
  10  10  -3   28.53    3.78
  10  10  -3   20.69    2.16
 -10 -10   3   30.90    3.17
  10  10  -2   78.86    6.49
  10  10  -2   63.86    4.51
 -10 -10   2   85.18    6.78
  10  10  -1    6.36    1.91
  10  10  -1    3.72    1.19
 -10 -10   1    4.89    1.52
  10  10   0  160.51    8.12
  10  10   0  138.29    6.12
 -10 -10   0  147.96    9.96
  10  10   1    7.52    1.61
  10  10   1    7.13    0.90
 -10 -10  -1    6.59    2.12
  10  10   2   38.04    2.94
  10  10   2   30.47    1.54
 -10 -10  -2   34.58    3.89
  10  10   3  113.56    6.02
  10  10   3   92.44    3.14
 -10 -10  -3  106.32    5.88
  10  10   4  185.68    5.82
 -10 -10  -4  196.96    7.39
 -10 -10  -4  216.84   10.70
 -10 -10  -5  171.52    7.03
 -10 -10  -5  190.67   11.47
  10  10   6  509.76   27.38
 -10 -10  -6  467.76   20.07
  10  10   7    2.03    1.79
  10  10   7    3.98    1.35
 -10 -10  -7    4.46    1.10
  10  10   8  155.68    9.99
  10  10   8  154.79   10.06
 -10 -10  -8  140.28    6.10
  10  10   9   27.79    3.67
  10  10   9   28.51    2.93
 -10 -10  -9   28.71    2.77
  10  10  10  146.32    8.27
  10  10  10  153.95   10.61
 -10 -10 -10  135.78    6.84
  10  10  11   32.71    4.29
  10  10  11   34.53    4.61
 -10 -10 -11   35.70    3.55
  10  10  12   23.93    3.52
  10  10  12   23.03    2.92
 -10 -10 -12   22.12    3.26
  10  10  13   25.17    2.90
  10  10  13   22.22    3.22
 -10 -10 -13   22.93    3.58
  10  10  14    3.41    2.30
  10  10  14    6.98    2.05
 -10 -10 -14    6.45    1.83
  10  10  15   59.14    5.99
  10  10  15   35.22    5.46
 -10 -10 -15   65.29    5.18
  10  10  16   22.54    3.36
  10  10  16   29.13    4.31
 -10 -10 -16   34.40    3.98
  10  11  -7   21.17    3.75
  10  11  -7   23.77    4.43
 -10 -11   7   22.52    4.02
  10  11  -6   13.56    3.59
  10  11  -6   10.30    2.94
 -10 -11   6   10.83    3.74
  10  11  -5   78.38    7.84
  10  11  -5   58.16    4.96
 -10 -11   5   81.62    6.53
  10  11  -4   94.76    7.80
  10  11  -4   71.85    5.91
 -10 -11   4   71.62    7.92
  10  11  -3  436.93   24.21
  10  11  -3  420.41   22.22
 -10 -11   3  467.32   30.04
  10  11  -2   43.66    4.10
  10  11  -2   43.93    3.14
 -10 -11   2   45.49    4.26
  10  11  -1    4.87    1.64
  10  11  -1    6.09    1.13
 -10 -11   1    4.82    2.33
  10  11   0  420.07   20.88
  10  11   0  372.57   16.41
 -10 -11   0  428.64   24.81
  10  11   1   64.39    5.71
  10  11   1   56.10    3.04
 -10 -11  -1   74.77    6.00
  10  11   2    3.83    1.52
  10  11   2    1.62    0.56
 -10 -11  -2    0.31    1.15
  10  11   3   13.10    2.46
  10  11   3    9.38    0.81
 -10 -11  -3   12.74    2.47
 -10 -11  -4   61.25    5.71
 -10 -11  -5  571.77   32.94
  10  11   6   63.00    3.97
  10  11   6   55.13    4.95
 -10 -11  -6   42.81    2.78
  10  11   7  367.14   18.81
  10  11   7  377.12   22.00
 -10 -11  -7  337.87   15.41
  10  11   8  294.23   14.82
  10  11   8  311.08   18.67
 -10 -11  -8  265.04   12.83
  10  11   9   72.84    4.93
  10  11   9   78.91    5.31
 -10 -11  -9   68.20    4.45
  10  11  10   85.39    7.04
  10  11  10   87.00    6.01
 -10 -11 -10   81.95    5.49
  10  11  11    3.99    1.79
  10  11  11    4.07    2.06
 -10 -11 -11    2.67    1.53
  10  11  12   45.28    4.92
  10  11  12   46.09    5.45
 -10 -11 -12   41.12    4.47
  10  11  13  394.13   24.42
  10  11  13  420.39   28.38
 -10 -11 -13  395.30   21.53
  10  11  14   75.78    6.03
  10  11  14  102.11    9.17
 -10 -11 -14   89.45    7.64
  10  11  15   31.17    4.65
  10  11  15   29.29    4.29
 -10 -11 -15   35.03    4.93
  10  11  16   18.15    3.05
  10  11  16   26.10    4.12
 -10 -11 -16   28.09    3.76
  10  12  -5  118.29   10.50
  10  12  -5  116.44    8.29
 -10 -12   5   59.49    8.44
  10  12  -4    5.25    2.72
  10  12  -4    5.48    1.56
 -10 -12   4    6.32    2.82
  10  12  -3   92.28    6.85
  10  12  -3   82.73    6.40
 -10 -12   3   85.95    8.65
  10  12  -2  195.38   13.99
  10  12  -2  166.94    9.88
 -10 -12   2  189.83   11.81
  10  12  -1    2.67    2.25
  10  12  -1    4.21    1.35
 -10 -12   1    6.16    2.33
  10  12   0   11.97    3.08
  10  12   0   14.13    1.66
 -10 -12   0   17.65    2.53
  10  12   1  322.62   18.69
  10  12   1  278.29   11.90
 -10 -12  -1  324.51   17.52
  10  12   2  136.56    9.26
  10  12   2  109.40    4.30
 -10 -12  -2  129.16    7.72
  10  12   3  692.61   26.54
 -10 -12  -3  918.66   49.85
 -10 -12  -4    6.64    1.72
 -10 -12  -5    3.19    1.84
  10  12   6   10.78    1.98
  10  12   6   10.73    2.65
  10  12   7  114.23    7.22
  10  12   7  120.53    7.77
  10  12   8    7.47    2.37
  10  12   8    8.59    1.92
 -10 -12  -8    8.40    1.43
  10  12   9  115.56    7.02
  10  12   9  103.80    6.99
 -10 -12  -9   97.09    5.99
  10  12  10  250.15   13.35
  10  12  10  262.69   14.54
 -10 -12 -10  219.86   10.60
  10  12  11    7.20    2.45
  10  12  11    9.41    2.09
 -10 -12 -11    7.64    1.48
  10  12  12  471.99   25.80
  10  12  12  491.87   28.43
 -10 -12 -12  455.54   23.82
  10  12  13   10.67    2.63
  10  12  13    8.80    2.34
 -10 -12 -13    9.83    2.51
  10  12  14  135.69    9.12
  10  12  14  184.34   13.93
 -10 -12 -14  148.51   11.77
  10  12  15    2.70    1.77
  10  12  15    4.29    2.31
 -10 -12 -15    0.10    1.56
  10  13  -4    2.15    1.73
  10  13  -4    1.66    1.64
 -10 -13   4    0.55    1.68
  10  13  -3  163.51   13.37
  10  13  -3  127.15    9.59
 -10 -13   3  150.75   13.37
  10  13  -2   55.70    6.20
  10  13  -2   34.49    4.08
 -10 -13   2   49.76    6.18
  10  13  -1   61.73    5.31
  10  13  -1   46.90    4.12
 -10 -13   1   67.54    5.25
  10  13   0  151.52    9.60
  10  13   0  123.96    6.40
 -10 -13   0  156.61   11.77
  10  13   1    3.93    1.67
  10  13   1    4.29    1.05
 -10 -13  -1    3.14    1.69
 -10 -13  -2    9.40    2.15
 -10 -13  -3   33.01    3.55
 -10 -13  -4   99.09    8.52
  10  13   5    4.20    1.49
 -10 -13  -5    2.94    1.57
  10  13   6  121.23    9.33
  10  13   7   18.97    2.76
  10  13   7   22.46    2.93
  10  13   8   63.23    5.15
  10  13   8   69.01    5.69
  10  13   9   10.15    1.95
  10  13   9   11.40    2.88
 -10 -13  -9    8.08    1.72
  10  13  10   26.40    2.94
  10  13  10   22.28    4.28
 -10 -13 -10   23.49    2.82
  10  13  11   33.76    4.33
  10  13  11   38.71    4.98
 -10 -13 -11   28.53    2.70
  10  13  12   35.29    4.39
  10  13  12   35.32    4.09
 -10 -13 -12   33.83    4.09
  10  13  13   42.39    5.48
  10  13  13   57.48    5.19
 -10 -13 -13   51.59    5.29
  10  13  14    5.43    2.24
  10  13  14    2.81    2.98
 -10 -13 -14    6.31    2.29
  10  13  15   17.21    3.78
  10  13  15   25.78    4.01
 -10 -13 -15   21.41    4.20
  10  14  -3   50.16    6.09
  10  14  -3   30.93    3.95
 -10 -14   3   13.85    4.45
  10  14  -2   42.50    4.93
  10  14  -2   31.49    4.03
 -10 -14   2   36.19    4.62
  10  14  -1   32.57    5.11
  10  14  -1   19.90    2.99
 -10 -14   1   31.34    3.78
  10  14   0    5.58    2.00
  10  14   0    3.93    1.37
 -10 -14   0    5.66    2.54
  10  14   1    1.03    1.55
 -10 -14  -1    3.61    2.05
 -10 -14  -2    2.79    2.15
 -10 -14  -3   19.69    3.97
  10  14   4   76.18    7.72
 -10 -14  -4   73.86    7.64
  10  14   5   66.99    6.94
  10  14   6    2.67    1.95
  10  14   7  115.59    7.91
  10  14   8   30.41    4.50
  10  14   9    2.36    1.75
  10  14   9    1.19    1.97
  10  14  10   68.89    6.75
  10  14  10   60.40    5.60
  10  14  11  162.45   11.85
  10  14  11  159.24   11.11
 -10 -14 -11  136.98    9.71
  10  14  12   19.06    2.79
  10  14  12   20.69    4.44
 -10 -14 -12   19.66    3.13
  10  14  13    1.34    1.45
  10  14  13   -1.18    1.41
 -10 -14 -13    1.54    1.38
  10  14  14   29.19    3.51
  10  14  14   39.29    6.10
 -10 -14 -14   30.38    3.58
  10  14  15    3.61    1.93
  10  14  15    2.16    2.04
 -10 -14 -15    2.42    1.66
  10  15  -1   15.24    3.45
 -10 -15   1   15.33    3.20
  10  15   0   43.39    5.91
 -10 -15   0   28.03    4.53
 -10 -15  -1  173.64   14.81
 -10 -15  -2   35.98    4.26
  10  15   3    3.50    2.36
 -10 -15  -3    2.50    2.23
  10  15   4   49.84    5.12
 -10 -15  -4   49.17    6.37
  10  15   5    4.60    2.51
  10  15   5    5.05    1.86
  10  15   6    3.61    2.29
  10  15   6    4.10    2.36
  10  15   7   12.85    2.84
  10  15   7   18.83    2.95
  10  15   8    7.89    2.74
  10  15   9   42.33    4.36
  10  15  10  147.68   10.05
  10  15  11   28.66    4.66
  10  15  12   37.98    5.44
  10  15  12   42.70    5.17
  10  15  13    9.01    2.85
  10  15  13   11.71    3.80
  10  15  14   21.36    3.88
  10  15  14   23.96    4.17
 -10 -15 -14   21.96    4.07
 -10 -16  -1   26.76    5.46
 -10 -16  -2   23.26    4.91
  10  16   3    1.01    2.30
 -10 -16  -3    3.16    2.25
  10  16   4  132.39   10.86
 -10 -16  -4  146.87   10.72
  10  16   5   11.29    3.82
  10  16   5   14.55    3.70
  10  16   6    9.42    3.49
  10  16   6   13.91    3.48
  10  16   7  279.15   20.50
  10  16   7  247.05   20.18
  10  16   8  100.57    9.56
  10  16   8  102.51   10.26
  10  16   9    5.35    2.47
  10  16   9    4.55    2.04
  10  16  10   11.73    2.55
  10  16  10   16.03    3.95
  10  16  11   12.88    2.53
  10  16  12   81.19    6.41
  10  16  13    4.02    2.29
  10  17   4    5.20    2.30
  10  17   4    4.30    2.18
  10  17   5    3.96    2.53
  10  17   5    2.02    1.85
  10  17   6    2.36    2.02
  10  17   6    6.30    2.72
  10  17   7    4.07    2.15
  10  17   7    7.89    3.09
  10  17   8   42.65    6.34
  10  17   8   44.50    6.90
  10  17   9   49.55    6.69
  10  17   9   48.58    7.24
  10  17  10   66.52    7.65
  10  17  10   72.49    8.99
  10  17  11    4.02    1.84
  10  17  11    4.45    2.22
  11  -9 -10   21.65    5.56
 -11   9  10   21.19    4.46
  11  -9  -9   18.30    5.56
 -11   9   9   26.10    5.62
  11  -9  -8  220.59   20.57
 -11   9   7   15.24    2.25
 -11   9   6  615.77   45.15
 -11   9   5   20.68    3.71
 -11   9   5   18.09    3.61
 -11   9   4   17.56    4.98
 -11   9   4   23.14    3.66
 -11   9   3   10.04    3.32
 -11   9   3    4.95    2.34
 -11   9   2   42.91    6.59
 -11   9   2   74.37    7.75
  11  -8 -11   45.82    6.44
 -11   8  11   53.25    6.68
  11  -8 -10   14.87    4.54
 -11   8  10   15.24    3.50
  11  -8  -9    6.02    2.46
 -11   8   9    5.89    2.47
  11  -8  -8   61.76    9.08
 -11   8   8   80.67    8.93
  11  -8  -7    6.22    3.22
 -11   8   7    7.82    2.49
 -11   8   5  204.31   18.49
 -11   8   4  385.79   26.72
 -11   8   4  444.80   30.73
 -11   8   3    2.24    1.82
 -11   8   3    2.56    2.22
 -11   8   2   14.67    3.89
 -11   8   2   13.36    2.84
 -11   8   1  201.71   18.09
 -11   8   1  224.36   17.59
  11  -8   0    4.28    1.86
 -11   8   0    4.28    2.33
 -11   8   0   10.81    2.17
  11  -8   1    0.46    1.51
 -11   8  -1    5.89    2.15
 -11   8  -1    2.42    2.33
  11  -7 -12   -0.43    2.34
 -11   7  12    1.83    2.32
  11  -7 -11   67.68    9.79
 -11   7  11   73.14    7.54
  11  -7 -10   58.65    8.57
 -11   7  10   60.52    8.43
  11  -7  -9    1.84    2.01
 -11   7   9    4.18    2.04
  11  -7  -8  189.18   16.83
 -11   7   8  188.49   13.73
  11  -7  -7   34.76    6.12
 -11   7   7   41.44    6.16
  11  -7  -6  172.31   15.27
 -11   7   6  185.49   14.56
 -11   7   5  173.60   11.34
 -11   7   4   51.54    5.28
 -11   7   3   18.96    4.23
 -11   7   2  192.72   16.67
 -11   7   2  232.33   16.67
  11  -7  -1  156.81   11.89
 -11   7   1  196.90   13.15
 -11   7   1  199.21   12.28
  11  -7   0   85.15    7.56
 -11   7   0   64.34    8.92
 -11   7   0  111.25    8.83
  11  -7   1    9.30    2.75
 -11   7  -1    9.10    2.94
 -11   7  -1   10.14    3.18
  11  -7   2  113.56   10.51
 -11   7  -2  131.46    9.03
 -11   7  -2  134.61   12.06
  11  -7   3    3.50    2.07
 -11   7  -3    6.59    1.95
 -11   7  -3    8.26    2.74
  11  -6 -13   71.88    8.04
 -11   6  13   54.44    7.51
 -11   6  13   58.48    5.13
  11  -6 -12   50.62    8.00
 -11   6  12   64.16    7.68
 -11   6  12   38.81    4.94
  11  -6 -11   93.31   10.30
 -11   6  11   74.23    7.86
 -11   6  11   73.72    6.17
  11  -6 -10   31.27    5.89
 -11   6  10   34.69    4.25
 -11   6  10   25.78    3.05
  11  -6  -9   63.37    6.05
 -11   6   9   69.08    5.93
 -11   6   9   48.03    3.91
  11  -6  -8  238.96   19.24
 -11   6   8  240.85   15.52
  11  -6  -7  320.22   23.97
 -11   6   7  354.24   24.23
 -11   6   6   35.35    5.38
 -11   6   5  192.60   12.17
 -11   6   4  105.71    7.64
 -11   6   3    0.64    1.33
  11  -6  -2   40.10    4.04
 -11   6   2   52.58    4.68
  11  -6  -1    4.36    1.34
 -11   6   1    6.20    2.38
  11  -6   0   10.26    2.41
 -11   6   0    7.61    2.89
 -11   6   0   11.37    2.98
  11  -6   1   17.78    3.12
 -11   6  -1   12.47    3.46
 -11   6  -1   18.75    3.54
  11  -6   2   -1.51    1.26
 -11   6  -2    2.95    1.23
 -11   6  -2    1.60    1.68
  11  -6   3    7.52    2.58
 -11   6  -3    7.00    2.39
 -11   6  -3    3.12    2.54
  11  -6   4   12.71    3.52
 -11   6  -4   11.94    3.16
 -11   6  -4   11.17    3.32
  11  -5 -13   43.81    8.65
 -11   5  13   61.75    8.13
 -11   5  13   46.30    5.76
  11  -5 -12   43.90    5.92
 -11   5  12   59.79    5.53
 -11   5  12   30.80    5.03
  11  -5 -11    5.86    3.14
 -11   5  11    9.00    2.98
 -11   5  11    4.20    1.41
  11  -5 -10   56.08    5.52
 -11   5  10   38.44    4.15
 -11   5  10   53.89    5.22
  11  -5  -9    1.83    1.90
 -11   5   9    3.65    1.83
 -11   5   9    4.21    1.36
  11  -5  -8  151.69   10.21
 -11   5   8  141.68   11.48
 -11   5   8  116.25    6.95
 -11   5   7   17.52    2.70
 -11   5   7   12.62    1.42
 -11   5   6   20.58    1.63
 -11   5   6   31.74    4.21
 -11   5   5  174.08   12.96
 -11   5   4  187.63   13.03
  11  -5  -3   11.54    2.13
  11  -5  -3   18.28    3.37
 -11   5   3   21.41    3.34
  11  -5  -2   59.37    5.06
 -11   5   2   86.37    7.48
 -11   5   2   88.31    5.75
  11  -5  -1    9.20    2.14
 -11   5   1   12.08    2.80
  11  -5   0    7.32    1.63
 -11   5   0   11.24    2.57
  11  -5   1   43.61    4.78
 -11   5  -1   41.23    5.26
 -11   5  -1   43.22    5.25
  11  -5   2   40.80    4.64
 -11   5  -2   42.99    3.72
 -11   5  -2   31.86    3.94
  11  -5   3   17.23    3.77
 -11   5  -3   18.91    2.73
 -11   5  -3   22.89    2.91
  11  -5   4  210.62   14.04
 -11   5  -4  226.21   15.12
 -11   5  -4  214.69   15.77
  11  -5   5  220.03   14.93
 -11   5  -5  238.13   15.48
 -11   5  -5  189.74   14.11
  11  -5   6    6.06    3.04
 -11   5  -6    5.05    2.39
 -11   5  -6    5.81    1.86
  11  -4 -13   17.92    5.20
 -11   4  13   18.70    4.49
 -11   4  13   14.08    3.70
  11  -4 -12  168.26   13.86
 -11   4  12  177.89   15.23
 -11   4  12  165.88   12.38
  11  -4 -11   88.66    9.57
 -11   4  11  131.17    8.72
 -11   4  11  103.46    8.26
  11  -4 -10    4.63    2.21
 -11   4  10    6.53    2.76
 -11   4  10    6.03    1.84
  11  -4  -9  187.59   15.12
 -11   4   9  185.87   14.11
 -11   4   9  165.13    9.84
 -11   4   8   88.22    6.26
 -11   4   8   69.22    4.81
 -11   4   7   52.22    5.52
 -11   4   7   40.40    3.14
 -11   4   6  484.05   24.60
 -11   4   6  392.54   17.21
 -11   4   5   42.82    4.43
 -11   4   5   28.06    1.91
  11  -4  -4   99.83    7.09
 -11   4   4   94.81    6.97
 -11   4   4   65.53    3.38
  11  -4  -3   74.12    6.58
  11  -4  -3   57.26    4.39
 -11   4   3   82.73    5.15
  11  -4  -2   44.59    3.90
  11  -4  -2   52.37    5.32
 -11   4   2   57.05    4.09
  11  -4  -1   78.23    4.70
 -11   4   1   90.63    5.93
 -11   4   1  111.27    7.60
  11  -4   0  121.29    8.31
 -11   4   0  130.19    8.22
 -11   4   0  145.80    8.18
  11  -4   1    9.15    2.16
 -11   4  -1    8.23    2.38
  11  -4   2    5.04    1.90
 -11   4  -2    3.75    1.42
  11  -4   3   65.49    6.46
 -11   4  -3   76.90    4.90
 -11   4  -3   51.38    5.98
  11  -4   4   62.32    6.64
 -11   4  -4   62.66    4.79
 -11   4  -4   50.49    4.82
  11  -4   5  265.14   19.80
 -11   4  -5  271.38   17.45
 -11   4  -5  250.52   16.93
  11  -4   6    5.07    2.26
 -11   4  -6    0.65    1.76
 -11   4  -6    2.57    1.84
  11  -4   7   43.76    6.19
 -11   4  -7   32.95    3.90
  11  -3 -13    5.84    3.18
 -11   3  13    4.88    2.86
 -11   3  13    5.11    1.96
  11  -3 -12    5.99    3.28
 -11   3  12    4.79    2.86
 -11   3  12    5.65    1.85
  11  -3 -11  188.09   14.95
 -11   3  11  151.35   12.78
 -11   3  11  145.00   11.06
  11  -3 -10   12.91    2.60
 -11   3  10    9.31    3.01
 -11   3  10    6.66    2.28
 -11   3   9   70.11    6.83
 -11   3   9   59.62    5.03
 -11   3   8  177.35   12.38
 -11   3   8  155.21    9.16
 -11   3   7  323.73   15.90
 -11   3   7  372.99   19.08
 -11   3   6   18.06    3.30
 -11   3   6   16.44    1.90
  11  -3  -5  241.03   13.04
 -11   3   5  268.42   15.28
 -11   3   5  205.40    8.84
  11  -3  -4  162.48    8.40
  11  -3  -4  189.85   11.91
 -11   3   4  188.58   11.36
 -11   3   4  147.29    6.57
  11  -3  -3    5.64    1.35
  11  -3  -3    5.22    2.00
 -11   3   3    7.76    2.07
 -11   3   3    4.58    0.76
  11  -3  -2  272.00   14.73
  11  -3  -2  222.65   11.58
 -11   3   2  251.13   11.75
 -11   3   2  188.49    7.45
  11  -3  -1    2.77    1.44
  11  -3  -1    4.85    1.37
 -11   3   1    4.94    1.81
 -11   3   1    3.87    0.65
  11  -3   0   88.64    6.21
 -11   3   0   99.91    7.40
 -11   3   0   97.88    5.93
  11  -3   1   42.50    4.40
 -11   3  -1   53.48    4.65
 -11   3  -1   50.54    4.74
  11  -3   2   64.82    5.14
 -11   3  -2   47.91    4.01
  11  -3   3   18.24    3.01
 -11   3  -3   15.58    2.86
  11  -3   4    1.44    1.34
 -11   3  -4    1.66    1.41
  11  -3   5    7.43    2.65
 -11   3  -5    4.94    2.37
 -11   3  -5    9.02    2.10
  11  -3   6   12.38    3.32
 -11   3  -6   10.01    2.53
 -11   3  -6   14.34    2.25
  11  -3   7   74.69    7.41
 -11   3  -7   36.24    5.25
 -11   3  -7   70.59    6.26
  11  -3   8    7.93    2.56
 -11   3  -8    8.08    2.26
 -11   3  -8    8.78    2.75
  11  -2 -13    2.60    2.24
 -11   2  13    2.68    2.31
 -11   2  13    4.06    2.37
  11  -2 -12   89.40    7.71
 -11   2  12   66.99    8.11
 -11   2  12   79.03    7.73
  11  -2 -11   63.11    7.44
 -11   2  11   54.29    4.83
 -11   2  11   50.40    5.79
 -11   2  10  338.93   21.32
 -11   2  10  321.67   19.48
 -11   2   9  322.30   20.41
 -11   2   9  330.70   18.38
 -11   2   8   42.86    5.14
 -11   2   8   46.21    4.00
 -11   2   7    7.49    1.76
 -11   2   7    5.93    1.62
  11  -2  -6   79.45    6.35
 -11   2   6   76.84    6.08
 -11   2   6   55.17    4.16
  11  -2  -5  288.18   13.16
  11  -2  -5  333.70   16.74
 -11   2   5  340.85   18.54
 -11   2   5  286.61   13.36
  11  -2  -4  326.29   15.64
  11  -2  -4  368.88   20.98
 -11   2   4  367.67   19.55
 -11   2   4  330.24   14.26
  11  -2  -3    4.15    1.41
  11  -2  -3    9.12    2.07
 -11   2   3    4.96    1.06
 -11   2   3    9.54    1.98
  11  -2  -2   11.89    1.99
  11  -2  -2   18.98    2.56
 -11   2   2   12.68    2.58
 -11   2   2   12.10    1.08
  11  -2  -1   75.42    4.61
  11  -2  -1   60.06    5.27
 -11   2   1   67.33    4.36
  11  -2   0   55.05    4.41
 -11   2   0   62.23    4.97
 -11   2   0   44.76    2.47
  11  -2   1  746.12   37.84
 -11   2  -1  726.59   37.51
 -11   2  -1  787.26   43.13
  11  -2   2  668.99   37.33
 -11   2  -2  690.35   34.01
 -11   2  -2  609.23   30.81
  11  -2   3   23.22    2.56
 -11   2  -3   30.22    3.20
 -11   2  -3   16.73    2.27
  11  -2   4   55.26    5.43
 -11   2  -4   55.97    3.68
  11  -2   5   41.65    4.89
 -11   2  -5   35.00    3.07
  11  -2   6  168.94   10.79
 -11   2  -6  136.38    9.36
 -11   2  -6  168.81   10.88
  11  -2   7   48.01    6.28
 -11   2  -7   42.01    4.32
 -11   2  -7   53.95    5.25
  11  -2   8    8.17    2.28
 -11   2  -8    5.73    1.96
 -11   2  -8    6.93    1.90
  11  -2   9  105.84   10.67
 -11   2  -9   87.29    8.71
  11  -1 -13   86.81   10.92
 -11   1  13   78.31    9.46
 -11   1  12    1.39    1.34
 -11   1  12    1.22    1.46
 -11   1  11    2.12    1.69
 -11   1  11    0.26    1.66
 -11   1  10  302.06   16.60
 -11   1  10  315.52   19.29
 -11   1   9   18.55    3.58
 -11   1   9   23.78    3.27
  11  -1  -8   20.69    2.96
 -11   1   8   18.40    3.19
 -11   1   8   18.40    2.15
  11  -1  -7   36.28    4.78
 -11   1   7   33.75    3.13
 -11   1   7   33.59    3.35
  11  -1  -6   63.04    5.65
 -11   1   6   52.70    5.06
 -11   1   6   51.55    4.14
  11  -1  -5  448.45   25.59
  11  -1  -5  410.03   17.82
 -11   1   5  472.47   24.26
 -11   1   5  423.41   19.38
  11  -1  -4  514.73   23.56
  11  -1  -4  530.33   28.85
 -11   1   4  540.01   27.72
 -11   1   4  501.12   22.80
  11  -1  -3  585.25   25.78
  11  -1  -3  629.15   33.01
 -11   1   3  632.50   32.32
 -11   1   3  550.20   25.15
  11  -1  -2    0.39    1.13
  11  -1  -2    1.79    1.39
 -11   1   2    2.94    1.06
 -11   1   2    2.18    0.83
  11  -1  -1   29.73    3.00
  11  -1  -1   32.58    3.32
 -11   1   1   27.49    2.03
 -11   1   1   36.53    3.41
  11  -1   0   68.83    5.17
  11  -1   0   82.57    5.18
 -11   1   0   84.12    4.62
 -11   1   0   61.47    3.18
  11  -1   1  276.14   14.74
 -11   1  -1  275.27   14.96
 -11   1  -1  262.88   14.25
  11  -1   2  109.51    6.32
 -11   1  -2  120.31    6.24
 -11   1  -2  112.66    7.16
  11  -1   3  100.41    5.69
 -11   1  -3  107.86    6.85
 -11   1  -3   90.00    5.83
  11  -1   4    3.48    1.61
 -11   1  -4    2.65    1.24
 -11   1  -4    0.57    1.46
  11  -1   5  132.25    7.90
 -11   1  -5  114.49    7.36
 -11   1  -5  135.02    7.19
  11  -1   6   35.26    5.13
 -11   1  -6   38.56    2.89
  11  -1   7    2.23    1.83
 -11   1  -7    1.00    1.16
  11  -1   8   16.42    2.71
 -11   1  -8    8.12    2.19
 -11   1  -8   16.41    2.29
  11  -1   9    7.49    3.47
 -11   1  -9   12.45    2.87
  11  -1  10   17.76    4.10
 -11   1 -10   10.57    2.54
 -11   0  13    6.62    2.49
 -11   0  12   44.09    4.98
 -11   0  11    5.12    2.09
 -11   0  11    4.51    1.86
 -11   0  10  452.68   26.18
 -11   0  10  474.27   29.12
  11   0  -9  372.43   22.14
 -11   0   9  380.40   21.33
 -11   0   9  376.44   19.39
  11   0  -8  156.72    9.96
 -11   0   8  155.37    9.85
 -11   0   8  153.84    8.35
  11   0  -7   25.08    4.32
 -11   0   7   34.28    3.64
 -11   0   7   31.77    3.39
  11   0  -6    1.58    1.02
  11   0  -6    3.61    1.32
 -11   0   6    2.95    1.50
 -11   0   6    2.75    1.33
  11   0  -5  303.82   14.28
  11   0  -5  350.68   19.41
 -11   0   5  342.01   15.19
 -11   0   5  337.64   15.92
  11   0  -4  134.61    6.90
  11   0  -4  149.13    7.67
 -11   0   4  145.14    6.91
 -11   0   4  136.31    7.18
  11   0  -3    9.75    1.58
  11   0  -3   10.34    1.57
 -11   0   3    6.76    1.45
 -11   0   3    4.80    1.44
  11   0  -2   27.67    2.65
  11   0  -2   28.59    3.19
 -11   0   2   27.46    3.03
 -11   0   2   24.19    2.09
  11   0  -1  147.37    7.82
  11   0  -1  148.99    8.43
 -11   0   1  157.05    7.01
 -11   0   1  128.91    5.58
  11   0   0   45.97    3.05
  11   0   0   36.47    3.74
 -11   0   0   47.51    4.13
 -11   0   0   40.89    2.32
  11   0   1   17.48    2.08
  11   0   1   21.61    2.53
 -11   0  -1   21.45    1.68
 -11   0  -1   23.79    2.12
  11   0   2   70.92    6.08
 -11   0  -2   82.89    5.21
 -11   0  -2   98.30    5.68
  11   0   3    7.58    2.01
 -11   0  -3    5.97    1.60
 -11   0  -3    7.13    1.37
  11   0   4  284.94   17.10
 -11   0  -4  274.74   14.16
 -11   0  -4  301.10   14.15
  11   0   5   62.12    5.79
 -11   0  -5   50.90    3.93
 -11   0  -5   64.06    4.93
  11   0   6  738.47   42.78
 -11   0  -6  594.49   31.06
 -11   0  -6  655.32   33.47
  11   0   7    4.07    1.50
 -11   0  -7    2.32    1.21
  11   0   8   58.25    5.11
  11   0   9    9.47    3.13
  11   0  10  105.71    9.95
 -11   0 -10   84.22    7.01
  11   0  11   18.55    4.89
 -11   0 -11   19.02    3.99
 -11  -1  13    5.84    3.25
 -11  -1  12    3.15    1.87
 -11  -1  11  206.68   13.68
  11   1 -10  420.94   28.90
 -11  -1  10  409.21   23.15
 -11  -1  10  419.31   23.71
  11   1  -9  378.12   21.38
 -11  -1   9  348.03   19.72
 -11  -1   9  363.48   22.47
  11   1  -8  178.13   10.65
 -11  -1   8  164.28    9.95
 -11  -1   8  174.23   11.39
  11   1  -7   27.95    2.82
  11   1  -7   31.97    4.61
 -11  -1   7   36.02    3.53
 -11  -1   7   36.86    3.03
  11   1  -6   17.47    2.13
  11   1  -6   18.79    2.45
 -11  -1   6   20.67    2.61
 -11  -1   6   18.99    2.63
  11   1  -5  196.72    9.45
  11   1  -5  198.83   10.63
 -11  -1   5  196.86    8.89
  11   1  -4   22.81    2.49
  11   1  -4   28.44    3.28
 -11  -1   4   24.75    2.18
 -11  -1   4   23.14    2.59
  11   1  -3   19.42    2.00
  11   1  -3   15.22    2.54
 -11  -1   3   15.63    1.76
 -11  -1   3   15.88    2.07
  11   1  -2  816.07   40.72
  11   1  -2  834.18   40.73
 -11  -1   2  835.00   40.31
 -11  -1   2  859.89   43.35
  11   1  -1  254.25   12.69
  11   1  -1  253.26   13.00
 -11  -1   1  268.67   12.56
 -11  -1   1  243.05   10.99
  11   1   0  297.83   14.65
  11   1   0  291.93   13.98
 -11  -1   0  304.72   14.61
 -11  -1   0  275.55   12.29
  11   1   1    1.89    1.09
  11   1   1    0.93    1.26
 -11  -1  -1    2.61    0.88
 -11  -1  -1    2.38    0.95
  11   1   2  340.52   17.78
 -11  -1  -2  340.90   16.82
  11   1   3  158.35    9.04
  11   1   3  132.89    5.82
 -11  -1  -3  126.96    5.62
 -11  -1  -3  152.70    6.72
  11   1   4  385.30   20.68
 -11  -1  -4  334.04   15.96
 -11  -1  -4  365.39   18.68
  11   1   5  102.57    7.05
 -11  -1  -5   77.04    4.66
 -11  -1  -5   84.25    4.67
  11   1   6    9.68    2.33
 -11  -1  -6    6.53    1.40
 -11  -1  -6    7.62    1.92
  11   1   7  107.55    7.93
 -11  -1  -7   79.87    4.83
 -11  -1  -7   92.17    5.46
  11   1   8    9.60    2.77
 -11  -1  -8    8.91    2.38
  11   1   9   45.58    5.73
  11   1  10    3.36    2.32
 -11  -1 -11   19.01    3.82
 -11  -1 -12   34.01    5.31
 -11  -2  12   33.91    4.97
  11   2 -11  104.57   10.60
 -11  -2  11  101.17    7.96
  11   2 -10  128.95   10.37
 -11  -2  10   96.49    7.67
  11   2  -9   66.87    7.41
 -11  -2   9   73.07    6.91
  11   2  -8  634.33   39.11
 -11  -2   8  603.68   31.14
 -11  -2   8  673.70   39.01
  11   2  -7  245.70   12.27
  11   2  -7  259.81   16.32
 -11  -2   7  254.00   12.90
 -11  -2   7  267.14   15.44
  11   2  -6  415.29   19.73
  11   2  -6  442.48   22.31
 -11  -2   6  432.26   20.81
 -11  -2   6  436.52   20.61
  11   2  -5   86.08    5.11
  11   2  -5   96.92    5.42
 -11  -2   5   83.86    5.23
 -11  -2   5   85.13    4.79
  11   2  -4  157.79    7.97
  11   2  -4  161.00    9.49
 -11  -2   4  155.21    8.05
 -11  -2   4  142.34    8.30
  11   2  -3  175.61    8.76
  11   2  -3  178.92    8.45
 -11  -2   3  176.94    8.54
 -11  -2   3  168.53    8.90
  11   2  -2  369.70   17.48
  11   2  -2  371.73   18.07
 -11  -2   2  385.51   17.46
 -11  -2   2  358.26   16.82
  11   2  -1   77.34    4.97
  11   2  -1   78.66    4.86
 -11  -2   1   68.86    3.80
 -11  -2   1   80.09    4.58
  11   2   0   28.44    3.11
  11   2   0   37.72    2.86
 -11  -2   0   31.85    2.56
 -11  -2   0   25.93    2.82
  11   2   1   97.62    6.10
  11   2   1   89.52    5.21
 -11  -2  -1   89.77    4.47
 -11  -2  -1   91.89    4.85
  11   2   2    2.92    1.13
  11   2   2    3.38    1.13
 -11  -2  -2    4.27    1.34
 -11  -2  -2    3.66    1.05
  11   2   3  334.53   17.29
  11   2   3  299.38   13.29
 -11  -2  -3  308.37   13.95
 -11  -2  -3  339.96   14.54
  11   2   4   17.59    2.60
  11   2   4   17.31    1.76
 -11  -2  -4   13.12    1.77
 -11  -2  -4   12.49    2.21
  11   2   5   33.52    2.89
  11   2   5   28.85    2.25
 -11  -2  -5   24.68    2.25
 -11  -2  -5   35.96    2.48
  11   2   6   13.15    1.96
 -11  -2  -6    7.81    1.40
 -11  -2  -6   13.11    2.09
  11   2   7    1.22    1.47
 -11  -2  -7    0.66    0.92
  11   2   8  115.26    8.92
 -11  -2  -8  100.05    6.19
  11   2   9    9.86    2.96
 -11  -2  -9   12.30    2.56
  11   3 -12    4.22    2.33
  11   3 -11   77.48    9.12
 -11  -3  11   74.28    8.84
  11   3 -10  506.48   35.43
 -11  -3  10  544.56   36.37
  11   3  -9   21.35    4.19
 -11  -3   9   23.56    4.06
  11   3  -8   24.54    2.59
  11   3  -8   15.48    2.88
 -11  -3   8   23.59    2.80
  11   3  -7  104.46    5.79
  11   3  -7   85.53    7.62
 -11  -3   7   74.43    5.44
 -11  -3   7  112.59    6.24
  11   3  -6   46.24    3.73
  11   3  -6   55.27    3.94
 -11  -3   6   44.54    3.78
 -11  -3   6   62.90    5.08
  11   3  -5  738.51   36.82
  11   3  -5  731.03   40.80
 -11  -3   5  708.36   33.84
 -11  -3   5  776.83   41.09
  11   3  -4  804.10   37.78
  11   3  -4  826.60   40.33
 -11  -3   4  821.26   43.15
 -11  -3   4  813.79   38.61
  11   3  -3   56.30    4.34
  11   3  -3   69.72    4.62
 -11  -3   3   63.28    3.91
 -11  -3   3   57.43    4.57
  11   3  -2   15.38    2.23
  11   3  -2   18.30    1.73
 -11  -3   2   17.28    2.26
 -11  -3   2   14.41    2.00
  11   3  -1  263.31   11.43
  11   3  -1  266.55   12.53
 -11  -3   1  276.60   10.92
 -11  -3   1  257.06   12.40
  11   3   0   39.34    2.80
  11   3   0   43.55    3.01
 -11  -3   0   38.51    3.06
 -11  -3   0   35.88    3.00
  11   3   1    9.57    1.68
  11   3   1    4.16    1.29
 -11  -3  -1    6.88    1.47
 -11  -3  -1    5.73    1.39
  11   3   2  136.91    6.72
  11   3   2  134.90    6.23
 -11  -3  -2  132.90    5.94
 -11  -3  -2  134.29    6.79
  11   3   3   86.63    5.10
 -11  -3  -3   88.91    5.23
  11   3   4   62.43    5.08
  11   3   4   59.38    3.71
 -11  -3  -4   53.46    3.15
 -11  -3  -4   71.92    3.26
  11   3   5  137.91    7.34
  11   3   5  124.41    6.07
 -11  -3  -5  119.20    5.43
 -11  -3  -5  127.56    7.23
  11   3   6  130.93    8.93
  11   3   6  122.41    6.48
 -11  -3  -6  122.30    7.51
  11   3   7   48.36    3.86
  11   3   7   40.90    3.30
 -11  -3  -7   45.64    3.22
  11   3   8   13.32    2.12
  11   3   8    9.67    1.81
 -11  -3  -8   13.19    1.86
  11   3   9   15.94    3.20
 -11  -3  -9   12.57    2.69
 -11  -3 -10   26.80    3.81
 -11  -3 -11   32.49    4.45
  11   3  12   17.64    3.22
  11   3  13    1.06    2.09
  11   4 -11   60.44    6.21
  11   4 -10  213.01   17.57
  11   4  -9   35.62    5.41
  11   4  -8    8.35    1.89
  11   4  -8    5.20    2.67
 -11  -4   8    8.71    2.64
  11   4  -7   87.30    5.50
  11   4  -7   67.94    7.18
 -11  -4   7   97.53    5.99
  11   4  -6    4.67    1.59
  11   4  -6    4.61    1.96
 -11  -4   6    5.08    2.00
  11   4  -5   94.80    5.35
  11   4  -5   82.40    6.07
 -11  -4   5   72.45    4.27
 -11  -4   5   88.95    6.48
  11   4  -4  973.20   47.82
  11   4  -4  985.30   53.88
 -11  -4   4  924.38   44.25
 -11  -4   4 1028.49   56.56
  11   4  -3  756.10   37.49
  11   4  -3  730.83   37.16
 -11  -4   3  724.95   32.89
 -11  -4   3  747.97   36.29
  11   4  -2   16.94    2.44
  11   4  -2   19.83    2.34
 -11  -4   2   18.77    1.96
 -11  -4   2   19.71    1.96
  11   4  -1  712.94   35.01
  11   4  -1  670.41   32.34
 -11  -4   1  701.06   34.48
 -11  -4   1  694.19   31.35
  11   4   0   87.48    4.64
  11   4   0   82.00    4.68
 -11  -4   0   79.46    4.32
 -11  -4   0   82.54    4.24
  11   4   1   36.77    3.08
  11   4   1   26.26    2.27
 -11  -4  -1   23.27    1.87
 -11  -4  -1   26.06    2.61
  11   4   2  404.06   19.83
  11   4   2  358.09   14.88
 -11  -4  -2  370.36   16.73
 -11  -4  -2  372.62   17.81
  11   4   3  102.51    4.91
  11   4   3   71.32    3.74
 -11  -4  -3   84.04    4.98
 -11  -4  -3   83.14    5.17
  11   4   4   23.48    2.99
  11   4   4   23.95    2.27
 -11  -4  -4   19.17    1.69
 -11  -4  -4   24.28    1.83
  11   4   5  120.86    7.67
  11   4   5  103.83    5.94
 -11  -4  -5  101.85    4.99
  11   4   6  133.86    7.40
  11   4   6  128.48    6.90
 -11  -4  -6  122.59    7.76
  11   4   7   94.35    6.73
  11   4   7   73.59    4.91
 -11  -4  -7   80.98    5.58
  11   4   8  127.40    7.50
  11   4   8  101.78    6.29
 -11  -4  -8  108.37    7.36
  11   4   9  183.41   10.36
 -11  -4  -9  199.09   11.76
  11   4  10   26.31    2.84
 -11  -4 -10   19.64    3.45
  11   4  11   66.91    5.34
 -11  -4 -11   47.54    5.42
  11   4  12   56.91    6.81
 -11  -4 -12   50.44    5.87
  11   4  13   20.62    3.35
 -11  -4 -13   18.61    4.01
  11   5 -11  245.99   22.26
 -11  -5  11  270.07   22.80
  11   5 -10   54.15    5.83
 -11  -5  10   63.52    6.21
  11   5  -9  384.75   21.78
  11   5  -9  410.99   27.38
  11   5  -8  151.58    8.05
  11   5  -8  162.89   11.91
  11   5  -7  252.65   13.77
  11   5  -7  252.94   13.84
  11   5  -6  228.10   12.79
  11   5  -6  232.41   13.97
  11   5  -5   99.06    6.45
  11   5  -5  104.53    5.41
 -11  -5   5   99.45    7.82
  11   5  -4   35.04    3.60
  11   5  -4   43.49    3.58
 -11  -5   4   32.58    2.36
 -11  -5   4   44.13    4.12
  11   5  -3   38.80    3.59
  11   5  -3   38.21    3.50
 -11  -5   3   38.54    4.00
 -11  -5   3   37.62    2.46
  11   5  -2  620.39   28.35
  11   5  -2  597.42   28.79
 -11  -5   2  631.16   30.00
 -11  -5   2  594.86   25.73
  11   5  -1  281.72   12.89
  11   5  -1  264.21   12.33
 -11  -5   1  276.50   11.36
 -11  -5   1  308.09   13.59
  11   5   0  699.95   32.86
  11   5   0  678.80   31.10
 -11  -5   0  685.84   29.97
 -11  -5   0  704.19   35.45
  11   5   1  175.89    9.36
  11   5   1  155.24    6.85
 -11  -5  -1  154.17    6.98
 -11  -5  -1  154.98    7.24
  11   5   2  374.38   16.90
  11   5   2  336.45   13.87
 -11  -5  -2  363.24   14.13
 -11  -5  -2  352.82   15.61
  11   5   3  349.07   17.85
  11   5   3  296.31   11.37
 -11  -5  -3  324.82   13.21
 -11  -5  -3  333.39   16.34
  11   5   4  246.15   11.87
 -11  -5  -4  235.24   11.39
  11   5   5    5.40    1.95
  11   5   5    5.23    1.54
 -11  -5  -5    6.17    1.43
  11   5   6 1221.50   71.41
  11   5   6 1140.24   62.25
 -11  -5  -6 1128.80   62.46
  11   5   7   14.83    2.15
  11   5   7   16.78    2.23
 -11  -5  -7   14.27    2.26
  11   5   8  323.59   19.01
  11   5   8  286.42   15.17
 -11  -5  -8  274.62   15.55
  11   5   9  199.16   11.22
 -11  -5  -9  209.46   10.75
  11   5  10  282.65   15.70
 -11  -5 -10  271.96   14.19
  11   5  11   42.88    5.21
  11   5  11   35.10    3.86
 -11  -5 -11   32.86    3.31
  11   5  12   58.25    5.75
  11   5  12   75.41    6.02
 -11  -5 -12   71.28    6.38
  11   5  13    3.17    2.19
 -11  -5 -13    1.72    2.02
  11   5  14    3.93    1.92
 -11  -5 -14    2.78    1.83
  11   6 -10   26.89    5.16
 -11  -6  10   23.31    4.14
  11   6  -9    7.53    2.14
  11   6  -9    7.65    2.77
 -11  -6   9    3.52    2.26
  11   6  -8    0.04    1.10
 -11  -6   8   -0.68    1.26
  11   6  -7   25.69    3.03
  11   6  -6    2.50    1.64
  11   6  -5    0.77    1.26
  11   6  -4   27.82    3.16
  11   6  -3   87.50    5.84
  11   6  -3   78.35    5.36
  11   6  -2  324.28   14.60
  11   6  -2  315.04   14.69
 -11  -6   2  293.98   11.46
 -11  -6   2  320.56   17.46
  11   6  -1  568.28   28.86
  11   6  -1  513.55   23.92
 -11  -6   1  522.68   21.54
 -11  -6   1  568.95   27.04
  11   6   0   15.93    2.37
  11   6   0   12.85    1.48
 -11  -6   0   12.68    1.41
 -11  -6   0   12.84    1.82
  11   6   1    7.55    1.45
  11   6   1    5.92    1.22
 -11  -6  -1    6.86    1.15
 -11  -6  -1    6.84    1.78
  11   6   2  734.77   38.39
  11   6   2  671.88   29.13
 -11  -6  -2  723.50   32.38
 -11  -6  -2  721.66   34.67
  11   6   3 1177.60   61.49
  11   6   3 1037.97   47.53
 -11  -6  -3 1088.21   51.87
 -11  -6  -3 1119.93   57.93
  11   6   4  117.85    7.41
  11   6   4   95.54    3.49
 -11  -6  -4   99.95    4.39
 -11  -6  -4  100.75    5.37
  11   6   5  566.59   27.33
  11   6   5  542.38   27.83
 -11  -6  -5  541.15   23.57
  11   6   6   61.40    4.06
  11   6   6   50.81    4.36
 -11  -6  -6   48.62    3.80
  11   6   7  199.51   12.56
  11   6   7  199.84   11.24
 -11  -6  -7  190.73   10.60
  11   6   8   50.02    3.15
 -11  -6  -8   43.20    3.92
  11   6   9  125.57    8.09
 -11  -6  -9  124.57    6.71
  11   6  10    8.17    1.95
  11   6  10    9.40    2.12
 -11  -6 -10    6.32    2.14
  11   6  11  135.41   10.17
  11   6  11  104.29    6.73
 -11  -6 -11  114.26    8.31
  11   6  12  111.84    9.25
  11   6  12   89.38    7.77
 -11  -6 -12  102.05    6.46
  11   6  13   78.93    7.53
  11   6  13   97.53    8.25
 -11  -6 -13  108.67    8.63
  11   6  14   36.25    5.73
  11   6  14   38.02    4.85
 -11  -6 -14   34.19    5.51
  11   7 -10   13.04    3.99
 -11  -7  10   12.95    4.46
  11   7  -9   50.12    5.29
  11   7  -9   27.89    4.79
 -11  -7   9   59.18    6.99
  11   7  -8    9.96    2.85
  11   7  -8   10.55    3.22
 -11  -7   8   15.29    3.61
  11   7  -7  240.86   15.31
  11   7  -7  258.92   16.96
 -11  -7   7  264.43   16.00
  11   7  -6  119.80    7.39
  11   7  -6  129.66    8.85
 -11  -7   6  122.05    8.44
  11   7  -5  132.10    9.02
  11   7  -5  121.22    8.63
 -11  -7   5  136.91    8.48
  11   7  -4  262.79   14.81
  11   7  -4  260.32   14.48
  11   7  -3  523.70   27.58
  11   7  -3  493.96   24.95
  11   7  -2    8.17    1.94
  11   7  -2    4.98    1.51
  11   7  -1  316.89   14.82
  11   7  -1  306.26   13.75
  11   7   0    4.98    1.23
  11   7   0    3.32    1.08
 -11  -7   0    1.87    0.79
 -11  -7   0    4.74    1.23
  11   7   1   37.00    2.68
  11   7   1   24.99    2.13
 -11  -7  -1   26.43    1.91
 -11  -7  -1   28.70    2.57
  11   7   2  262.13   12.34
  11   7   2  236.47    9.40
 -11  -7  -2  240.64    9.87
 -11  -7  -2  247.08   13.92
  11   7   3   33.98    3.48
  11   7   3   23.85    1.44
 -11  -7  -3   26.05    2.12
 -11  -7  -3   31.70    2.48
  11   7   4    6.56    1.95
  11   7   4    4.35    0.63
 -11  -7  -4    6.57    1.21
 -11  -7  -4    8.69    1.73
  11   7   5  473.04   23.05
  11   7   5  461.46   24.11
 -11  -7  -5  444.17   19.08
  11   7   6  348.45   19.70
  11   7   6  355.53   19.06
 -11  -7  -6  339.37   16.21
  11   7   7   80.77    5.84
 -11  -7  -7   77.71    5.01
  11   7   8    1.52    1.54
 -11  -7  -8    3.66    1.33
  11   7   9  139.49    9.24
 -11  -7  -9  142.55    8.65
  11   7  10  134.92    8.74
  11   7  10  134.69    9.44
 -11  -7 -10  131.44    8.80
  11   7  11   41.69    5.05
  11   7  11   38.19    3.43
 -11  -7 -11   35.78    4.38
  11   7  12  300.75   20.54
  11   7  12  294.76   19.25
 -11  -7 -12  299.56   19.01
  11   7  13   15.60    3.43
  11   7  13   11.52    2.33
 -11  -7 -13   13.45    2.46
  11   7  14   23.26    3.59
  11   7  14   26.63    4.27
 -11  -7 -14   28.80    4.61
  11   8  -9    9.88    2.69
  11   8  -9    3.01    2.34
 -11  -8   9    9.68    3.53
  11   8  -8   70.97    7.34
  11   8  -8   66.12    8.01
 -11  -8   8   89.25    9.33
  11   8  -7   48.22    5.62
  11   8  -7   42.17    4.46
 -11  -8   7   57.02    5.35
  11   8  -6  174.05   12.11
  11   8  -6  161.89    9.68
 -11  -8   6  195.66   14.41
  11   8  -5   17.68    2.56
  11   8  -5   20.44    2.97
 -11  -8   5   15.90    3.81
  11   8  -4   47.13    3.88
  11   8  -4   46.23    4.22
 -11  -8   4   48.24    5.57
  11   8  -3  463.66   23.65
  11   8  -3  453.48   22.71
 -11  -8   3  490.10   25.84
  11   8  -2   67.95    4.40
  11   8  -2   51.84    4.22
 -11  -8   2   63.71    5.82
  11   8  -1  111.12    7.53
  11   8  -1  101.90    5.66
  11   8   0  424.35   22.72
  11   8   0  394.14   17.37
  11   8   1   24.59    3.07
  11   8   1   22.72    1.76
 -11  -8  -1   18.48    1.48
  11   8   2  327.22   17.56
  11   8   2  286.60   10.48
 -11  -8  -2  291.23   11.51
  11   8   3   98.41    5.28
 -11  -8  -3   73.52    4.04
 -11  -8  -3   95.16    5.12
  11   8   4  146.06    9.03
  11   8   4  116.56    4.30
 -11  -8  -4  126.28    5.97
 -11  -8  -4  135.82    8.57
  11   8   5  273.59   13.27
  11   8   5  229.86   11.90
 -11  -8  -5  257.52   11.64
  11   8   6 1126.37   65.45
  11   8   6 1070.93   58.26
 -11  -8  -6 1006.32   49.15
  11   8   7   40.38    4.18
 -11  -8  -7   38.53    3.02
  11   8   8   23.89    3.37
 -11  -8  -8   24.99    2.67
  11   8   9  188.16   10.54
  11   8   9  193.40   10.40
 -11  -8  -9  177.24    8.85
  11   8  10    4.42    1.70
  11   8  10    7.03    2.07
 -11  -8 -10    5.56    1.38
  11   8  11  202.73   12.02
  11   8  11  184.98   12.83
 -11  -8 -11  192.04   12.00
  11   8  12    3.21    1.62
  11   8  12    2.26    1.48
 -11  -8 -12    4.12    1.86
  11   8  13   13.82    2.84
  11   8  13   13.74    3.37
 -11  -8 -13   17.96    2.56
  11   8  14    6.39    2.26
  11   8  14    2.42    2.19
 -11  -8 -14    1.36    2.23
  11   8  15    4.13    2.38
  11   8  15    3.58    2.42
 -11  -8 -15    2.38    2.49
  11   9  -8    3.47    1.64
  11   9  -8    1.84    2.22
 -11  -9   8    0.17    2.67
  11   9  -7  200.12   15.11
  11   9  -7  186.22   12.21
 -11  -9   7  223.82   17.60
  11   9  -6    4.50    2.09
  11   9  -6    2.85    1.97
 -11  -9   6    3.09    1.91
  11   9  -5   42.31    4.23
  11   9  -5   37.48    4.81
 -11  -9   5   55.41    4.99
  11   9  -4  272.28   17.10
  11   9  -4  249.27   14.52
 -11  -9   4  287.34   16.27
  11   9  -3   91.65    7.56
  11   9  -3   84.40    5.87
 -11  -9   3   96.24    6.70
  11   9  -2  140.65    9.85
  11   9  -2  128.10    7.34
 -11  -9   2  154.31   10.66
  11   9  -1   21.72    3.27
  11   9  -1   18.06    2.10
 -11  -9   1   20.65    3.38
  11   9   0  142.97    9.24
  11   9   0  119.76    5.54
 -11  -9   0  144.00    7.92
  11   9   1   61.25    4.18
  11   9   1   58.04    3.15
  11   9   2  260.46   13.00
  11   9   2  237.67    8.63
  11   9   3  277.98   15.76
  11   9   3  225.41    8.01
 -11  -9  -3  261.09   10.22
  11   9   4 1288.14   73.47
  11   9   4 1025.76   44.88
 -11  -9  -4 1149.68   54.87
  11   9   5   26.27    2.72
 -11  -9  -5   23.13    2.05
  11   9   6  109.36    6.41
 -11  -9  -6  103.98    5.48
  11   9   7   30.79    3.75
 -11  -9  -7   29.07    2.58
  11   9   8  143.83    9.39
  11   9   8  139.52    9.22
 -11  -9  -8  118.45    7.27
  11   9   9   36.66    4.39
  11   9   9   34.37    4.23
 -11  -9  -9   32.85    3.39
  11   9  10    2.63    2.07
  11   9  10    3.06    2.05
 -11  -9 -10    5.38    1.24
  11   9  11   58.73    5.83
  11   9  11   54.40    5.73
 -11  -9 -11   49.15    3.96
  11   9  12    3.02    1.72
  11   9  12   -0.61    1.78
 -11  -9 -12    1.27    1.19
  11   9  13  119.76    9.68
  11   9  13  116.37   10.06
 -11  -9 -13   97.42    7.28
  11   9  14   44.34    5.91
  11   9  14   35.48    4.50
 -11  -9 -14   48.03    4.48
  11   9  15    0.18    1.71
  11   9  15    0.40    1.30
 -11  -9 -15    0.60    1.71
  11  10  -7    9.13    3.19
  11  10  -7    7.58    2.96
 -11 -10   7   10.02    3.73
  11  10  -6  335.55   24.05
  11  10  -6  316.39   21.47
 -11 -10   6  368.26   23.87
  11  10  -5    6.92    2.77
  11  10  -5    5.98    2.26
 -11 -10   5    6.92    2.95
  11  10  -4   87.80    8.63
  11  10  -4   77.82    6.95
 -11 -10   4  127.45    9.67
  11  10  -3   71.58    6.90
  11  10  -3   59.68    5.14
 -11 -10   3   78.35    7.48
  11  10  -2   24.52    3.09
  11  10  -2   26.46    2.66
 -11 -10   2   23.95    3.25
  11  10  -1   12.52    2.51
  11  10  -1    6.77    1.54
 -11 -10   1    7.56    2.55
  11  10   0    3.27    1.99
  11  10   0    3.12    0.94
 -11 -10   0    7.26    1.94
  11  10   1  131.50    9.14
  11  10   1  112.25    5.09
 -11 -10  -1  138.03    8.02
  11  10   2  111.12    6.76
  11  10   2   96.79    4.03
 -11 -10  -2  122.94    8.00
  11  10   3  227.50   11.75
  11  10   3  194.69    6.90
 -11 -10  -3  224.15   11.98
  11  10   4   99.62    8.04
 -11 -10  -5  131.79    5.56
  11  10   6   73.15    5.28
 -11 -10  -6   69.30    4.20
  11  10   7  912.24   53.77
 -11 -10  -7  800.43   37.60
  11  10   8    8.01    1.83
  11  10   8    9.10    2.46
 -11 -10  -8    7.60    1.65
  11  10   9  128.67    8.11
  11  10   9  137.26    8.58
 -11 -10  -9  130.38    7.94
  11  10  10  298.53   16.59
  11  10  10  301.83   17.06
 -11 -10 -10  291.24   14.70
  11  10  11   25.43    3.06
  11  10  11   23.15    4.10
 -11 -10 -11   25.67    3.42
  11  10  12   54.31    4.74
  11  10  12   58.92    6.51
 -11 -10 -12   50.16    5.62
  11  10  13  204.37   13.21
  11  10  13  211.82   16.85
 -11 -10 -13  211.76   14.90
  11  10  14   33.72    3.95
  11  10  14   32.34    5.42
 -11 -10 -14   32.50    5.05
  11  10  15    9.23    2.88
  11  10  15    5.18    3.29
 -11 -10 -15    7.23    3.06
  11  11  -6    9.98    2.36
  11  11  -6    4.03    1.92
 -11 -11   6    6.49    2.58
  11  11  -5    3.26    1.84
  11  11  -5    2.80    1.86
 -11 -11   5    2.33    2.61
  11  11  -4   21.46    3.86
  11  11  -4   20.32    2.93
 -11 -11   4   11.14    3.25
  11  11  -3  247.82   17.48
  11  11  -3  222.72   13.54
 -11 -11   3  254.70   15.81
  11  11  -2  177.42   12.83
  11  11  -2  151.50    9.19
 -11 -11   2  180.50   13.68
  11  11  -1   57.56    6.33
  11  11  -1   51.86    3.98
 -11 -11   1   63.47    5.09
  11  11   0  239.67   15.41
  11  11   0  192.05    9.49
 -11 -11   0  236.13   15.56
  11  11   1  322.37   17.13
  11  11   1  286.31   12.51
 -11 -11  -1  332.49   20.47
  11  11   2  227.83   13.80
  11  11   2  180.29    7.02
 -11 -11  -2  217.73   11.91
  11  11   3   74.30    7.07
 -11 -11  -3   83.25    7.00
  11  11   4   78.70    7.42
 -11 -11  -4   91.73    6.07
 -11 -11  -5    0.01    1.18
  11  11   6  112.83    7.98
 -11 -11  -6   87.06    4.69
  11  11   7    9.44    1.95
  11  11   7    7.82    2.65
 -11 -11  -7    8.55    1.54
  11  11   8  138.39   10.02
  11  11   8  122.38   10.04
 -11 -11  -8  116.24    6.85
  11  11   9    4.46    2.05
  11  11   9    3.42    2.08
 -11 -11  -9    3.42    1.05
  11  11  10   64.43    6.83
  11  11  10   76.09    5.66
 -11 -11 -10   67.11    5.21
  11  11  11   30.56    4.41
  11  11  11   28.89    3.53
 -11 -11 -11   27.36    2.64
  11  11  12  108.86    8.85
  11  11  12   90.30    7.54
 -11 -11 -12  101.38    7.93
  11  11  13  152.16   12.04
  11  11  13  155.70   11.11
 -11 -11 -13  146.57    9.24
  11  11  14   32.56    5.00
  11  11  14   71.23    7.51
 -11 -11 -14   69.86    6.42
  11  11  15   43.01    4.68
  11  11  15   45.53    7.11
 -11 -11 -15   42.96    6.16
  11  12  -5   27.07    3.78
  11  12  -5   16.96    2.86
 -11 -12   5   23.72    5.28
  11  12  -4   18.12    3.22
  11  12  -4   19.37    3.02
 -11 -12   4    8.74    3.41
  11  12  -3  319.09   22.52
  11  12  -3  265.83   16.88
 -11 -12   3  318.59   20.37
  11  12  -2  136.11    9.34
  11  12  -2  106.19    7.80
 -11 -12   2  154.35    9.80
  11  12  -1    3.51    2.15
  11  12  -1    2.57    1.30
 -11 -12   1    4.86    2.27
  11  12   0   50.64    6.45
  11  12   0   51.28    3.21
 -11 -12   0   58.28    5.04
  11  12   1   38.59    3.66
  11  12   1   29.89    2.15
 -11 -12  -1   39.20    5.06
  11  12   2    6.44    2.50
 -11 -12  -2    6.38    2.56
  11  12   3  247.03   14.38
 -11 -12  -3  243.67   14.61
 -11 -12  -4   80.03    6.22
 -11 -12  -5  142.50   10.90
  11  12   6   15.33    3.17
  11  12   6   11.99    3.13
  11  12   7    4.90    1.74
  11  12   7    5.54    1.77
  11  12   8   11.17    2.79
 -11 -12  -8    8.38    1.63
  11  12   9    2.12    1.78
  11  12   9    0.98    1.39
 -11 -12  -9    2.02    1.17
  11  12  10  146.87   11.54
  11  12  10  150.74   10.32
 -11 -12 -10  143.82    9.23
  11  12  11   14.29    3.38
  11  12  11   17.68    3.76
 -11 -12 -11   14.47    2.62
  11  12  12   29.82    4.99
  11  12  12   44.88    5.33
 -11 -12 -12   29.37    4.26
  11  12  13    4.49    2.33
  11  12  13    5.90    2.63
 -11 -12 -13    3.52    1.60
  11  12  14   93.24    7.36
  11  12  14  107.42   11.69
 -11 -12 -14  102.86    9.19
  11  13  -3  104.10   11.27
  11  13  -3   87.93    7.38
 -11 -13   3  101.54   11.53
  11  13  -2  209.15   14.09
  11  13  -2  166.17   11.18
 -11 -13   2  206.20   16.91
  11  13  -1    5.93    2.43
  11  13  -1    2.00    1.18
 -11 -13   1    3.90    1.87
  11  13   0   28.23    3.50
  11  13   0   20.13    2.38
 -11 -13   0   24.44    3.50
  11  13   1    9.45    3.31
 -11 -13  -1   12.73    2.54
  11  13   2    0.02    1.89
 -11 -13  -2    3.04    1.93
 -11 -13  -3   12.02    3.25
 -11 -13  -4   21.24    3.07
 -11 -13  -5   22.52    3.23
  11  13   6    3.45    1.71
  11  13   6    3.35    2.18
  11  13   7   85.63    8.05
  11  13   7   75.36    6.42
  11  13   8   21.99    3.10
  11  13   8   20.56    4.09
  11  13   9  133.66   11.33
  11  13   9  138.05   11.35
  11  13  10   42.74    5.55
  11  13  10   43.02    4.70
 -11 -13 -10   42.23    3.93
  11  13  11    3.47    2.25
  11  13  11    3.29    1.89
 -11 -13 -11    3.82    1.66
  11  13  12   27.54    4.58
  11  13  12   36.18    5.55
 -11 -13 -12   30.64    3.90
  11  13  13    9.82    2.93
  11  13  13    8.30    3.46
 -11 -13 -13    8.28    2.64
  11  13  14    7.41    2.23
  11  13  14    9.16    2.64
 -11 -13 -14    6.82    2.82
  11  14  -2  394.27   26.39
  11  14  -2  305.88   19.67
 -11 -14   2  384.71   29.96
  11  14  -1   13.93    4.35
 -11 -14   1   16.29    4.32
  11  14   0   90.57    7.77
 -11 -14   0   93.06   10.08
  11  14   1   29.54    4.10
 -11 -14  -1   23.77    3.90
  11  14   2   28.95    3.86
 -11 -14  -2   28.76    4.01
 -11 -14  -3    4.73    2.58
 -11 -14  -4  237.90   18.45
  11  14   5    8.91    2.27
  11  14   6   38.65    4.29
  11  14   7   92.32    7.81
  11  14   7  128.44   10.65
  11  14   8   76.12    8.78
  11  14   8  107.92    9.71
  11  14   9    7.25    2.70
  11  14   9    6.22    2.14
  11  14  10   22.66    3.22
  11  14  10   22.21    4.69
  11  14  11   25.96    4.44
  11  14  11   25.01    5.21
  11  14  12    8.82    2.11
  11  14  12    8.28    2.60
 -11 -14 -12    6.38    2.31
  11  14  13   41.05    4.58
  11  14  13   50.25    6.87
 -11 -14 -13   38.30    5.06
  11  15   0    0.96    2.47
 -11 -15   0    2.54    2.41
  11  15   1  147.87   12.21
 -11 -15  -1  157.33   14.78
 -11 -15  -2    5.72    2.37
 -11 -15  -3   52.17    5.69
  11  15   4   85.67    9.09
 -11 -15  -4   79.90    9.53
  11  15   5   43.70    5.34
  11  15   5   52.08    5.18
  11  15   6   21.56    3.39
  11  15   7   12.13    2.79
  11  15   8   12.58    3.52
  11  15   9   73.51    6.25
  11  15  10  148.15   12.63
  11  15  10  156.87   14.06
  11  15  11    2.07    2.10
  11  15  11    2.08    1.84
  11  15  12    0.97    1.64
  11  15  12   -0.52    1.98
  11  15  13    5.25    2.58
  11  15  13    4.83    2.43
  11  16   3    4.55    2.18
 -11 -16  -3    2.36    2.76
  11  16   4    7.51    3.77
 -11 -16  -4   11.20    2.83
  11  16   5   27.53    4.45
  11  16   5   32.47    5.67
  11  16   6    4.59    2.72
  11  16   6    2.76    2.68
  11  16   7   17.84    4.54
  11  16   7   17.19    4.63
  11  16   8    1.77    2.43
  11  16   8    4.19    2.61
  11  16   9    5.25    2.08
  11  16  10   55.93    7.26
  11  16  11   60.59    7.65
  12  -8  -7   11.83    3.53
 -12   8   7   15.61    3.47
 -12   8   6  178.35   15.97
 -12   8   5   13.80    3.61
 -12   8   4    2.89    2.12
 -12   8   3   42.15    8.12
 -12   8   3   64.22    7.82
  12  -7  -9    5.68    3.50
 -12   7   9    5.89    3.43
  12  -7  -8    3.44    2.40
 -12   7   8    8.39    3.22
 -12   7   7   79.34    7.70
 -12   7   6    5.59    3.04
 -12   7   5  158.75   14.19
 -12   7   5  129.88   11.91
 -12   7   4   61.61    8.84
 -12   7   3    7.10    2.49
 -12   7   2  111.80   12.40
 -12   7   2  142.64   12.54
 -12   7   1    9.61    2.74
 -12   7   1    9.22    3.34
  12  -7   0   13.65    3.78
 -12   7   0   20.68    4.68
 -12   7   0   31.61    4.66
  12  -6 -11   52.59    6.44
 -12   6  11   33.08    6.15
  12  -6 -10    1.20    2.44
 -12   6  10    1.15    2.32
  12  -6  -9   22.89    5.55
 -12   6   9   22.88    5.35
 -12   6   8  224.80   16.68
 -12   6   7   19.86    3.61
 -12   6   6   14.14    3.94
 -12   6   5   63.17    7.50
 -12   6   4   49.27    4.77
 -12   6   4   31.53    4.95
 -12   6   3   16.79    4.96
 -12   6   3   27.40    3.71
 -12   6   2   66.15    8.23
  12  -6  -1   13.11    2.48
 -12   6   1    4.78    2.52
  12  -6   0   76.42    8.03
 -12   6   0   76.40   10.19
 -12   6   0  112.56    9.77
  12  -6   1   66.83    5.98
 -12   6  -1   97.70    6.90
 -12   6  -1   75.74    9.07
  12  -6   2   11.68    3.82
 -12   6  -2   20.95    4.04
 -12   6  -2   19.94    4.19
  12  -5 -11  159.61   18.67
 -12   5  11  214.83   17.66
 -12   5  11  161.17   11.65
  12  -5 -10    3.90    3.08
 -12   5  10    2.71    1.67
 -12   5  10    6.45    2.23
 -12   5   9   39.35    4.35
 -12   5   9   23.42    3.03
 -12   5   8    2.76    1.84
 -12   5   7   19.16    4.40
 -12   5   6   26.20    3.69
  12  -5  -5  176.12   14.88
 -12   5   5  183.01   14.37
  12  -5  -4    4.95    2.78
 -12   5   4    8.27    2.85
 -12   5   3    4.89    2.14
 -12   5   3    1.97    1.04
  12  -5  -2   58.04    4.41
 -12   5   2   44.68    5.91
 -12   5   2  106.11    7.37
  12  -5  -1    4.52    1.92
 -12   5   1    6.51    2.58
  12  -5   0    2.85    1.94
 -12   5   0    5.09    2.29
  12  -5   1    4.02    1.81
 -12   5  -1   -0.04    2.01
  12  -5   2    2.40    1.55
 -12   5  -2    3.94    2.22
 -12   5  -2    3.81    2.14
  12  -5   3    3.53    2.01
 -12   5  -3    0.31    1.90
 -12   5  -3    1.19    1.88
  12  -5   4   16.05    3.99
 -12   5  -4   16.22    3.70
 -12   5  -4   11.89    3.50
  12  -4 -12   60.47   10.36
 -12   4  12   86.42    9.32
 -12   4  12   58.53    6.98
  12  -4 -11    0.75    2.41
 -12   4  11    4.06    2.18
 -12   4  11    5.78    1.94
 -12   4  10  100.89    8.41
 -12   4  10   43.53    5.65
 -12   4   9   53.52    6.00
 -12   4   9   30.61    3.66
 -12   4   8  136.31   10.86
 -12   4   8   92.48    6.26
 -12   4   7    2.73    1.65
 -12   4   7    2.33    1.15
  12  -4  -6    2.20    1.90
 -12   4   6    0.39    0.73
 -12   4   6    2.72    1.83
  12  -4  -5    9.86    3.12
 -12   4   5    8.58    2.22
  12  -4  -4    7.80    2.15
 -12   4   4    7.35    2.11
  12  -4  -3    8.92    2.71
 -12   4   3    6.59    2.77
  12  -4  -2   13.50    2.52
 -12   4   2   18.64    2.79
 -12   4   2   18.37    2.73
  12  -4  -1   40.62    3.20
 -12   4   1   49.63    5.36
 -12   4   1   33.43    4.19
  12  -4   0   22.67    3.62
 -12   4   0   27.23    4.23
 -12   4   0   32.78    4.38
  12  -4   1  138.43   10.69
 -12   4  -1  163.41   12.14
  12  -4   2   29.13    3.89
 -12   4  -2   19.79    2.97
  12  -4   3    2.42    1.61
 -12   4  -3    4.48    2.13
 -12   4  -3    3.44    1.49
  12  -4   4   41.90    4.37
 -12   4  -4   36.56    4.09
 -12   4  -4   34.03    4.78
  12  -4   5  198.17   14.16
 -12   4  -5  207.03   14.90
 -12   4  -5  167.42   13.29
  12  -3 -12  191.79   15.99
 -12   3  12  186.25   16.69
 -12   3  12  171.29   14.73
 -12   3  11   32.15    4.26
 -12   3  11   27.57    4.38
 -12   3  10  113.91   10.19
 -12   3  10   86.66    7.72
 -12   3   9   35.06    5.09
 -12   3   9   26.67    3.54
 -12   3   8  107.48    9.51
 -12   3   8   84.49    6.31
  12  -3  -7  208.33   15.45
 -12   3   7  209.29   14.69
 -12   3   7  163.28    9.72
  12  -3  -6    6.80    2.59
 -12   3   6    4.02    1.19
 -12   3   6    7.56    1.90
  12  -3  -5    5.52    2.45
 -12   3   5    5.77    2.29
 -12   3   5    4.82    1.21
  12  -3  -4   21.35    2.85
 -12   3   4   14.20    1.70
 -12   3   4   21.59    3.48
  12  -3  -3   14.00    2.24
  12  -3  -3   16.00    2.53
 -12   3   3   12.83    1.20
 -12   3   3   15.07    3.16
  12  -3  -2  113.23    7.54
  12  -3  -2  124.73    9.89
 -12   3   2  137.16    9.98
  12  -3  -1   15.53    2.45
 -12   3   1   14.95    3.21
 -12   3   1   13.02    2.35
  12  -3   0   15.24    2.67
 -12   3   0   18.29    3.10
 -12   3   0   12.49    2.40
  12  -3   1   64.61    6.22
 -12   3  -1   62.91    6.68
 -12   3  -1   78.01    6.92
  12  -3   2    8.31    2.37
 -12   3  -2    8.70    2.45
 -12   3  -2    6.57    1.81
  12  -3   3   21.31    3.85
 -12   3  -3   23.19    3.59
  12  -3   4   61.30    6.76
 -12   3  -4   56.15    4.67
  12  -3   5   11.25    3.17
 -12   3  -5   10.88    2.50
 -12   3  -5    7.56    2.12
  12  -3   6   28.24    3.36
 -12   3  -6    8.15    2.48
 -12   3  -6   26.18    3.74
 -12   2  12   15.82    3.08
 -12   2  12   15.85    3.83
 -12   2  11   34.08    5.27
 -12   2  11   26.52    4.66
 -12   2  10  209.96   15.70
 -12   2  10  180.57   10.93
 -12   2   9   61.02    6.90
 -12   2   9   59.50    5.72
  12  -2  -8   90.75    7.39
 -12   2   8   84.62    8.18
 -12   2   8   77.38    5.00
  12  -2  -7    7.56    2.82
 -12   2   7    5.12    2.48
 -12   2   7    6.94    1.73
  12  -2  -6  273.05   18.37
 -12   2   6  270.24   14.18
 -12   2   6  219.03   11.91
  12  -2  -5  522.56   28.67
 -12   2   5  509.54   28.99
 -12   2   5  425.21   21.47
  12  -2  -4   93.06    6.11
  12  -2  -4  122.76    8.84
 -12   2   4  136.55    8.43
 -12   2   4   85.76    5.20
  12  -2  -3    1.19    1.15
  12  -2  -3    1.65    1.20
 -12   2   3    0.32    1.57
 -12   2   3    1.47    0.81
  12  -2  -2   59.16    4.29
  12  -2  -2   53.33    4.13
 -12   2   2   52.91    5.50
 -12   2   2   45.58    2.78
  12  -2  -1   84.93    4.77
  12  -2  -1   81.90    7.00
 -12   2   1   92.75    7.26
  12  -2   0   11.82    1.89
 -12   2   0   15.41    2.16
 -12   2   0   12.88    2.73
  12  -2   1    3.27    1.78
 -12   2  -1    3.96    1.82
 -12   2  -1    4.34    1.48
  12  -2   2  204.17   13.83
 -12   2  -2  233.92   14.56
 -12   2  -2  213.77   11.61
  12  -2   3   21.81    4.04
 -12   2  -3   30.66    2.96
 -12   2  -3   22.77    3.48
  12  -2   4    0.19    1.09
 -12   2  -4    0.34    1.13
  12  -2   5    7.40    2.71
 -12   2  -5    6.95    2.13
  12  -2   6   16.69    3.07
 -12   2  -6    2.60    2.06
  12  -2   7   11.12    2.92
 -12   2  -7    7.93    2.50
 -12   2  -7   17.11    3.17
  12  -2   8   68.55    9.07
 -12   2  -8   69.81    6.18
 -12   1  12   23.79    4.55
 -12   1  12   21.23    3.59
 -12   1  11  106.23    9.96
 -12   1  11  115.74   10.17
 -12   1  10  198.51   14.56
 -12   1  10  194.19   11.96
  12  -1  -9   44.45    6.57
 -12   1   9   35.97    3.88
 -12   1   9   39.72    3.64
  12  -1  -8   24.81    4.91
 -12   1   8   27.76    3.24
 -12   1   8   25.99    3.47
  12  -1  -7   41.52    4.32
 -12   1   7   40.28    3.66
 -12   1   7   35.64    3.89
  12  -1  -6  266.94   18.57
 -12   1   6  274.45   16.71
 -12   1   6  239.91   13.54
  12  -1  -5  245.80   12.95
  12  -1  -5  294.39   15.89
 -12   1   5  288.98   14.29
 -12   1   5  260.79   13.19
  12  -1  -4   44.19    3.75
  12  -1  -4   48.43    5.38
 -12   1   4   52.87    4.92
 -12   1   4   42.34    3.50
  12  -1  -3   14.19    1.95
  12  -1  -3   12.18    2.68
 -12   1   3   12.70    2.62
 -12   1   3    9.54    1.60
  12  -1  -2  135.64    7.14
  12  -1  -2  153.85   10.04
 -12   1   2  164.47   10.05
 -12   1   2  121.90    6.43
  12  -1  -1   58.60    4.45
  12  -1  -1   51.82    5.08
 -12   1   1   45.97    2.93
 -12   1   1   57.62    5.11
  12  -1   0   13.42    2.10
  12  -1   0    8.82    2.12
 -12   1   0    9.00    1.70
 -12   1   0    7.00    1.01
  12  -1   1  137.95    7.98
 -12   1  -1  148.23    9.93
 -12   1  -1  163.60   10.28
  12  -1   2   80.66    6.51
 -12   1  -2   75.24    6.45
 -12   1  -2   77.26    4.72
  12  -1   3    4.81    1.40
 -12   1  -3    2.86    1.32
 -12   1  -3    1.51    1.56
  12  -1   4   39.87    4.82
 -12   1  -4   38.65    3.93
 -12   1  -4   35.63    4.59
  12  -1   5   28.65    3.38
 -12   1  -5   20.56    3.26
 -12   1  -5   34.25    3.08
  12  -1   6    3.26    2.37
 -12   1  -6    5.01    1.69
  12  -1   7   31.18    4.06
  12  -1   8  161.74   15.15
 -12   1  -8  175.89   11.20
  12  -1   9   17.70    3.65
 -12   1  -9   18.64    3.98
 -12   0  12   25.68    5.20
  12   0 -11  123.97   11.95
 -12   0  11   77.40    8.73
 -12   0  11  105.09    9.84
  12   0 -10   13.76    3.21
 -12   0  10   14.22    2.41
 -12   0  10   15.27    3.45
  12   0  -9    4.39    2.37
 -12   0   9    1.62    1.82
 -12   0   9    2.30    1.43
  12   0  -8  128.27   12.27
 -12   0   8  137.25    9.80
 -12   0   8  138.79    9.88
  12   0  -7    3.09    1.67
 -12   0   7    4.19    1.77
 -12   0   7    2.82    1.24
  12   0  -6  134.47    8.65
 -12   0   6  129.21    7.48
 -12   0   6  121.70    7.81
  12   0  -5  140.64    7.91
  12   0  -5  154.79    9.22
 -12   0   5  153.34    9.66
 -12   0   5  146.78    8.61
  12   0  -4  853.14   45.55
  12   0  -4  909.83   53.89
 -12   0   4  945.24   52.05
 -12   0   4  835.36   44.19
  12   0  -3   78.99    5.43
  12   0  -3   87.44    6.89
 -12   0   3   97.89    5.34
 -12   0   3   65.81    5.12
  12   0  -2  269.95   14.40
  12   0  -2  265.41   15.65
 -12   0   2  286.98   13.54
 -12   0   2  257.66   12.49
  12   0  -1    8.52    1.89
  12   0  -1    7.06    1.54
 -12   0   1    8.27    1.61
 -12   0   1    6.54    1.32
  12   0   0    4.98    1.70
  12   0   0    6.96    1.67
 -12   0   0    3.37    1.81
 -12   0   0    4.00    1.10
  12   0   1   45.58    3.77
 -12   0  -1   62.76    5.03
  12   0   2  197.88   12.31
 -12   0  -2  179.43    9.25
 -12   0  -2  202.51   10.14
  12   0   3   73.88    4.66
 -12   0  -3   55.61    4.62
 -12   0  -3   67.19    5.52
  12   0   4    0.90    1.26
 -12   0  -4    1.12    1.15
 -12   0  -4    2.50    1.49
  12   0   5  143.50   10.88
 -12   0  -5  119.97    8.04
 -12   0  -5  144.06    8.23
  12   0   6   41.66    4.33
 -12   0  -6   31.00    3.57
 -12   0  -6   53.47    4.80
  12   0   7    8.10    2.57
 -12   0  -7   15.75    2.30
  12   0   8    5.66    2.78
  12   0   9   88.22    7.71
  12   1 -12   19.75    5.39
 -12  -1  12   15.36    4.69
  12   1 -11  368.46   30.47
 -12  -1  11  367.94   28.04
  12   1 -10  342.60   26.60
 -12  -1  10  349.87   21.05
  12   1  -9  194.89   14.28
 -12  -1   9  154.18   11.01
 -12  -1   9  156.22   12.76
  12   1  -8   50.34    5.12
 -12  -1   8   43.51    4.87
 -12  -1   8   53.10    5.53
  12   1  -7    7.95    2.92
 -12  -1   7    9.87    2.31
 -12  -1   7    8.89    1.81
  12   1  -6   30.68    3.23
  12   1  -6   40.22    3.81
 -12  -1   6   44.11    3.93
  12   1  -5    7.39    1.91
  12   1  -5    9.59    2.06
 -12  -1   5   10.25    2.26
 -12  -1   5   13.32    1.61
  12   1  -4   97.96    6.22
  12   1  -4  133.51    8.18
 -12  -1   4  106.10    6.79
 -12  -1   4  110.26    7.30
  12   1  -3   93.37    6.20
  12   1  -3  120.66    7.70
 -12  -1   3  107.11    5.78
 -12  -1   3   98.44    6.23
  12   1  -2  103.90    6.83
  12   1  -2  133.30    7.27
 -12  -1   2  109.21    5.79
 -12  -1   2   90.90    5.92
  12   1  -1   42.73    3.03
  12   1  -1   43.10    3.13
 -12  -1   1   30.76    3.09
 -12  -1   1   47.52    3.25
  12   1   0   17.10    2.09
  12   1   0   15.74    2.57
 -12  -1   0   15.02    1.99
 -12  -1   0   22.92    2.12
  12   1   1  358.32   19.28
  12   1   1  333.74   17.09
 -12  -1  -1  364.51   18.99
 -12  -1  -1  308.81   13.70
  12   1   2  161.36   10.30
 -12  -1  -2  162.44    9.72
 -12  -1  -2  147.09    8.72
  12   1   3   17.96    3.13
 -12  -1  -3   21.43    2.34
 -12  -1  -3   12.94    2.13
  12   1   4  136.95    8.38
 -12  -1  -4  127.21    7.64
 -12  -1  -4  137.97    8.89
  12   1   5    8.63    2.02
 -12  -1  -5    8.80    1.76
 -12  -1  -5   12.86    2.38
  12   1   6  215.85   15.12
 -12  -1  -6  195.85   10.57
  12   1   7   10.25    2.88
 -12  -1  -7    9.36    1.95
  12   1   8   15.23    3.64
 -12  -1  -8   13.97    3.14
  12   1   9    2.73    2.33
  12   1  10    3.69    2.04
  12   2 -11    3.38    2.95
 -12  -2  11    3.49    2.74
  12   2 -10  105.18   11.70
 -12  -2  10  109.79   10.56
  12   2  -9  116.23    8.23
 -12  -2   9   86.92    7.66
  12   2  -8   88.16    9.19
 -12  -2   8   89.91    6.40
 -12  -2   8   87.05    6.61
  12   2  -7  133.49    8.88
 -12  -2   7  135.19    8.42
 -12  -2   7  136.83    8.34
  12   2  -6   41.18    4.02
  12   2  -6   50.91    5.56
 -12  -2   6   52.41    4.05
 -12  -2   6   55.75    4.96
  12   2  -5    3.73    1.60
  12   2  -5    5.05    1.59
 -12  -2   5    5.00    1.64
 -12  -2   5    6.10    1.80
  12   2  -4   33.59    3.42
  12   2  -4   38.22    4.10
 -12  -2   4   36.65    3.44
 -12  -2   4   31.20    3.60
  12   2  -3   24.09    2.83
  12   2  -3   24.08    3.28
 -12  -2   3   24.37    2.91
 -12  -2   3   23.72    2.79
  12   2  -2  236.07   10.77
  12   2  -2  235.93   12.95
 -12  -2   2  241.30   12.58
 -12  -2   2  221.46   11.99
  12   2  -1  193.89   10.90
  12   2  -1  192.92   10.73
 -12  -2   1  201.20   10.33
 -12  -2   1  178.23    9.49
  12   2   0    3.25    1.65
  12   2   0    4.70    1.12
 -12  -2   0    3.75    0.98
 -12  -2   0    4.53    1.59
  12   2   1   11.09    2.10
  12   2   1    7.25    1.75
 -12  -2  -1    7.81    1.89
 -12  -2  -1    7.36    1.58
  12   2   2   42.76    4.07
  12   2   2   33.68    3.08
 -12  -2  -2   43.60    3.61
 -12  -2  -2   26.24    2.84
  12   2   3  342.38   18.98
  12   2   3  289.55   13.73
 -12  -2  -3  302.10   15.04
 -12  -2  -3  315.28   14.60
  12   2   4   35.83    3.92
 -12  -2  -4   18.89    2.53
 -12  -2  -4   37.62    3.37
  12   2   5   26.57    3.81
 -12  -2  -5   22.27    3.24
  12   2   6  176.51   13.02
 -12  -2  -6  162.37   10.90
  12   2   7  126.92    9.91
 -12  -2  -7  106.16    6.75
  12   2   8    6.00    2.39
 -12  -2  -8    4.44    1.57
  12   2   9  100.05    9.66
 -12  -2  -9   99.71    8.35
  12   2  10    4.51    2.23
 -12  -2 -10    0.23    1.89
  12   3 -11    4.28    3.09
 -12  -3  11    3.23    2.84
  12   3 -10  250.91   21.74
 -12  -3  10  274.54   21.56
  12   3  -9  293.52   19.30
 -12  -3   9  313.58   19.43
  12   3  -8   97.78    9.06
 -12  -3   8   84.76    8.69
  12   3  -7  176.00   10.48
  12   3  -7  190.02   14.00
 -12  -3   7  189.25   13.35
  12   3  -6    6.15    1.80
  12   3  -6    5.61    2.38
 -12  -3   6    7.35    1.67
 -12  -3   6    6.54    1.70
  12   3  -5   21.42    2.79
  12   3  -5   22.16    3.43
 -12  -3   5   20.44    2.57
 -12  -3   5   22.89    3.30
  12   3  -4  557.59   28.82
  12   3  -4  574.77   31.52
 -12  -3   4  560.72   27.23
 -12  -3   4  549.22   27.67
  12   3  -3    2.40    1.04
  12   3  -3    3.12    1.11
 -12  -3   3    1.19    0.88
 -12  -3   3    1.82    1.39
  12   3  -2  225.38   12.28
  12   3  -2  215.79   12.34
 -12  -3   2  221.72    9.92
 -12  -3   2  232.30   12.34
  12   3  -1  699.01   36.44
  12   3  -1  662.67   34.22
 -12  -3   1  650.22   33.39
 -12  -3   1  674.59   30.66
  12   3   0  369.69   18.58
  12   3   0  400.70   20.83
 -12  -3   0  378.59   17.21
 -12  -3   0  409.43   17.96
  12   3   1  114.37    6.74
  12   3   1   82.97    5.28
 -12  -3  -1   88.12    4.72
 -12  -3  -1   88.57    5.38
  12   3   2   41.40    3.80
  12   3   2   31.68    2.68
 -12  -3  -2   37.76    3.17
 -12  -3  -2   26.03    2.22
  12   3   3  282.12   16.08
  12   3   3  257.85   11.28
 -12  -3  -3  268.27   14.12
 -12  -3  -3  250.44   12.14
  12   3   4  502.27   28.03
  12   3   4  445.47   21.53
 -12  -3  -4  472.62   24.05
  12   3   5    7.82    1.86
  12   3   5    7.90    1.61
 -12  -3  -5    8.99    1.98
  12   3   6   10.06    1.83
 -12  -3  -6    4.66    1.50
  12   3   7    0.63    1.12
 -12  -3  -7    0.25    0.94
  12   3   8    8.61    2.61
 -12  -3  -8    6.39    1.65
  12   3   9   38.22    5.27
 -12  -3  -9   32.00    3.38
  12   3  10    4.97    2.14
 -12  -3 -10    0.74    1.33
 -12  -3 -11   57.86    5.19
  12   4 -10    3.61    1.96
 -12  -4  10    1.21    2.56
  12   4  -9   26.40    3.95
 -12  -4   9   28.65    4.08
  12   4  -8  213.76   16.98
 -12  -4   8  229.50   17.20
  12   4  -7  100.22    6.70
  12   4  -7   84.87    6.67
 -12  -4   7   92.82    8.64
  12   4  -6    1.87    1.50
  12   4  -6    3.22    1.43
 -12  -4   6    3.16    1.92
  12   4  -5    9.32    1.93
  12   4  -5    7.05    2.25
 -12  -4   5    4.45    1.55
 -12  -4   5    8.57    1.80
  12   4  -4 1762.68  108.56
  12   4  -4 1758.29  112.84
 -12  -4   4 1683.08   97.28
 -12  -4   4 1819.51  112.08
  12   4  -3   59.48    4.86
  12   4  -3   62.17    3.93
 -12  -4   3   51.21    3.84
 -12  -4   3   60.87    5.09
  12   4  -2   31.53    2.74
  12   4  -2   26.27    2.48
 -12  -4   2   26.13    2.58
 -12  -4   2   30.14    2.66
  12   4  -1   56.26    4.69
  12   4  -1   54.04    4.20
 -12  -4   1   53.20    3.47
 -12  -4   1   50.42    3.08
  12   4   0   51.21    4.30
  12   4   0   41.21    3.45
 -12  -4   0   43.55    2.63
 -12  -4   0   42.03    3.75
  12   4   1  122.16    7.56
  12   4   1  101.05    5.85
 -12  -4  -1   96.23    4.90
 -12  -4  -1  100.09    6.53
  12   4   2  554.75   29.46
  12   4   2  487.43   22.37
 -12  -4  -2  520.51   23.36
 -12  -4  -2  508.62   26.30
  12   4   3    8.58    1.81
  12   4   3    9.20    1.36
 -12  -4  -3   11.37    1.35
 -12  -4  -3    7.26    1.81
  12   4   4    6.10    1.52
  12   4   4    4.04    1.43
 -12  -4  -4    3.40    1.16
  12   4   5   43.44    5.12
  12   4   5   48.14    3.86
 -12  -4  -5   46.06    3.17
  12   4   6   23.32    3.55
  12   4   6   21.98    2.47
 -12  -4  -6   18.60    2.13
  12   4   7    8.85    1.97
  12   4   7    7.39    1.76
 -12  -4  -7    7.48    1.61
  12   4   8  162.48   10.09
  12   4   8  143.93    8.69
 -12  -4  -8  140.88    8.12
  12   4   9   19.27    3.96
 -12  -4  -9   19.46    2.46
 -12  -4 -10   44.20    4.01
 -12  -4 -11   39.50    3.98
  12   4  12   65.84    6.61
 -12  -4 -12   69.64    5.89
  12   5 -10  184.40   17.46
  12   5  -9   31.65    5.58
  12   5  -8   12.24    2.61
  12   5  -8   10.45    3.41
 -12  -5   8   12.37    3.69
  12   5  -7  142.77   10.08
  12   5  -7  154.67    9.85
 -12  -5   7  157.74   10.58
  12   5  -6   25.56    3.47
  12   5  -6   24.13    4.07
 -12  -5   6   31.80    4.35
  12   5  -5   57.40    4.49
  12   5  -5   42.42    3.95
 -12  -5   5   44.47    5.56
  12   5  -4   11.51    2.34
  12   5  -4    8.32    2.32
 -12  -5   4   11.06    2.66
  12   5  -3  177.22    9.08
  12   5  -3  173.71    8.66
 -12  -5   3  175.33   11.36
 -12  -5   3  159.93    7.68
  12   5  -2  123.15    7.57
  12   5  -2  101.41    6.60
 -12  -5   2  125.62    7.85
 -12  -5   2  101.66    5.62
  12   5  -1  124.48    7.65
  12   5  -1  101.31    6.52
 -12  -5   1  101.28    5.46
 -12  -5   1  114.47    7.49
  12   5   0    5.00    1.25
  12   5   0    3.56    1.25
 -12  -5   0    1.73    1.16
 -12  -5   0    1.58    1.51
  12   5   1   85.14    4.56
  12   5   1   50.41    3.97
 -12  -5  -1   72.83    4.11
 -12  -5  -1   65.43    5.13
  12   5   2  448.95   24.19
  12   5   2  378.89   17.35
 -12  -5  -2  412.70   19.77
 -12  -5  -2  425.53   19.88
  12   5   3  498.46   26.81
  12   5   3  420.04   17.75
 -12  -5  -3  451.64   22.26
 -12  -5  -3  465.87   21.84
  12   5   4   41.88    4.42
  12   5   4   40.20    3.55
 -12  -5  -4   39.73    3.35
  12   5   5  127.89    7.52
  12   5   5  119.02    7.46
 -12  -5  -5  110.69    5.60
  12   5   6   97.54    7.44
  12   5   6   77.46    4.53
 -12  -5  -6   76.49    4.54
  12   5   7   50.46    5.62
  12   5   7   55.46    4.31
 -12  -5  -7   47.29    3.49
  12   5   8   28.08    3.09
  12   5   8   22.20    2.97
 -12  -5  -8   22.96    3.24
  12   5   9   23.21    2.99
 -12  -5  -9   20.54    3.39
  12   5  10   27.18    2.67
 -12  -5 -10   26.18    3.96
 -12  -5 -11    3.99    1.62
  12   5  12   12.65    3.90
 -12  -5 -12   14.48    2.57
  12   6  -9  128.24   10.50
  12   6  -8   -0.14    1.38
  12   6  -8    1.28    1.67
  12   6  -7  176.95   11.98
  12   6  -7  178.73   11.37
  12   6  -6  194.50   10.85
  12   6  -6  202.70   13.86
  12   6  -5    4.57    1.73
  12   6  -5    1.31    1.72
 -12  -6   5    2.22    2.04
  12   6  -4   69.51    5.97
  12   6  -4   61.17    5.71
 -12  -6   4   79.53    5.60
  12   6  -3   81.96    5.54
  12   6  -3   76.13    6.08
 -12  -6   3   94.03    7.18
  12   6  -2  168.45   10.47
  12   6  -2  157.73    9.21
 -12  -6   2  150.84    6.92
 -12  -6   2  172.04    9.41
  12   6  -1  490.38   23.91
  12   6  -1  453.94   22.86
 -12  -6   1  443.61   19.70
 -12  -6   1  511.67   28.02
  12   6   0  877.87   45.25
  12   6   0  836.33   41.34
 -12  -6   0  815.30   38.98
 -12  -6   0  823.27   43.16
  12   6   1   79.01    4.88
  12   6   1   63.68    3.48
 -12  -6  -1   59.04    3.96
 -12  -6  -1   73.73    5.65
  12   6   2 1163.29   63.48
  12   6   2  982.83   49.91
 -12  -6  -2 1076.42   56.13
 -12  -6  -2 1072.30   61.70
  12   6   3  107.26    5.58
  12   6   3   63.07    3.49
 -12  -6  -3   72.68    3.80
 -12  -6  -3   91.05    5.93
  12   6   4  355.74   19.48
  12   6   4  273.56   11.07
 -12  -6  -4  321.26   15.28
  12   6   5  297.93   15.35
  12   6   5  286.10   15.80
 -12  -6  -5  271.14   14.18
  12   6   6  133.41    7.84
  12   6   6  114.88    7.71
 -12  -6  -6  108.87    5.88
  12   6   7   70.99    6.55
  12   6   7   81.92    5.55
 -12  -6  -7   60.75    4.10
  12   6   8   56.67    4.79
  12   6   8   61.15    4.95
 -12  -6  -8   52.88    4.89
  12   6   9  134.90    8.88
 -12  -6  -9  125.80    7.34
  12   6  10   24.98    3.63
 -12  -6 -10   29.31    2.98
  12   6  11   75.31    8.12
  12   6  11   59.39    6.13
 -12  -6 -11   70.83    6.51
  12   6  12   69.94    6.95
 -12  -6 -12   86.03    6.03
  12   6  13   16.78    3.97
 -12  -6 -13   11.56    3.53
  12   7  -9  238.01   17.95
  12   7  -9  241.54   20.49
 -12  -7   9  270.16   19.53
  12   7  -8   17.83    3.29
  12   7  -8   12.68    3.68
 -12  -7   8   11.40    3.24
  12   7  -7    2.35    1.80
  12   7  -7    1.86    2.03
  12   7  -6  330.12   18.17
  12   7  -6  330.52   21.31
  12   7  -5  220.30   14.30
  12   7  -5  205.78   13.61
  12   7  -4  192.21   12.67
  12   7  -4  178.14   11.53
  12   7  -3   10.04    2.63
  12   7  -3   10.62    2.16
  12   7  -2  101.17    6.35
  12   7  -2   86.52    6.22
 -12  -7   2  118.69    6.66
  12   7  -1    5.01    1.76
  12   7  -1    2.31    1.27
 -12  -7   1    2.71    1.82
  12   7   0  190.38   10.29
  12   7   0  163.22    7.91
 -12  -7   0  177.36    7.80
 -12  -7   0  192.43   10.07
  12   7   1   17.66    2.26
  12   7   1   14.04    1.78
 -12  -7  -1   15.81    1.66
 -12  -7  -1   15.38    2.85
  12   7   2 1274.10   70.81
  12   7   2 1086.54   53.98
 -12  -7  -2 1126.96   58.40
 -12  -7  -2 1212.83   68.02
  12   7   3   24.32    2.63
  12   7   3   17.16    1.39
 -12  -7  -3   22.63    2.12
 -12  -7  -3   17.86    2.98
  12   7   4   34.28    3.95
  12   7   4   23.27    1.44
 -12  -7  -4   31.09    2.62
 -12  -7  -4   35.86    3.56
  12   7   5   92.55    7.85
  12   7   5   92.64    6.78
 -12  -7  -5   98.38    5.40
  12   7   6   26.71    2.90
  12   7   6   24.13    3.28
 -12  -7  -6   21.37    2.69
  12   7   7   19.86    3.77
  12   7   7   24.07    2.55
 -12  -7  -7   21.09    2.79
  12   7   8    9.49    1.85
 -12  -7  -8    9.09    2.06
  12   7   9  340.14   20.15
 -12  -7  -9  308.31   18.05
  12   7  10  348.36   23.25
  12   7  10  316.70   20.17
 -12  -7 -10  315.13   19.81
  12   7  11   14.45    3.65
  12   7  11   35.94    4.03
 -12  -7 -11   26.85    2.98
  12   7  12    1.92    2.15
  12   7  12    1.26    1.74
 -12  -7 -12    1.87    1.84
  12   7  13  233.91   15.54
  12   7  13  177.38   11.45
 -12  -7 -13  223.88   13.53
  12   8  -8    1.97    1.82
  12   8  -8   -0.20    1.93
 -12  -8   8    0.71    1.71
  12   8  -7  250.57   18.08
  12   8  -7  251.12   16.21
 -12  -8   7  284.32   18.79
  12   8  -6  174.58   12.01
  12   8  -6  129.96   11.77
 -12  -8   6  169.22   14.26
  12   8  -5   36.18    3.84
  12   8  -5   36.71    4.68
 -12  -8   5   44.36    5.73
  12   8  -4  143.69   10.69
  12   8  -4  129.65    9.13
  12   8  -3   97.74    7.88
  12   8  -3   79.91    6.36
  12   8  -2   59.44    5.45
  12   8  -2   42.60    3.98
  12   8  -1   70.11    5.58
  12   8  -1   83.12    4.92
  12   8   0  147.00   10.18
  12   8   0  127.60    6.99
 -12  -8   0  151.46    8.74
  12   8   1  104.07    7.79
  12   8   1   84.96    4.94
 -12  -8  -1  110.14    7.72
  12   8   2   25.88    3.22
  12   8   2   15.00    1.41
 -12  -8  -2   15.33    1.46
 -12  -8  -2   20.97    3.08
  12   8   3  574.64   32.15
  12   8   3  454.30   18.21
 -12  -8  -3  518.90   22.96
 -12  -8  -3  551.10   31.02
  12   8   4  378.05   21.37
  12   8   4  276.57   10.39
 -12  -8  -4  338.45   15.52
 -12  -8  -4  362.01   20.41
  12   8   5  343.20   18.35
  12   8   5  336.19   19.75
 -12  -8  -5  295.56   15.09
  12   8   6   14.77    2.82
  12   8   6    8.06    2.54
 -12  -8  -6   10.65    1.83
  12   8   7   93.68    7.09
 -12  -8  -7   81.44    4.50
  12   8   8   14.17    2.89
 -12  -8  -8   13.68    2.36
  12   8   9   23.54    3.74
 -12  -8  -9   22.17    3.07
  12   8  10   31.19    4.84
  12   8  10   37.59    3.46
 -12  -8 -10   27.86    3.08
  12   8  11   25.67    4.18
  12   8  11   19.69    3.58
 -12  -8 -11   18.62    2.66
  12   8  12  116.16    8.35
  12   8  12   91.49    6.99
 -12  -8 -12  110.73    9.11
  12   8  13   32.46    5.80
  12   8  13   28.48    4.97
 -12  -8 -13   42.13    5.29
  12   9  -7   10.27    3.30
  12   9  -7    8.22    2.48
 -12  -9   7   13.17    4.02
  12   9  -6   23.76    4.01
  12   9  -6   12.76    2.80
 -12  -9   6   22.43    3.65
  12   9  -5    2.72    2.10
  12   9  -5    1.86    1.85
 -12  -9   5    4.03    1.87
  12   9  -4  333.03   22.10
  12   9  -4  308.86   16.16
 -12  -9   4  345.64   20.68
  12   9  -3  311.14   17.60
  12   9  -3  270.79   15.93
 -12  -9   3  319.28   19.09
  12   9  -2   17.09    2.58
  12   9  -2   14.53    2.31
 -12  -9   2   15.27    3.56
  12   9  -1    6.92    2.57
  12   9  -1    8.00    1.66
  12   9   0    7.01    2.47
  12   9   0    7.09    1.44
  12   9   1  234.92   14.71
  12   9   1  199.57    8.57
  12   9   2   59.88    4.17
  12   9   2   38.40    2.66
  12   9   3    6.51    1.72
  12   9   3    4.47    0.79
 -12  -9  -3    7.17    1.67
 -12  -9  -3    5.93    1.09
  12   9   4   19.32    2.50
 -12  -9  -4   14.10    1.77
 -12  -9  -4   17.55    2.44
  12   9   5   46.54    4.92
  12   9   5   41.23    3.52
 -12  -9  -5   34.78    2.92
  12   9   6  385.83   20.55
  12   9   6  370.53   22.93
 -12  -9  -6  342.23   17.31
  12   9   7  190.87   11.06
 -12  -9  -7  173.22    9.62
  12   9   8    6.75    1.75
 -12  -9  -8    6.49    1.71
  12   9   9   97.98    8.85
  12   9   9  100.27    8.27
 -12  -9  -9   84.69    6.42
  12   9  10   22.47    4.00
  12   9  10   20.27    2.80
 -12  -9 -10   16.72    3.12
  12   9  11    2.50    1.59
  12   9  11    2.36    1.91
 -12  -9 -11    1.67    1.68
  12   9  12    1.57    2.50
  12   9  12    3.89    2.36
 -12  -9 -12    5.45    2.11
  12   9  13   36.58    6.03
  12   9  13   30.03    5.36
 -12  -9 -13   40.51    5.37
  12  10  -6   11.51    2.64
  12  10  -6   10.68    2.35
 -12 -10   6   10.03    3.14
  12  10  -5    9.93    2.45
  12  10  -5    6.72    2.02
 -12 -10   5   11.45    3.56
  12  10  -4  327.44   22.77
  12  10  -4  295.95   19.03
 -12 -10   4  335.48   24.88
  12  10  -3  112.50    7.96
  12  10  -3   93.60    7.07
 -12 -10   3  116.62   10.53
  12  10  -2    3.30    2.39
  12  10  -2    4.79    1.63
 -12 -10   2    6.75    2.53
  12  10  -1  166.74   11.76
  12  10  -1  134.77    7.20
 -12 -10   1  155.71   12.44
  12  10   0  175.13   10.48
  12  10   0  151.62    7.41
 -12 -10   0  178.22   10.94
  12  10   1  143.89   10.48
  12  10   1  118.65    5.69
  12  10   2   71.94    4.79
  12  10   2   45.89    2.56
  12  10   3   14.05    2.43
  12  10   4  336.44   18.68
  12  10   5   33.19    3.49
 -12 -10  -5   26.41    2.33
  12  10   6   15.75    3.20
 -12 -10  -6   13.86    1.88
  12  10   7    5.46    2.35
 -12 -10  -7    5.61    1.45
  12  10   8   94.14    8.42
  12  10   8   85.78    6.40
 -12 -10  -8   87.98    5.68
  12  10   9  183.72   11.68
  12  10   9  181.95   11.86
 -12 -10  -9  171.02   10.81
  12  10  10  278.28   16.86
  12  10  10  272.03   16.71
 -12 -10 -10  269.92   16.30
  12  10  11   32.26    5.06
  12  10  11   38.64    5.09
 -12 -10 -11   30.69    3.48
  12  10  12   57.41    7.20
  12  10  12   64.34    7.02
 -12 -10 -12   56.51    4.82
  12  10  13    9.26    3.56
  12  10  13   10.94    3.49
 -12 -10 -13   12.41    2.43
  12  11  -5   31.80    5.68
  12  11  -5   23.83    4.38
 -12 -11   5   37.02    4.97
  12  11  -4    8.15    3.04
  12  11  -4    5.66    2.34
 -12 -11   4    6.79    3.24
  12  11  -3   28.17    3.69
  12  11  -3   18.55    3.34
 -12 -11   3   25.83    4.97
  12  11  -2   56.39    6.53
  12  11  -2   43.82    4.14
 -12 -11   2   54.05    5.30
  12  11  -1   69.44    6.71
  12  11  -1   43.08    4.15
 -12 -11   1   67.07    6.91
  12  11   0   13.02    3.04
  12  11   0    7.67    1.70
 -12 -11   0   12.03    2.34
  12  11   1  348.06   19.30
  12  11   1  271.48   12.36
 -12 -11  -1  339.85   19.34
  12  11   2   65.79    7.38
 -12 -11  -2   76.13    5.98
  12  11   3  179.69   13.58
 -12 -11  -3  173.17   11.31
  12  11   4  506.50   28.72
  12  11   6   26.51    3.32
  12  11   7   19.79    2.91
 -12 -11  -7   17.42    2.17
  12  11   8   66.51    7.02
  12  11   8   64.51    5.32
 -12 -11  -8   54.76    4.42
  12  11   9   62.49    5.29
  12  11   9   67.00    5.48
 -12 -11  -9   53.41    3.91
  12  11  10  119.30   10.44
  12  11  10  108.59    9.23
 -12 -11 -10  121.87    8.68
  12  11  11   69.90    7.46
  12  11  11   69.94    5.98
 -12 -11 -11   60.85    4.82
  12  11  12   15.90    4.06
  12  11  12   13.37    4.06
 -12 -11 -12   18.67    3.28
  12  11  13  102.35    8.17
  12  11  13  111.02   10.80
 -12 -11 -13   91.83    9.08
  12  12  -3  259.63   20.91
  12  12  -3  200.38   14.45
 -12 -12   3  258.35   21.28
  12  12  -2  267.15   17.79
  12  12  -2  215.63   14.12
 -12 -12   2  282.93   21.90
  12  12  -1  196.66   12.86
  12  12  -1  153.24    9.75
 -12 -12   1  186.74   15.50
  12  12   0   63.76    6.05
 -12 -12   0   63.49    6.05
  12  12   1    4.41    1.92
 -12 -12  -1    4.51    2.53
  12  12   2   44.55    6.01
 -12 -12  -2   42.98    5.85
  12  12   3  104.76    7.94
 -12 -12  -3  113.17    9.50
  12  12   4   13.33    3.80
 -12 -12  -4   19.74    2.89
  12  12   6  209.90   13.70
  12  12   7  370.89   23.11
  12  12   7  374.31   26.95
  12  12   8   82.91    7.45
  12  12   8   55.02    5.74
  12  12   9  214.46   13.49
  12  12   9  208.71   13.86
 -12 -12  -9  191.04    9.91
  12  12  10    5.83    2.57
  12  12  10    6.42    2.07
 -12 -12 -10    3.74    1.83
  12  12  11    6.38    2.78
  12  12  11    7.15    3.06
 -12 -12 -11    6.30    2.17
  12  12  12   63.08    7.81
  12  12  12   65.57    7.92
 -12 -12 -12   60.33    6.16
  12  12  13  219.05   18.43
  12  12  13  240.08   20.89
 -12 -12 -13  225.76   17.15
  12  13  -2  101.10    9.59
 -12 -13   2  106.74    9.58
  12  13  -1   15.03    4.32
 -12 -13   1   13.72    3.29
  12  13   0  375.50   28.38
 -12 -13   0  359.58   24.83
  12  13   1    4.88    2.97
 -12 -13  -1    6.38    2.96
  12  13   2   33.07    5.43
 -12 -13  -2   34.25    5.69
  12  13   3  269.13   17.48
 -12 -13  -3  263.53   20.32
 -12 -13  -4   24.34    4.70
  12  13   6  178.71   14.60
  12  13   6  163.12   11.84
  12  13   7  158.63   14.00
  12  13   7  180.64   15.23
  12  13   8  359.38   22.66
  12  13   8  358.49   23.67
  12  13   9    1.32    2.19
  12  13   9    3.08    2.23
  12  13  10   43.20    5.93
  12  13  10   75.00    6.14
  12  13  11    4.53    2.41
  12  13  11    3.20    2.62
 -12 -13 -11    2.84    1.81
  12  13  12    5.54    2.78
  12  13  12    3.85    3.01
 -12 -13 -12    5.19    2.24
  12  13  13   39.46    6.06
  12  13  13   38.61    5.41
 -12 -13 -13   35.36    5.15
  12  14   0    7.34    2.54
 -12 -14   0    5.18    3.37
  12  14   1  151.58   11.95
 -12 -14  -1  146.88   12.12
  12  14   2   11.34    3.07
 -12 -14  -2   15.66    3.91
 -12 -14  -3    4.36    2.11
 -12 -14  -4    4.76    2.13
  12  14   5   29.83    2.98
  12  14   6   45.23    6.13
  12  14   6   31.77    4.62
  12  14   7   53.65    7.64
  12  14   7   64.87    7.79
  12  14   8   25.73    5.02
  12  14   8   25.52    5.26
  12  14   9   43.80    5.01
  12  14   9   45.19    5.26
  12  14  10   48.96    7.14
  12  14  10   54.94    7.62
  12  14  11   61.89    6.13
  12  14  11   69.11    7.25
  12  14  12   15.16    3.01
  12  14  12   10.38    4.52
  12  15   2    3.68    3.15
 -12 -15  -2    6.02    3.11
 -12 -15  -3   39.38    7.02
 -12 -15  -4  271.60   20.17
  12  15   5  126.52   13.44
  12  15   6    3.23    2.67
  12  15   7  146.45   14.41
  12  15   7  136.33   14.78
  12  15   8   29.75    5.74
  12  15   8   31.25    4.90
  12  15   9    7.52    3.65
  12  15   9   11.66    2.85
  12  15  10  101.18   10.92
  12  15  10  107.07   11.78
 -13   6   7    8.49    3.73
  13  -6  -6    1.04    2.25
 -13   6   6    6.13    2.18
  13  -6  -5   36.78    7.80
 -13   6   5  120.37    9.95
 -13   6   4   74.69    8.39
 -13   6   4   79.94    7.88
 -13   6   3   17.68    5.12
 -13   6   3   23.16    3.82
 -13   6   2    4.05    2.88
 -13   5   9    8.05    2.95
 -13   5   8   12.87    4.39
  13  -5  -7   14.81    4.61
 -13   5   7   15.07    3.48
  13  -5  -6    2.64    2.56
 -13   5   6    2.27    2.52
  13  -5  -5    1.67    2.45
 -13   5   5    2.59    2.36
  13  -5  -4   21.77    4.93
 -13   5   4   21.74    4.64
 -13   5   3   -0.41    1.66
 -13   5   3    2.46    1.55
 -13   5   2   29.76    6.51
 -13   5   2   48.56    5.24
 -13   5   1  103.07   13.44
 -13   5   1  149.54   10.73
  13  -5   0    3.57    1.98
 -13   5   0    2.16    1.80
  13  -5   1   11.50    2.46
 -13   5  -1   11.79    3.48
 -13   4   9   11.42    3.95
  13  -4  -8  215.68   20.53
 -13   4   8  221.17   18.90
  13  -4  -7   83.95    8.67
 -13   4   7  123.84   11.00
  13  -4  -6    2.08    1.88
 -13   4   6    2.91    2.29
  13  -4  -5   15.76    4.14
 -13   4   5   42.65    5.24
  13  -4  -4  329.64   21.66
 -13   4   4  340.67   21.09
  13  -4  -3    5.84    3.00
 -13   4   3    8.80    3.03
 -13   4   2  100.15   11.67
 -13   4   2  128.61   11.05
  13  -4  -1   79.90    7.20
 -13   4   1   76.12    7.81
 -13   4   1  124.18    9.28
  13  -4   0   33.91    4.35
 -13   4   0   14.83    3.93
 -13   4   0   50.13    5.39
  13  -4   1    2.21    1.86
 -13   4  -1    1.72    1.54
  13  -4   2    5.01    1.94
 -13   4  -2    5.41    1.91
  13  -4   3    3.68    1.99
 -13   4  -3    4.76    1.80
 -13   3  10   87.62    9.35
 -13   3  10   63.29    6.95
  13  -3  -9   24.90    5.47
 -13   3   9   29.97    4.89
 -13   3   9   18.06    3.34
  13  -3  -8   30.61    4.65
 -13   3   8   43.37    5.64
 -13   3   8   24.93    3.58
  13  -3  -7  169.55   13.56
 -13   3   7  174.24   12.79
 -13   3   7  105.73    7.16
  13  -3  -6    9.87    3.20
 -13   3   6    9.08    2.95
 -13   3   6    6.71    1.66
  13  -3  -5    8.59    2.78
 -13   3   5    3.67    1.99
  13  -3  -4   13.80    3.75
 -13   3   4   15.35    3.51
  13  -3  -3   51.25    5.21
 -13   3   3   63.66    6.85
  13  -3  -2   38.10    4.27
  13  -3  -2   33.61    4.39
 -13   3   2   50.24    4.49
  13  -3  -1   12.23    2.18
 -13   3   1   12.32    3.64
 -13   3   1   20.18    2.69
  13  -3   0  246.26   17.07
 -13   3   0  272.07   17.15
 -13   3   0  316.25   17.69
  13  -3   1  155.41   11.96
 -13   3  -1  178.39   10.64
 -13   3  -1  138.65    9.37
  13  -3   2    9.91    2.75
 -13   3  -2   12.35    2.95
 -13   3  -2    4.91    2.60
  13  -3   3   25.13    4.55
 -13   3  -3   21.83    4.02
  13  -3   4   36.65    5.66
 -13   3  -4   29.56    4.67
  13  -2 -10   -0.63    1.96
 -13   2  10    2.14    2.09
 -13   2  10    2.18    1.70
  13  -2  -9   15.36    3.25
 -13   2   9   13.87    3.51
 -13   2   9    8.49    2.13
  13  -2  -8    5.74    2.92
 -13   2   8    3.14    2.54
 -13   2   8    3.94    1.79
  13  -2  -7   39.78    4.93
 -13   2   7   50.16    5.91
 -13   2   7   36.09    4.08
  13  -2  -6   70.78    7.14
 -13   2   6   53.89    6.25
 -13   2   6   45.30    4.40
  13  -2  -5   47.11    5.95
 -13   2   5   25.55    4.14
 -13   2   5   43.32    3.36
  13  -2  -4   13.04    2.42
 -13   2   4   11.85    3.07
 -13   2   4    8.21    1.44
  13  -2  -3   46.62    4.50
  13  -2  -3   47.52    6.14
 -13   2   3   66.35    4.95
 -13   2   3   41.97    2.86
  13  -2  -2   32.22    3.73
  13  -2  -2   33.26    4.69
 -13   2   2   32.78    3.77
  13  -2  -1   14.01    2.83
 -13   2   1   17.69    2.67
  13  -2   0  101.48    8.03
 -13   2   0   99.43    8.95
 -13   2   0  115.94    7.38
  13  -2   1  127.79    9.68
 -13   2  -1  132.06    8.68
 -13   2  -1  130.58    8.91
  13  -2   2    4.26    2.57
 -13   2  -2   10.35    2.10
 -13   2  -2    7.56    2.48
  13  -2   3   11.59    2.46
 -13   2  -3   15.95    3.15
 -13   2  -3   10.52    2.14
  13  -2   4   68.05    5.92
 -13   2  -4   49.50    6.18
 -13   2  -4   79.48    7.22
  13  -2   5  131.09   11.04
 -13   2  -5   98.55    6.69
  13  -2   6   26.39    5.45
  13  -1 -10  280.97   21.03
 -13   1  10  273.72   20.11
 -13   1  10  246.56   18.83
  13  -1  -9   26.93    5.79
 -13   1   9   29.48    3.65
 -13   1   9   21.81    4.14
  13  -1  -8   27.02    4.04
 -13   1   8   21.48    4.40
  13  -1  -7    2.05    1.92
 -13   1   7    1.29    1.65
 -13   1   7    0.14    0.95
  13  -1  -6    3.77    1.73
 -13   1   6    1.82    1.48
 -13   1   6    2.59    1.45
  13  -1  -5  112.45    8.34
 -13   1   5  126.97    9.64
 -13   1   5  104.63    6.96
  13  -1  -4  417.11   26.62
 -13   1   4  429.88   25.55
 -13   1   4  334.10   18.19
  13  -1  -3  169.15   10.67
  13  -1  -3  195.99   11.30
 -13   1   3  209.61   13.22
 -13   1   3  140.97    8.28
  13  -1  -2   20.18    2.96
  13  -1  -2   15.84    2.68
 -13   1   2   25.08    2.74
 -13   1   2   17.35    2.02
  13  -1  -1   22.13    3.18
  13  -1  -1   22.61    2.66
 -13   1   1   25.56    2.81
 -13   1   1   15.89    1.91
  13  -1   0   -1.04    1.30
 -13   1   0    1.76    1.11
 -13   1   0    0.39    1.07
  13  -1   1   24.98    3.77
 -13   1  -1   27.42    3.06
 -13   1  -1   17.45    3.00
  13  -1   2  121.61    8.45
 -13   1  -2  131.48    9.39
 -13   1  -2  141.57    8.66
  13  -1   3   29.65    4.43
 -13   1  -3   22.50    3.74
 -13   1  -3   30.98    4.11
  13  -1   4   38.79    5.12
 -13   1  -4   28.79    4.22
 -13   1  -4   37.58    4.73
  13  -1   5    5.78    2.01
 -13   1  -5    4.00    1.46
 -13   1  -5    7.54    1.88
  13  -1   6   27.81    5.31
  13  -1   7    7.89    3.46
  13   0 -10   25.79    5.67
 -13   0  10   16.24    4.14
 -13   0  10   26.66    4.34
  13   0  -9    5.78    3.05
 -13   0   9    4.21    2.30
 -13   0   9    3.83    2.34
  13   0  -8   59.77    7.23
 -13   0   8   46.15    5.72
 -13   0   8   41.10    5.54
  13   0  -7   13.26    2.85
 -13   0   7   12.30    3.03
 -13   0   7   13.51    2.77
  13   0  -6   43.53    6.40
 -13   0   6   46.83    5.32
 -13   0   6   52.14    4.85
  13   0  -5    0.66    1.54
 -13   0   5   -0.09    1.39
 -13   0   5    0.66    1.11
  13   0  -4   28.89    3.52
  13   0  -4   32.03    4.77
 -13   0   4   34.00    4.37
 -13   0   4   38.63    3.35
  13   0  -3   34.42    3.59
  13   0  -3   43.06    4.69
 -13   0   3   32.10    3.45
 -13   0   3   29.29    2.68
  13   0  -2  217.74   11.22
  13   0  -2  224.42   14.35
 -13   0   2  240.81   14.42
 -13   0   2  193.97   10.54
  13   0  -1    1.36    1.50
  13   0  -1    2.76    1.52
 -13   0   1    1.28    0.99
 -13   0   1    2.60    1.64
  13   0   0    8.64    2.07
  13   0   0    4.68    1.58
 -13   0   0    7.59    2.22
 -13   0   0    6.22    1.32
  13   0   1    3.60    1.45
 -13   0  -1    3.48    1.88
 -13   0  -1    4.19    1.76
  13   0   2  100.51    8.23
 -13   0  -2   86.57    7.05
 -13   0  -2   88.35    7.77
  13   0   3   16.03    3.27
 -13   0  -3   12.40    2.48
 -13   0  -3   13.94    2.96
  13   0   4   39.52    5.12
 -13   0  -4   21.48    3.60
 -13   0  -4   40.97    3.44
  13   0   5  173.61   14.00
 -13   0  -5  173.93   10.58
  13   0   6    5.71    1.95
 -13   0  -6    2.97    1.67
  13   0   7    2.63    2.52
 -13   0  -7    4.83    2.21
  13   0   8   40.89    6.63
  13   1 -10    6.87    3.66
 -13  -1  10    6.53    3.09
  13   1  -9    4.32    2.96
 -13  -1   9    3.98    2.18
 -13  -1   9    5.63    2.49
  13   1  -8  121.92    9.02
 -13  -1   8   90.36    8.65
 -13  -1   8   96.79    9.24
  13   1  -7   66.46    8.27
 -13  -1   7   65.22    6.18
 -13  -1   7   74.52    6.70
  13   1  -6    9.62    2.64
 -13  -1   6   14.54    2.69
 -13  -1   6   10.59    2.57
  13   1  -5  125.98    8.21
  13   1  -5  140.07   11.27
 -13  -1   5  146.11    9.49
 -13  -1   5  137.24    7.98
  13   1  -4    3.78    1.47
  13   1  -4    3.93    1.48
 -13  -1   4    1.00    1.67
 -13  -1   4    1.90    1.48
  13   1  -3   12.12    2.38
  13   1  -3    9.60    2.89
 -13  -1   3   10.80    2.67
 -13  -1   3   14.88    2.20
  13   1  -2   66.23    5.39
  13   1  -2   75.87    6.19
 -13  -1   2   71.98    5.89
 -13  -1   2   57.35    4.75
  13   1  -1   46.53    3.33
  13   1  -1   41.31    3.47
 -13  -1   1   36.91    3.29
 -13  -1   1   38.98    4.46
  13   1   0  199.24   12.63
  13   1   0  197.25   11.93
 -13  -1   0  163.63    9.44
 -13  -1   0  212.73   10.71
  13   1   1   49.63    5.11
  13   1   1   87.63    5.65
 -13  -1  -1   91.64    5.06
 -13  -1  -1   61.44    3.99
  13   1   2  290.53   18.44
 -13  -1  -2  268.01   16.16
 -13  -1  -2  276.58   14.37
  13   1   3   11.47    2.22
 -13  -1  -3   10.09    2.07
 -13  -1  -3    8.32    2.51
  13   1   4   39.27    5.27
 -13  -1  -4   36.22    4.52
  13   1   5  127.63   10.89
 -13  -1  -5  120.94    9.25
  13   1   6  358.04   22.04
 -13  -1  -6  342.11   22.08
  13   1   7   17.20    3.88
 -13  -1  -7   13.95    3.35
  13   1   8   25.85    5.24
 -13  -1  -8   27.60    4.51
  13   1   9    8.50    2.81
 -13  -1  -9   10.05    2.45
  13   2 -10   12.49    4.28
 -13  -2  10   10.57    2.94
  13   2  -9   26.43    4.40
 -13  -2   9   26.25    4.96
  13   2  -8   75.94    7.00
 -13  -2   8   78.45    8.19
  13   2  -7   10.05    2.69
 -13  -2   7   11.09    2.47
 -13  -2   7   13.44    2.99
  13   2  -6   24.77    4.47
 -13  -2   6   23.03    3.30
 -13  -2   6   23.97    3.68
  13   2  -5   42.82    4.41
  13   2  -5   53.87    5.77
 -13  -2   5   48.83    3.62
 -13  -2   5   43.55    4.95
  13   2  -4    3.34    1.62
  13   2  -4    3.77    1.99
 -13  -2   4    1.83    1.66
 -13  -2   4    4.98    1.71
  13   2  -3    7.80    1.56
  13   2  -3    7.83    1.79
 -13  -2   3    8.10    1.57
 -13  -2   3    7.17    1.99
  13   2  -2  208.13   12.49
  13   2  -2  194.24   10.68
 -13  -2   2  215.53   12.61
 -13  -2   2  207.65   11.70
  13   2  -1   71.26    4.61
  13   2  -1   76.71    5.76
 -13  -2   1   63.03    4.93
 -13  -2   1   67.08    5.82
  13   2   0    4.69    1.91
 -13  -2   0    5.28    1.77
 -13  -2   0    4.20    1.47
  13   2   1    1.56    1.32
  13   2   1    3.21    1.34
 -13  -2  -1    1.80    1.15
 -13  -2  -1    3.18    1.20
  13   2   2   65.37    4.88
 -13  -2  -2   68.79    4.38
 -13  -2  -2   53.65    3.73
  13   2   3   43.04    4.78
 -13  -2  -3   27.86    3.27
 -13  -2  -3   39.72    3.22
  13   2   4    8.76    2.86
 -13  -2  -4   10.15    1.84
  13   2   5   14.21    2.72
 -13  -2  -5   16.46    2.26
  13   2   6   31.64    3.76
 -13  -2  -6   30.06    3.19
  13   2   7   40.49    5.84
 -13  -2  -7   37.31    4.96
  13   2   8   24.43    4.86
 -13  -2  -8   24.89    4.18
  13   2   9   21.87    4.71
 -13  -2  -9   21.35    4.17
  13   3 -10   26.86    4.67
 -13  -3  10   23.18    4.25
  13   3  -9  218.07   16.13
 -13  -3   9  220.59   18.73
  13   3  -8   59.42    8.16
 -13  -3   8   67.80    5.86
  13   3  -7   10.31    3.07
 -13  -3   7    6.18    2.12
  13   3  -6   43.39    4.54
  13   3  -6   49.07    4.62
 -13  -3   6   42.36    4.25
 -13  -3   6   52.23    5.58
  13   3  -5   30.23    3.75
  13   3  -5   33.16    4.84
 -13  -3   5   31.60    3.52
 -13  -3   5   35.66    4.29
  13   3  -4   26.65    2.67
  13   3  -4   25.04    4.03
 -13  -3   4   26.03    3.14
 -13  -3   4   25.91    3.62
  13   3  -3   21.31    2.86
  13   3  -3   18.74    3.31
 -13  -3   3   20.49    2.84
 -13  -3   3   17.37    3.06
  13   3  -2   58.94    5.40
  13   3  -2   62.63    5.24
 -13  -3   2   60.75    4.90
 -13  -3   2   49.34    5.12
  13   3  -1   35.45    3.13
  13   3  -1   35.11    3.82
 -13  -3   1   31.29    3.62
 -13  -3   1   38.82    2.89
  13   3   0  130.40    8.62
  13   3   0  107.19    7.13
 -13  -3   0  119.90    7.62
 -13  -3   0  110.80    7.29
  13   3   1   51.15    4.86
  13   3   1   39.93    3.73
 -13  -3  -1   44.43    4.24
 -13  -3  -1   39.51    3.81
  13   3   2   91.73    6.56
  13   3   2   56.63    4.88
 -13  -3  -2   68.24    5.59
 -13  -3  -2   65.10    5.02
  13   3   3   20.87    2.61
  13   3   3   16.51    2.39
 -13  -3  -3   19.53    2.90
  13   3   4   27.08    3.50
 -13  -3  -4   36.00    3.82
  13   3   5   18.20    3.91
 -13  -3  -5   21.98    2.44
  13   3   6    9.54    2.75
 -13  -3  -6    6.26    1.69
  13   3   7   64.86    6.57
 -13  -3  -7   43.62    4.14
  13   3   8   41.41    5.80
 -13  -3  -8   34.83    3.76
  13   3   9   53.73    7.59
 -13  -3  -9   61.55    5.19
  13   3  10   11.87    4.01
 -13  -3 -10   11.93    2.56
  13   4  -9    2.71    2.89
 -13  -4   9    4.33    2.15
  13   4  -8   21.55    4.58
 -13  -4   8   17.70    4.43
  13   4  -7    4.30    2.35
 -13  -4   7    2.54    2.35
  13   4  -6   16.08    2.99
  13   4  -6   18.50    3.76
 -13  -4   6   17.39    3.72
  13   4  -5    9.44    2.45
  13   4  -5    8.64    2.83
 -13  -4   5   10.26    2.89
  13   4  -4  376.72   21.88
  13   4  -4  396.10   23.99
 -13  -4   4  374.35   19.01
 -13  -4   4  378.44   21.33
  13   4  -3    1.10    1.68
  13   4  -3    2.13    1.68
 -13  -4   3    2.37    1.31
 -13  -4   3    4.81    1.69
  13   4  -2   70.85    5.80
 -13  -4   2   64.34    4.72
 -13  -4   2   74.98    4.83
  13   4  -1  110.62    7.66
  13   4  -1   86.06    6.62
 -13  -4   1   92.34    5.96
 -13  -4   1  102.17    5.68
  13   4   0   26.41    2.62
  13   4   0   22.15    2.76
 -13  -4   0   23.11    2.69
 -13  -4   0   18.33    3.03
  13   4   1   91.64    5.46
  13   4   1   55.74    4.57
 -13  -4  -1   83.74    5.38
 -13  -4  -1   80.35    4.54
  13   4   2   15.87    2.96
  13   4   2   13.58    1.95
 -13  -4  -2   13.76    1.80
 -13  -4  -2   13.29    2.38
  13   4   3   64.63    5.71
  13   4   3   49.99    3.29
 -13  -4  -3   49.99    3.53
  13   4   4    6.25    2.22
  13   4   4    3.94    1.69
 -13  -4  -4    4.61    1.75
  13   4   5  205.59   13.89
  13   4   5  178.61   10.63
 -13  -4  -5  166.85   10.83
  13   4   6   54.30    5.90
 -13  -4  -6   44.33    4.87
  13   4   7   12.85    3.05
 -13  -4  -7    5.84    2.36
  13   4   8   91.29    7.59
 -13  -4  -8   43.40    4.63
  13   4   9   26.88    5.35
 -13  -4  -9   31.01    3.44
  13   4  10   65.80    8.44
 -13  -4 -10   64.85    7.04
 -13  -4 -11   67.53    7.73
  13   5  -9    8.79    3.91
 -13  -5   9   10.52    3.03
  13   5  -8  100.42    8.51
 -13  -5   8  119.57   11.90
  13   5  -7  176.69   10.84
  13   5  -7  183.84   15.32
 -13  -5   7  184.29   15.76
  13   5  -6   47.39    5.27
  13   5  -6   41.16    6.01
 -13  -5   6   57.31    6.33
  13   5  -5    7.11    2.52
  13   5  -5    8.92    2.01
 -13  -5   5   10.55    2.90
  13   5  -4   41.96    4.65
  13   5  -4   36.15    4.68
 -13  -5   4   44.10    5.31
  13   5  -3  259.99   15.87
  13   5  -3  250.20   12.97
 -13  -5   3  264.55   17.05
 -13  -5   3  239.49   11.99
  13   5  -2    9.17    2.57
  13   5  -2   10.57    2.32
 -13  -5   2   10.19    1.74
 -13  -5   2   10.46    2.56
  13   5  -1  107.45    8.49
  13   5  -1   96.76    5.70
 -13  -5   1  108.35    6.30
 -13  -5   1  120.01    8.19
  13   5   0   60.31    4.38
  13   5   0   48.96    4.11
 -13  -5   0   54.00    3.87
 -13  -5   0   50.82    4.93
  13   5   1   73.61    6.33
  13   5   1   65.16    4.52
 -13  -5  -1   66.35    4.73
 -13  -5  -1   67.63    5.52
  13   5   2  118.42    8.10
  13   5   2   83.93    5.21
 -13  -5  -2   95.86    6.22
 -13  -5  -2   92.00    5.74
  13   5   3   45.84    4.52
  13   5   3   26.87    2.21
 -13  -5  -3   32.10    2.57
 -13  -5  -3   35.77    3.64
  13   5   4  420.07   25.29
  13   5   4  381.05   18.62
 -13  -5  -4  357.12   19.54
  13   5   5  156.10   11.67
  13   5   5  143.35    8.00
 -13  -5  -5  141.06    9.42
  13   5   6  378.21   23.37
  13   5   6  326.68   18.39
 -13  -5  -6  294.29   15.56
  13   5   7  141.86   10.58
  13   5   7  120.91    8.18
 -13  -5  -7  109.72    8.62
  13   5   8  110.51    9.12
 -13  -5  -8   76.14    7.36
  13   5   9    3.95    1.83
 -13  -5  -9    1.86    1.41
 -13  -5 -10    4.48    1.76
 -13  -5 -11   17.42    3.84
  13   6  -8  178.74   16.07
 -13  -6   8  182.49   18.02
  13   6  -7  187.58   13.70
  13   6  -7  182.17   15.31
 -13  -6   7  195.50   14.34
  13   6  -6   47.43    4.06
  13   6  -6   31.97    5.56
 -13  -6   6   41.52    4.90
  13   6  -5    3.25    1.99
  13   6  -5    2.49    1.99
 -13  -6   5    3.11    1.78
  13   6  -4   14.28    2.94
  13   6  -4   10.05    2.82
 -13  -6   4   12.84    3.33
  13   6  -3   70.50    6.72
  13   6  -3   67.45    6.09
 -13  -6   3   81.41    7.26
  13   6  -2   17.68    2.55
  13   6  -2   18.64    2.19
 -13  -6   2   19.04    3.46
  13   6  -1  219.22   14.55
  13   6  -1  196.36   11.30
 -13  -6   1  193.33    9.70
 -13  -6   1  214.24   14.29
  13   6   0  457.88   24.02
  13   6   0  420.10   21.37
 -13  -6   0  431.54   20.69
 -13  -6   0  444.51   26.27
  13   6   1    1.47    1.69
  13   6   1    1.73    1.02
 -13  -6  -1    0.86    1.02
 -13  -6  -1    2.12    1.54
  13   6   2  199.97   13.00
  13   6   2  162.94    8.41
 -13  -6  -2  173.38    9.38
 -13  -6  -2  182.05   11.72
  13   6   3    7.05    2.26
  13   6   3    3.08    1.17
 -13  -6  -3    4.28    1.55
 -13  -6  -3    8.30    1.48
  13   6   4  421.79   25.25
  13   6   4  387.53   19.71
 -13  -6  -4  337.33   18.63
  13   6   5   15.54    3.52
  13   6   5   19.28    2.90
 -13  -6  -5   14.18    2.64
  13   6   6   26.09    4.46
  13   6   6   28.05    3.58
 -13  -6  -6   25.78    2.57
  13   6   7  107.81    9.94
  13   6   7  126.46    8.36
 -13  -6  -7  105.76    7.97
  13   6   8  164.47   10.50
  13   6   8  152.13   10.44
 -13  -6  -8  137.24    8.40
  13   6   9  121.98    9.07
 -13  -6  -9  122.66    9.22
  13   6  10    3.67    1.35
 -13  -6 -10    0.19    1.93
 -13  -6 -11   31.97    3.84
  13   7  -7   32.19    4.82
  13   7  -7   30.11    5.39
  13   7  -6   74.02    6.34
  13   7  -6   77.60    8.16
  13   7  -5   -0.62    1.68
  13   7  -5    1.22    1.57
 -13  -7   5    2.01    1.53
  13   7  -4    9.95    2.63
  13   7  -4    6.14    2.37
 -13  -7   4    6.64    2.20
  13   7  -3    3.53    2.03
  13   7  -3    2.79    1.64
 -13  -7   3    1.80    2.18
  13   7  -2    7.25    2.54
  13   7  -2    7.00    1.96
 -13  -7   2    8.78    2.63
  13   7  -1   75.46    7.66
  13   7  -1   94.33    5.70
 -13  -7   1   69.36    7.54
  13   7   0   81.75    5.67
  13   7   0   67.01    4.94
 -13  -7   0   80.61    5.65
  13   7   1   86.71    5.82
  13   7   1   63.63    4.28
 -13  -7  -1   68.34    4.28
 -13  -7  -1   80.08    6.94
  13   7   2  166.58   11.61
  13   7   2  124.81    6.13
 -13  -7  -2  141.07    7.53
 -13  -7  -2  162.58   10.79
  13   7   3  243.51   15.16
  13   7   3  180.10    8.19
 -13  -7  -3  188.22   10.05
 -13  -7  -3  216.55   11.64
  13   7   4  145.88   10.12
 -13  -7  -4  109.45    6.97
  13   7   5   66.32    6.52
  13   7   5   66.74    5.60
 -13  -7  -5   57.72    3.58
  13   7   6   75.57    6.00
  13   7   6   83.84    6.62
 -13  -7  -6   65.18    5.67
  13   7   7   80.69    6.68
  13   7   7   87.99    5.47
 -13  -7  -7   67.64    6.16
  13   7   8    7.68    2.47
  13   7   8    4.04    2.00
 -13  -7  -8    3.89    1.39
  13   7   9   18.16    3.45
 -13  -7  -9   20.29    3.34
  13   7  10   38.69    3.37
 -13  -7 -10   19.28    3.33
  13   7  11   22.32    4.87
  13   7  11   15.16    3.77
 -13  -7 -11   22.99    3.80
  13   7  12  117.45   12.55
 -13  -7 -12  119.01    8.56
  13   8  -6   75.14    7.62
  13   8  -6   54.58    7.12
  13   8  -5   28.43    4.02
  13   8  -5   13.94    2.79
  13   8  -4   80.16    7.87
  13   8  -4   79.28    6.84
  13   8  -3    3.26    2.21
  13   8  -3    4.06    1.80
  13   8  -2   14.26    3.46
  13   8  -2   17.22    2.62
 -13  -8   2   13.77    2.73
  13   8  -1   23.50    4.11
  13   8  -1   19.99    2.83
 -13  -8   1   25.98    3.27
  13   8   0   62.88    5.39
  13   8   0   54.84    4.38
 -13  -8   0   73.45    5.44
  13   8   1    2.62    1.76
  13   8   1    1.18    0.85
 -13  -8  -1    1.71    1.74
  13   8   2   57.18    4.77
  13   8   2   42.77    3.08
 -13  -8  -2   49.39    3.27
 -13  -8  -2   60.19    4.50
  13   8   3    4.66    1.54
 -13  -8  -3    2.41    1.10
 -13  -8  -3    0.33    1.41
  13   8   4  126.05    8.52
 -13  -8  -4  110.44    6.85
 -13  -8  -4  126.57    8.15
  13   8   5  366.68   20.70
  13   8   5  357.89   21.89
 -13  -8  -5  296.19   14.56
  13   8   6  257.54   15.10
  13   8   6  245.88   16.21
 -13  -8  -6  214.89   12.59
  13   8   7   29.31    4.52
  13   8   7   25.48    3.00
 -13  -8  -7   22.85    3.22
  13   8   8    7.36    2.30
 -13  -8  -8    4.76    1.90
  13   8   9  349.44   20.03
 -13  -8  -9  316.56   19.99
  13   8  10   63.41    7.06
  13   8  10   58.37    5.93
 -13  -8 -10   36.12    4.24
  13   8  11   11.07    2.93
  13   8  11    9.86    2.36
 -13  -8 -11   17.34    3.22
  13   8  12   42.58    6.56
  13   8  12   33.35    5.48
 -13  -8 -12   34.62    5.45
  13   9  -5   46.56    6.43
  13   9  -5   42.22    5.54
 -13  -9   5   44.27    5.81
  13   9  -4   32.17    4.03
  13   9  -4   29.04    4.23
  13   9  -3  174.88   13.50
  13   9  -3  139.36   10.24
  13   9  -2   -0.10    1.99
  13   9  -2    3.07    1.42
  13   9  -1  208.69   15.09
  13   9  -1  177.72   10.81
  13   9   0   19.48    3.05
  13   9   0   17.04    2.00
 -13  -9   0   22.06    3.83
  13   9   1    7.88    2.50
  13   9   1    4.14    1.17
 -13  -9  -1    8.72    2.56
  13   9   2    1.08    1.36
 -13  -9  -2    1.24    1.32
  13   9   3  467.46   30.22
 -13  -9  -3  430.42   28.99
  13   9   4  140.12   11.40
 -13  -9  -4  114.33    6.82
 -13  -9  -4  147.28   10.83
  13   9   5   92.53    8.00
  13   9   5   82.24    7.36
 -13  -9  -5   70.27    4.93
  13   9   6    6.81    2.20
  13   9   6    0.86    1.99
 -13  -9  -6    1.95    1.34
  13   9   7   76.86    7.63
  13   9   7  111.18    9.09
 -13  -9  -7   97.45    6.26
  13   9   8   26.37    4.49
 -13  -9  -8   28.20    3.37
  13   9   9   25.39    3.27
 -13  -9  -9   21.33    3.40
  13   9  10  246.02   16.12
  13   9  10  239.58   18.14
 -13  -9 -10  201.94   14.67
  13   9  11   37.42    6.34
  13   9  11   42.30    5.52
 -13  -9 -11   38.60    4.98
  13   9  12    9.35    2.85
  13   9  12   11.23    3.33
 -13  -9 -12   10.69    3.09
  13  10  -4  160.57   11.94
  13  10  -4  141.03   11.24
 -13 -10   4  152.14   12.19
  13  10  -3  191.40   14.48
  13  10  -3  133.77   10.59
 -13 -10   3  169.37   12.68
  13  10  -2   -0.08    1.58
  13  10  -2    1.82    1.37
 -13 -10   2    3.21    2.17
  13  10  -1   67.72    5.71
  13  10  -1   52.34    4.70
  13  10   0  121.14    7.44
  13  10   0   66.80    5.56
  13  10   1   19.86    4.09
  13  10   2  117.61    8.41
  13  10   3   55.76    6.84
 -13 -10  -3   61.70    6.86
  13  10   4  545.55   36.05
 -13 -10  -4  519.87   31.98
  13  10   5  305.39   21.69
  13  10   5  274.71   17.36
  13  10   6   83.73    7.35
  13  10   6   63.99    6.65
 -13 -10  -6   48.50    4.24
  13  10   7   25.40    4.42
 -13 -10  -7   22.50    2.89
  13  10   8   28.23    4.79
 -13 -10  -8   28.91    3.34
  13  10   9    0.85    2.06
  13  10   9    0.07    1.94
 -13 -10  -9    2.47    1.43
  13  10  10    1.46    1.63
  13  10  10    1.55    1.99
 -13 -10 -10    1.57    1.18
  13  10  11   45.86    6.45
  13  10  11   38.56    6.23
 -13 -10 -11   38.83    3.85
  13  10  12    2.46    2.55
  13  10  12   10.78    3.12
 -13 -10 -12   10.30    2.82
  13  11  -3  124.54   12.23
  13  11  -3   96.68    8.64
 -13 -11   3  125.90   12.77
  13  11  -2   42.92    4.68
  13  11  -2   28.18    4.09
 -13 -11   2   40.38    6.58
  13  11  -1    8.71    2.64
  13  11  -1    7.92    2.01
 -13 -11   1   12.20    2.59
  13  11   0   92.93    7.52
 -13 -11   0   83.34    9.57
  13  11   1   76.97    6.85
  13  11   2   12.60    3.60
  13  11   3  283.65   18.92
  13  11   4  176.18   14.52
  13  11   5   59.70    6.99
  13  11   5   50.86    5.12
  13  11   6  241.05   15.90
  13  11   7  139.53   12.62
  13  11   8    6.66    2.30
  13  11   8    5.78    2.83
 -13 -11  -8    6.79    1.82
  13  11   9   14.45    4.00
  13  11   9   16.23    3.94
 -13 -11  -9   16.12    2.72
  13  11  10   48.02    4.98
  13  11  10   36.01    4.90
 -13 -11 -10   38.50    3.55
  13  11  11   15.04    4.35
  13  11  11   16.57    3.20
 -13 -11 -11   15.29    3.27
  13  11  12    5.53    2.49
  13  11  12    6.13    2.42
 -13 -11 -12    7.76    2.52
  13  12  -2    9.38    3.29
 -13 -12   2    2.82    3.39
  13  12  -1   82.51    7.88
 -13 -12   1   81.07    8.14
  13  12   0  102.24    8.56
 -13 -12   0  114.01   11.49
  13  12   1  104.69    9.35
 -13 -12  -1  116.63    9.47
  13  12   2    5.97    2.13
 -13 -12  -2    3.32    2.78
  13  12   3    6.83    3.32
 -13 -12  -3   11.14    3.35
  13  12   4   83.00    9.15
  13  12   5   89.02    6.31
  13  12   5   48.50    3.77
  13  12   6  177.02   15.65
  13  12   7  364.04   25.75
  13  12   8  104.94   10.82
  13  12   8   95.43   10.95
  13  12   9   47.58    6.93
  13  12   9   42.39    6.87
  13  12  10   78.20    6.61
  13  12  10   46.04    6.87
 -13 -12 -10   64.02    5.77
  13  12  11   79.69    9.64
  13  12  11   82.93    7.74
 -13 -12 -11   69.61    7.10
  13  13   0  124.46   14.22
 -13 -13   0  141.31   14.74
  13  13   1  107.94    9.91
 -13 -13  -1  117.48   10.23
  13  13   2  236.14   20.63
 -13 -13  -2  222.79   20.09
  13  13   3   34.16    6.29
 -13 -13  -3   37.31    4.80
  13  13   4   80.79    7.56
 -13 -13  -4   76.29    7.46
  13  13   5    2.44    1.80
  13  13   6   52.02    7.62
  13  13   7    9.53    3.38
  13  13   7    6.39    2.58
  13  13   8   14.31    3.98
  13  13   8   12.26    3.10
  13  13   9   12.34    3.62
  13  13   9   27.85    4.82
  13  13  10   32.32    5.86
  13  13  10   28.19    6.21
  13  14   2   16.61    4.94
 -13 -14  -2   19.02    5.07
  13  14   3    9.20    3.27
 -13 -14  -3   13.99    3.16
 -13 -14  -4  104.22   12.26
  13  14   5    0.60    1.54
  13  14   6  181.69   17.56
  13  14   6  181.97   16.72
  13  14   7   35.05    6.58
  13  14   7   36.27    5.27
  13  14   8    3.51    2.92
  13  14   8    4.39    2.23
  13  14   9   12.01    4.15
  13  14   9   13.25    4.25
  14  -4  -5    2.95    2.85
 -14   4   5    3.44    2.77
  14  -4  -4   31.17    6.38
 -14   4   4   37.01    6.33
 -14   4   3    1.83    2.65
 -14   4   3    3.67    2.05
 -14   4   2   45.40    8.09
 -14   4   2   62.27    6.52
  14  -3  -7   12.33    4.11
 -14   3   7    8.33    3.67
  14  -3  -6    9.69    2.78
 -14   3   6    6.33    2.61
  14  -3  -5  162.28   12.84
 -14   3   5  168.19   11.70
  14  -3  -4  162.40   14.71
 -14   3   4  139.09   14.18
  14  -3  -3    1.20    2.42
 -14   3   3    3.80    1.86
 -14   3   2    6.93    3.70
 -14   3   2   13.17    2.73
  14  -3  -1   64.81    6.88
 -14   3   1   67.53    8.68
 -14   3   1   98.88    9.11
  14  -3   0   13.87    3.40
 -14   3   0   16.89    2.99
 -14   3   0   12.34    3.77
  14  -3   1   41.40    4.58
 -14   3  -1   57.91    5.24
 -14   3  -1   35.09    6.21
  14  -2  -8   36.36    6.97
 -14   2   8   38.59    4.60
 -14   2   8   31.90    4.51
  14  -2  -7   46.82    5.31
 -14   2   7   26.46    5.99
 -14   2   7   29.27    4.15
  14  -2  -6    4.16    2.60
 -14   2   6    1.89    1.78
  14  -2  -5   18.35    4.83
 -14   2   5   23.33    3.40
  14  -2  -4    0.90    2.24
 -14   2   4    3.36    2.19
  14  -2  -3   22.16    4.28
 -14   2   3   15.60    3.22
  14  -2  -2  109.61   10.18
 -14   2   2  122.22   11.20
  14  -2  -1   25.49    4.05
 -14   2   1   34.40    5.06
 -14   2   1   24.87    4.77
  14  -2   0    2.18    1.94
 -14   2   0    3.16    1.67
 -14   2   0    2.81    2.12
  14  -2   1    8.45    2.41
 -14   2  -1    3.08    1.98
 -14   2  -1    4.29    2.42
  14  -2   2    5.16    2.27
 -14   2  -2    0.87    1.74
 -14   2  -2    4.27    1.63
  14  -2   3    2.95    1.89
 -14   2  -3   -0.21    1.43
 -14   2  -3    0.56    1.61
  14  -1  -8   67.18    8.91
 -14   1   8   62.99    7.29
 -14   1   8   52.23    6.26
  14  -1  -7   47.11    7.40
 -14   1   7   56.00    6.33
 -14   1   7   42.34    4.94
  14  -1  -6    4.62    2.77
 -14   1   6    3.74    2.35
 -14   1   6    2.71    1.72
  14  -1  -5    8.96    3.40
 -14   1   5    9.09    2.99
 -14   1   5    8.28    2.06
  14  -1  -4   51.19    6.24
 -14   1   4   44.45    5.85
 -14   1   4   36.70    3.90
  14  -1  -3   17.97    2.97
 -14   1   3   18.93    3.07
  14  -1  -2   27.53    4.06
  14  -1  -2   30.88    4.86
 -14   1   2   29.03    4.81
  14  -1  -1  101.82    8.97
  14  -1  -1   89.94    9.44
 -14   1   1  119.25    9.85
  14  -1   0    3.18    2.02
 -14   1   0    3.52    2.14
 -14   1   0    3.25    1.64
  14  -1   1   92.57    8.69
 -14   1  -1   84.50    7.46
 -14   1  -1  114.25    7.63
  14  -1   2    4.18    2.35
 -14   1  -2    4.80    2.05
 -14   1  -2    3.28    1.76
  14  -1   3   13.22    2.50
 -14   1  -3   10.13    2.64
 -14   1  -3    7.57    2.42
  14  -1   4    5.97    2.19
 -14   1  -4    5.22    2.03
  14   0  -8  114.30    9.51
 -14   0   8  108.59    7.66
 -14   0   8   91.41    8.85
  14   0  -7   13.62    4.04
 -14   0   7   14.10    3.31
 -14   0   7   12.05    2.98
  14   0  -6    6.63    2.01
 -14   0   6    2.81    2.20
 -14   0   6    1.50    1.82
  14   0  -5   73.93    6.37
 -14   0   5   72.12    5.59
 -14   0   5   68.79    5.95
  14   0  -4  216.81   14.12
 -14   0   4  214.51   14.64
 -14   0   4  175.62   11.97
  14   0  -3   45.59    5.42
  14   0  -3   59.00    6.65
 -14   0   3   62.52    6.65
 -14   0   3   54.40    4.65
  14   0  -2  206.87   13.88
  14   0  -2  217.93   15.23
 -14   0   2  226.31   12.54
 -14   0   2  175.15   10.75
  14   0  -1   58.68    5.21
  14   0  -1   54.01    5.39
 -14   0   1   55.10    5.67
 -14   0   1   32.24    3.00
  14   0   0   36.70    4.96
 -14   0   0   37.60    4.84
  14   0   1   28.96    3.43
 -14   0  -1   23.64    3.29
 -14   0  -1   32.99    4.36
  14   0   2  349.91   24.80
 -14   0  -2  311.33   22.11
 -14   0  -2  364.90   20.69
  14   0   3    2.35    2.12
 -14   0  -3    2.42    1.55
  14   0   4   50.47    6.14
 -14   0  -4   34.47    4.45
  14   0   5   98.42    7.69
 -14   0  -5   66.80    6.76
  14   1  -8    4.71    2.51
 -14  -1   8    5.25    2.35
 -14  -1   8    5.09    2.53
  14   1  -7   99.00    8.82
 -14  -1   7   93.59    8.55
 -14  -1   7   92.29    8.98
  14   1  -6   18.63    4.49
 -14  -1   6   19.93    3.54
 -14  -1   6   16.94    3.52
  14   1  -5  295.43   21.85
 -14  -1   5  303.15   16.52
 -14  -1   5  268.70   15.61
  14   1  -4    4.91    2.09
  14   1  -4    7.58    2.70
 -14  -1   4    6.55    1.84
 -14  -1   4    6.00    1.97
  14   1  -3    2.34    1.65
  14   1  -3    3.46    1.53
 -14  -1   3    0.80    1.80
 -14  -1   3    1.90    1.43
  14   1  -2   66.85    6.43
  14   1  -2   70.80    6.94
 -14  -1   2   67.84    5.30
 -14  -1   2   67.85    5.22
  14   1  -1   56.84    5.75
  14   1  -1   43.91    5.75
 -14  -1   1   53.16    4.36
 -14  -1   1   63.85    6.13
  14   1   0    4.24    1.45
  14   1   0    3.40    1.74
 -14  -1   0    2.17    1.39
 -14  -1   0    1.88    1.27
  14   1   1   48.58    4.92
 -14  -1  -1   37.99    3.60
 -14  -1  -1   27.41    3.35
  14   1   2    3.42    1.60
 -14  -1  -2   -1.08    1.22
 -14  -1  -2    0.20    1.43
  14   1   3   -0.57    1.39
 -14  -1  -3    2.93    1.61
  14   1   4   71.13    7.79
 -14  -1  -4   67.05    6.93
  14   1   5  276.66   18.75
 -14  -1  -5  258.92   18.64
  14   1   6   84.69    9.72
 -14  -1  -6   80.32    8.40
  14   2  -8   16.08    3.56
 -14  -2   8   13.68    3.86
  14   2  -7   61.31    7.54
 -14  -2   7   92.71    8.04
  14   2  -6   47.53    6.69
 -14  -2   6   40.90    5.00
 -14  -2   6   48.02    5.80
  14   2  -5   89.82    7.35
 -14  -2   5   91.26    5.89
 -14  -2   5   93.97    8.23
  14   2  -4    0.28    1.19
  14   2  -4   -0.28    1.47
 -14  -2   4   -1.21    1.26
 -14  -2   4    1.71    1.22
  14   2  -3   39.72    4.82
  14   2  -3   42.65    5.30
 -14  -2   3   47.06    4.89
 -14  -2   3   37.70    4.71
  14   2  -2  325.15   20.33
  14   2  -2  330.55   20.90
 -14  -2   2  342.20   17.80
 -14  -2   2  288.76   17.99
  14   2  -1  367.76   20.20
  14   2  -1  363.81   22.90
 -14  -2   1  311.28   18.63
 -14  -2   1  387.67   22.83
  14   2   0   42.48    4.79
  14   2   0   25.21    3.20
 -14  -2   0   43.00    3.55
 -14  -2   0   34.92    3.46
  14   2   1    6.22    2.52
  14   2   1    7.77    2.07
 -14  -2  -1    5.98    1.74
 -14  -2  -1    7.51    1.72
  14   2   2   58.28    6.31
 -14  -2  -2   56.05    5.59
  14   2   3   48.81    5.87
 -14  -2  -3   44.09    5.24
  14   2   4  108.24    9.97
 -14  -2  -4  107.54    8.75
  14   2   5   79.69    6.59
 -14  -2  -5   68.64    5.49
  14   2   6  107.35   10.30
 -14  -2  -6   96.06    7.00
  14   2   7   18.46    3.60
 -14  -2  -7   19.28    3.03
  14   3  -8  278.92   20.78
 -14  -3   8  285.40   23.52
  14   3  -7   60.82    6.24
 -14  -3   7   58.46    7.36
  14   3  -6   24.92    4.83
 -14  -3   6   25.08    3.39
  14   3  -5    1.91    1.70
  14   3  -5    2.78    2.17
 -14  -3   5    2.17    1.58
 -14  -3   5    2.79    1.96
  14   3  -4  140.91    8.73
  14   3  -4  151.05   11.93
 -14  -3   4  154.83   10.01
 -14  -3   4  140.32   11.30
  14   3  -3   56.41    4.17
  14   3  -3   48.42    5.60
 -14  -3   3   48.22    4.77
 -14  -3   3   44.30    5.24
  14   3  -2   57.02    5.17
  14   3  -2   47.21    4.19
 -14  -3   2   36.94    3.93
 -14  -3   2   51.98    5.01
  14   3  -1   40.32    4.87
  14   3  -1   41.10    4.48
 -14  -3   1   42.91    3.40
 -14  -3   1   33.65    4.20
  14   3   0  128.31    7.93
  14   3   0  115.08    8.31
 -14  -3   0  121.23    8.54
 -14  -3   0  105.73    8.05
  14   3   1   44.66    5.34
  14   3   1   43.18    4.14
 -14  -3  -1   46.57    3.53
 -14  -3  -1   34.76    3.94
  14   3   2    0.81    1.10
 -14  -3  -2   -0.52    1.23
  14   3   3   26.70    4.31
 -14  -3  -3   24.21    3.65
  14   3   4    6.74    2.11
 -14  -3  -4    8.31    2.38
  14   3   5  100.12    9.42
 -14  -3  -5   86.62    6.10
  14   3   6    4.88    2.99
 -14  -3  -6    6.44    1.80
  14   3   7   28.88    4.33
 -14  -3  -7   31.84    4.63
  14   3   8   64.38    6.86
 -14  -3  -8   63.46    7.20
  14   4  -7  210.17   15.50
 -14  -4   7  220.62   18.60
  14   4  -6   69.50    6.12
 -14  -4   6   53.50    6.02
  14   4  -5   26.20    4.16
  14   4  -5   27.99    5.01
 -14  -4   5   31.39    4.71
  14   4  -4   27.05    3.97
  14   4  -4   25.81    4.32
 -14  -4   4   26.63    4.38
  14   4  -3   80.07    7.09
  14   4  -3   67.21    6.96
 -14  -4   3   70.27    7.22
 -14  -4   3   75.14    5.73
  14   4  -2    8.22    2.57
  14   4  -2    5.94    2.34
 -14  -4   2    8.57    1.97
  14   4  -1   19.44    2.65
  14   4  -1   17.86    3.02
 -14  -4   1   20.38    2.80
 -14  -4   1   16.69    3.10
  14   4   0   42.83    5.17
  14   4   0   40.04    4.08
 -14  -4   0   43.81    4.02
 -14  -4   0   32.83    3.46
  14   4   1   19.22    2.70
  14   4   1   13.64    2.49
 -14  -4  -1   15.96    2.77
 -14  -4  -1   16.94    2.89
  14   4   2   48.44    5.92
  14   4   2   43.63    3.75
 -14  -4  -2   45.47    4.64
 -14  -4  -2   41.36    4.50
  14   4   3   37.78    4.90
  14   4   3   30.43    3.59
 -14  -4  -3   29.53    2.99
  14   4   4   16.49    2.90
 -14  -4  -4   16.25    3.02
  14   4   5  136.26   11.26
 -14  -4  -5  120.53    9.14
  14   4   6  715.55   48.12
 -14  -4  -6  574.26   33.74
  14   4   7    7.63    2.52
 -14  -4  -7   -0.76    1.97
  14   4   8   46.18    5.28
 -14  -4  -8   37.60    5.76
  14   4   9   24.15    3.95
 -14  -4  -9   18.51    3.25
  14   5  -7   55.09    8.17
 -14  -5   7   62.30    8.41
  14   5  -6    0.51    1.36
  14   5  -6   -0.35    1.61
 -14  -5   6    0.30    1.74
  14   5  -5   13.57    3.19
  14   5  -5   12.72    3.45
 -14  -5   5   13.01    3.64
  14   5  -4  293.99   18.87
  14   5  -4  276.56   19.60
 -14  -5   4  249.23   18.05
  14   5  -3  111.44    8.93
  14   5  -3   82.23    8.26
 -14  -5   3  105.31    7.49
  14   5  -2   25.43    3.76
  14   5  -2   21.50    3.39
 -14  -5   2   19.77    2.68
 -14  -5   2   19.33    3.73
  14   5  -1  130.33    8.32
  14   5  -1  118.19    8.33
 -14  -5   1  114.89    6.14
 -14  -5   1  128.66    8.18
  14   5   0   18.51    3.47
  14   5   0   13.72    2.53
 -14  -5   0   15.41    2.50
 -14  -5   0   16.42    3.06
  14   5   1   14.11    2.22
  14   5   1    9.41    2.06
 -14  -5  -1    8.74    2.22
 -14  -5  -1   10.24    1.98
  14   5   2   25.14    3.99
  14   5   2   19.10    2.44
 -14  -5  -2   19.13    2.91
 -14  -5  -2   20.28    3.25
  14   5   3    2.77    2.11
  14   5   3    2.39    0.79
 -14  -5  -3    3.41    1.59
  14   5   4  133.24    9.10
  14   5   4  114.13    8.69
 -14  -5  -4  114.72    8.54
  14   5   5   48.27    5.55
  14   5   5   54.79    5.29
 -14  -5  -5   59.51    5.52
  14   5   6  106.87    9.59
 -14  -5  -6   70.70    7.41
  14   5   7  345.98   24.90
 -14  -5  -7  282.01   16.47
  14   5   8    6.64    2.82
 -14  -5  -8    1.90    2.16
  14   5   9   67.27    8.39
 -14  -5  -9   49.05    5.18
  14   6  -6  166.33   12.67
  14   6  -6  150.24   13.33
 -14  -6   6  139.82   11.93
  14   6  -5   22.66    3.98
  14   6  -5   19.01    4.32
 -14  -6   5   24.58    3.70
  14   6  -4    1.13    1.33
  14   6  -4    0.72    1.72
 -14  -6   4    1.80    1.91
  14   6  -3    0.93    1.38
  14   6  -3    4.07    1.70
 -14  -6   3    1.09    1.47
  14   6  -2   13.39    2.66
  14   6  -2   16.40    2.83
 -14  -6   2   14.81    2.66
  14   6  -1  155.97   11.57
  14   6  -1  128.98    9.13
 -14  -6   1  137.24   10.97
  14   6   0  408.13   25.40
  14   6   0  359.16   19.59
 -14  -6   0  338.45   16.26
 -14  -6   0  369.45   21.10
  14   6   1   13.51    2.55
  14   6   1   13.19    2.12
 -14  -6  -1   11.49    2.19
 -14  -6  -1   14.07    2.97
  14   6   2   10.74    2.99
  14   6   2    7.59    1.62
 -14  -6  -2    8.99    2.03
 -14  -6  -2   12.02    2.60
  14   6   3  119.06    8.90
 -14  -6  -3   79.27    4.93
 -14  -6  -3   84.23    6.17
  14   6   4  160.09    9.30
  14   6   4  105.07    9.04
 -14  -6  -4  110.23    7.82
  14   6   5  414.85   25.04
  14   6   5  407.05   25.05
 -14  -6  -5  341.00   21.45
  14   6   6   10.72    3.07
  14   6   6   25.98    2.51
 -14  -6  -6   11.07    2.30
  14   6   7    2.91    2.20
  14   6   7    6.93    2.18
 -14  -6  -7    6.94    2.23
  14   6   8   39.51    4.06
 -14  -6  -8   14.28    3.15
  14   6   9   19.97    3.72
 -14  -6  -9   16.33    3.69
  14   7  -6  223.54   18.64
  14   7  -6  236.83   18.73
 -14  -7   6  250.59   22.13
  14   7  -5    6.61    2.74
  14   7  -5    5.69    2.57
 -14  -7   5    4.60    3.06
  14   7  -4   44.03    5.73
  14   7  -4   32.57    4.97
 -14  -7   4   40.42    6.12
  14   7  -3   37.11    5.31
  14   7  -3   42.16    4.74
 -14  -7   3   35.86    5.91
  14   7  -2   21.13    3.47
  14   7  -2   14.45    2.76
 -14  -7   2    8.59    2.68
  14   7  -1   16.96    3.50
  14   7  -1   12.47    2.58
 -14  -7   1   13.14    2.59
  14   7   0  165.08   10.77
  14   7   0  132.64    8.60
 -14  -7   0  154.64   12.31
  14   7   1   45.55    5.40
  14   7   1   30.84    3.18
 -14  -7  -1   32.63    3.13
 -14  -7  -1   34.67    3.85
  14   7   2   97.93    6.90
  14   7   2   61.65    4.74
 -14  -7  -2   78.79    5.41
 -14  -7  -2   92.72    7.97
  14   7   3  259.49   17.70
 -14  -7  -3  204.31   12.09
 -14  -7  -3  219.58   15.66
  14   7   4  179.66   13.70
  14   7   4  158.17    9.92
 -14  -7  -4  135.59    9.24
  14   7   5   10.79    3.62
  14   7   5   19.26    3.16
 -14  -7  -5   11.32    1.88
  14   7   6    7.20    2.55
  14   7   6    4.84    2.14
 -14  -7  -6    2.52    1.89
  14   7   7   10.57    3.19
  14   7   7   10.75    2.66
 -14  -7  -7    6.60    2.45
  14   7   8   55.89    7.72
  14   7   8   60.95    6.28
 -14  -7  -8   51.74    4.62
  14   7   9    3.07    2.21
  14   7   9    1.99    1.68
 -14  -7  -9   -0.90    1.67
 -14  -7 -10    6.25    2.60
  14   8  -5    0.68    1.88
  14   8  -5    1.49    1.74
 -14  -8   5   -0.24    2.20
  14   8  -4   31.48    4.08
  14   8  -4   27.56    4.59
 -14  -8   4   27.53    5.73
  14   8  -3  502.98   33.65
  14   8  -3  440.28   27.17
 -14  -8   3  433.94   31.33
  14   8  -2   22.97    4.14
  14   8  -2   16.92    3.10
 -14  -8   2   13.87    4.22
  14   8  -1   75.01    7.05
  14   8  -1   56.10    5.10
 -14  -8   1   51.01    5.42
  14   8   0   25.88    4.16
  14   8   0   17.31    2.68
 -14  -8   0   18.95    3.13
  14   8   1   10.60    2.22
  14   8   1    4.93    1.41
 -14  -8  -1    9.77    2.68
  14   8   2    4.32    2.32
 -14  -8  -2    2.42    1.64
  14   8   3   79.82    7.66
 -14  -8  -3   56.41    4.69
 -14  -8  -3   65.81    7.32
  14   8   4  142.88    9.68
 -14  -8  -4  110.53    7.55
  14   8   5   20.79    3.92
  14   8   5   35.91    4.69
 -14  -8  -5   33.55    3.45
  14   8   6   22.01    3.68
  14   8   6   27.16    3.27
 -14  -8  -6   24.21    3.36
  14   8   7    8.22    2.56
  14   8   7   13.28    2.89
 -14  -8  -7    7.52    1.76
  14   8   8    5.69    3.35
  14   8   8   19.55    3.62
 -14  -8  -8   21.74    2.37
  14   8   9   55.67    5.70
 -14  -8  -9   75.31    6.77
  14   8  10   57.38    6.83
 -14  -8 -10   55.68    6.60
  14   9  -4   18.77    4.41
  14   9  -4   14.84    3.66
  14   9  -3  105.70    8.23
  14   9  -3   84.78    7.91
 -14  -9   3   82.05   10.33
  14   9  -2   59.06    6.83
  14   9  -2   40.75    4.79
 -14  -9   2   47.06    6.92
  14   9  -1   93.17    8.83
  14   9  -1   66.56    5.71
 -14  -9   1   59.32    8.20
  14   9   0   50.38    5.21
 -14  -9   0   45.01    6.54
  14   9   1    5.69    2.03
 -14  -9  -1    2.33    2.53
  14   9   2   55.96    7.13
 -14  -9  -2   56.33    7.22
  14   9   3  319.58   20.41
 -14  -9  -3  295.95   19.20
  14   9   4   10.34    2.78
 -14  -9  -4   14.82    3.51
  14   9   5   78.14    8.27
  14   9   5   74.87    7.26
 -14  -9  -5   58.93    4.01
  14   9   6   26.48    4.62
  14   9   6   21.47    4.23
 -14  -9  -6   18.77    2.93
  14   9   7    0.06    2.39
  14   9   7    4.50    2.15
 -14  -9  -7    2.70    1.56
  14   9   8    5.85    2.55
 -14  -9  -8    4.07    1.92
  14   9   9   45.97    4.74
 -14  -9  -9   39.56    4.96
  14   9  10   20.45    3.93
  14   9  10   22.61    3.38
 -14  -9 -10   12.73    3.56
  14  10  -3  116.05   11.22
  14  10  -3   84.07    8.50
  14  10  -2    1.17    2.16
  14  10  -2    1.28    1.46
  14  10  -1  149.85   11.98
  14  10   0   72.57    6.33
 -14 -10   0   51.44    7.78
  14  10   1    7.42    3.13
 -14 -10  -1    7.09    3.10
  14  10   2  177.52   15.06
 -14 -10  -2  164.51   15.07
  14  10   3   16.12    4.46
 -14 -10  -3   19.16    4.25
  14  10   4   20.79    3.64
 -14 -10  -4   21.67    4.45
  14  10   5    6.82    3.09
  14  10   5    7.21    2.20
  14  10   6   26.42    5.51
  14  10   6   30.10    5.34
  14  10   7   10.60    3.49
  14  10   7   11.42    3.29
 -14 -10  -7    7.70    1.63
  14  10   8   -0.02    1.70
 -14 -10  -8    0.41    1.18
  14  10   9    0.39    1.87
 -14 -10  -9    0.87    1.42
  14  10  10  121.88   10.00
  14  10  10  121.68   11.11
 -14 -10 -10   85.06    8.53
  14  11  -1   85.11    8.32
  14  11   0   29.02    4.58
  14  11   1    4.86    2.24
  14  11   2    1.69    1.75
  14  11   3  116.79   11.87
 -14 -11  -3  114.04   11.33
  14  11   4  152.77   11.82
 -14 -11  -4  141.51   11.23
  14  11   5   65.13    6.78
  14  11   5   62.78    8.24
  14  11   6   26.25    5.54
  14  11   6   26.23    4.10
  14  11   7  248.01   21.91
  14  11   8   12.53    3.07
  14  11   9    9.63    3.15
  14  11   9   14.99    2.99
 -14 -11  -9   11.98    2.72
  14  12   1   22.81    4.28
  14  12   2    1.51    1.82
  14  12   3  101.74   11.52
  14  12   4   97.56   11.01
  14  12   5    0.88    2.57
  14  12   5    3.08    1.87
  14  12   6   24.07    5.46
  14  12   7   17.34    3.65
  14  12   8   17.08    3.67
  14  12   8   15.03    4.63
  14  12   9    3.76    2.29
  14  12   9    3.49    2.22
  14  13   3    3.89    3.18
 -14 -13  -3    4.73    3.13
  14  13   4  170.79   16.99
  14  13   5   13.41    3.39
  14  13   5   11.81    3.17
  14  13   6  350.90   30.95
  14  13   7  138.42   15.41
  15  -1  -3    4.36    2.25
 -15   1   3    0.48    1.74
  15  -1  -2   28.30    5.47
 -15   1   2   35.36    5.79
  15  -1  -1    2.49    1.56
 -15   1   1    3.83    2.49
 -15   1   1    3.27    1.83
  15   0  -5    6.12    3.03
 -15   0   5    3.78    2.00
 -15   0   5    5.38    2.00
  15   0  -4   36.75    5.94
 -15   0   4   46.14    4.41
 -15   0   4   26.14    4.03
  15   0  -3   -0.02    1.64
 -15   0   3    0.48    1.59
  15   0  -2    5.33    2.60
  15   0  -2    7.88    2.18
 -15   0   2    7.72    2.93
  15   0  -1   10.31    3.08
  15   0  -1   11.22    2.40
 -15   0   1   10.74    2.45
  15   0   0   48.75    6.24
 -15   0   0   41.80    4.75
 -15   0   0   61.75    6.48
  15   0   1   15.86    3.92
 -15   0  -1   17.33    3.88
  15   0   2   30.56    5.48
 -15   0  -2   33.02    4.12
  15   1  -5    5.10    2.43
 -15  -1   5    6.97    2.67
 -15  -1   5    7.18    1.79
  15   1  -4    5.82    2.17
 -15  -1   4    6.68    1.99
 -15  -1   4    3.84    2.15
  15   1  -3   26.87    4.76
 -15  -1   3   24.12    3.41
 -15  -1   3   22.72    3.63
  15   1  -2  119.99    9.79
  15   1  -2  124.13    8.39
 -15  -1   2  105.55    8.28
 -15  -1   2  136.06   11.49
  15   1  -1    6.84    2.30
  15   1  -1    4.64    2.28
 -15  -1   1    2.96    1.64
 -15  -1   1    4.21    2.29
  15   1   0    3.30    2.08
  15   1   0    1.53    1.46
 -15  -1   0    3.62    2.04
  15   1   1    3.25    2.16
 -15  -1  -1    1.53    1.98
  15   1   2    3.42    1.89
 -15  -1  -2    4.44    2.35
  15   1   3  115.39    9.01
 -15  -1  -3  105.64    8.03
  15   2  -5   13.19    3.45
 -15  -2   5   19.11    2.89
 -15  -2   5   21.27    2.79
  15   2  -4    8.44    2.37
 -15  -2   4    6.87    2.00
 -15  -2   4   10.24    2.60
  15   2  -3   48.87    5.51
  15   2  -3   47.67    6.04
 -15  -2   3   39.36    3.99
 -15  -2   3   45.08    5.56
  15   2  -2  188.50   14.30
  15   2  -2  190.40   14.90
 -15  -2   2  172.14   12.41
 -15  -2   2  198.27   13.45
  15   2  -1  218.79   15.49
  15   2  -1  196.53   14.16
 -15  -2   1  223.37   14.45
 -15  -2   1  146.96   10.95
  15   2   0   -0.25    1.89
  15   2   0    1.09    1.21
 -15  -2   0    1.13    1.31
 -15  -2   0    2.91    1.36
  15   2   1    5.02    2.54
 -15  -2  -1    4.59    2.28
  15   2   2   30.34    5.26
 -15  -2  -2   31.32    3.60
  15   2   3  105.38    8.60
 -15  -2  -3  109.38    7.51
  15   2   4    6.16    2.94
 -15  -2  -4    3.65    2.47
  15   3  -5   54.38    7.13
 -15  -3   5   86.11    7.63
  15   3  -4   19.96    3.07
  15   3  -4   22.88    4.60
 -15  -3   4   27.33    3.64
 -15  -3   4   23.13    4.18
  15   3  -3   50.98    6.02
  15   3  -3   51.09    5.06
 -15  -3   3   50.03    5.89
 -15  -3   3   57.00    5.61
  15   3  -2   81.20    9.20
  15   3  -2  105.90    9.20
 -15  -3   2   99.97    8.31
 -15  -3   2  104.04    8.23
  15   3  -1   33.12    6.15
  15   3  -1   58.35    5.53
 -15  -3   1   49.73    5.20
  15   3   0   46.92    5.64
 -15  -3   0   66.37    5.91
 -15  -3   0   51.88    5.22
  15   3   1  115.32    9.29
  15   3   1   81.35    7.09
 -15  -3  -1   90.47    7.70
 -15  -3  -1   69.45    6.45
  15   3   2  109.29   10.36
 -15  -3  -2  109.23    8.75
  15   3   3   34.43    4.26
 -15  -3  -3   33.36    4.69
  15   3   4    7.06    3.55
 -15  -3  -4   11.93    2.92
  15   3   5  113.19    9.04
 -15  -3  -5   95.99    7.34
  15   4  -5   34.42    6.76
 -15  -4   5   49.94    6.35
  15   4  -4   12.13    2.92
  15   4  -4    7.27    3.17
 -15  -4   4    8.92    3.02
  15   4  -3   11.28    2.73
  15   4  -3    9.32    2.09
 -15  -4   3    6.42    2.73
 -15  -4   3    5.44    2.23
  15   4  -2   14.60    3.18
  15   4  -2   11.08    2.91
 -15  -4   2    8.88    2.58
 -15  -4   2    8.59    2.94
  15   4  -1   98.10    8.07
  15   4  -1   74.63    6.76
 -15  -4   1   73.06    6.69
 -15  -4   1   65.04    7.38
  15   4   0   16.16    4.63
  15   4   0   24.77    3.61
 -15  -4   0   32.04    2.79
 -15  -4   0   20.60    3.07
  15   4   1    5.13    1.66
  15   4   1    1.08    1.54
 -15  -4  -1    1.46    1.71
 -15  -4  -1    1.25    1.66
  15   4   2    8.79    2.65
 -15  -4  -2    2.17    2.02
  15   4   3    4.19    1.60
 -15  -4  -3    0.10    1.26
  15   4   4   58.78    7.64
 -15  -4  -4   56.01    6.11
  15   4   5    4.14    1.84
 -15  -4  -5    1.26    1.46
  15   4   6   46.73    7.11
 -15  -4  -6   38.37    5.79
  15   5  -4    5.95    1.98
  15   5  -4    5.44    2.71
 -15  -5   4    5.87    2.84
  15   5  -3   73.73    7.18
  15   5  -3   61.99    6.85
 -15  -5   3   49.99    7.09
  15   5  -2    9.84    3.11
  15   5  -2    8.26    2.67
 -15  -5   2   10.06    3.03
  15   5  -1   77.85    7.38
  15   5  -1   66.04    6.17
 -15  -5   1   58.01    5.56
 -15  -5   1   67.19    7.04
  15   5   0   14.71    2.77
  15   5   0   11.54    2.62
 -15  -5   0   12.05    2.01
 -15  -5   0   13.61    3.03
  15   5   1    4.31    1.83
  15   5   1    3.56    1.61
 -15  -5  -1    1.94    1.33
 -15  -5  -1    4.42    2.00
  15   5   2   86.93    7.62
  15   5   2   41.05    4.12
 -15  -5  -2   68.15    5.70
 -15  -5  -2   52.38    6.43
  15   5   3  141.79    9.78
 -15  -5  -3   90.99    8.94
  15   5   4   16.20    4.11
 -15  -5  -4   12.22    2.23
  15   5   5   53.73    7.32
 -15  -5  -5   47.86    5.87
  15   5   6   30.56    4.87
 -15  -5  -6   34.21    3.86
  15   6  -4   65.33    7.66
  15   6  -4   63.24    7.40
 -15  -6   4   67.61    8.17
  15   6  -3   79.29    6.36
  15   6  -3   73.30    7.39
 -15  -6   3   56.08    6.44
  15   6  -2    4.68    2.00
  15   6  -2    4.11    2.17
 -15  -6   2    6.34    2.67
  15   6  -1   26.47    3.75
  15   6  -1   21.12    3.54
 -15  -6   1   25.91    3.50
  15   6   0    3.06    1.83
  15   6   0    2.88    1.68
 -15  -6   0    4.10    2.18
  15   6   1   16.26    3.73
  15   6   1   13.59    2.41
 -15  -6  -1   10.95    2.55
 -15  -6  -1   13.28    3.23
  15   6   2   25.82    3.55
 -15  -6  -2   16.35    3.17
 -15  -6  -2   19.68    3.02
  15   6   3   26.74    4.45
  15   6   3   18.19    2.73
 -15  -6  -3   12.49    3.08
  15   6   4    1.44    1.73
  15   6   4    2.57    1.78
  15   6   5   60.07    7.06
  15   6   5   40.22    4.27
 -15  -6  -5   39.34    4.86
  15   6   6   18.03    4.37
 -15  -6  -6   12.48    3.29
  15   6   7   43.03    5.40
 -15  -6  -7   33.83    4.04
  15   7  -3    3.70    2.24
  15   7  -3    2.43    1.45
 -15  -7   3    0.49    1.80
  15   7  -2   13.25    3.54
  15   7  -2   10.96    2.81
 -15  -7   2    7.60    3.57
  15   7  -1  232.55   18.79
  15   7  -1  203.43   14.25
 -15  -7   1  242.21   19.29
  15   7   0  202.62   16.36
  15   7   0  165.85   11.13
 -15  -7   0  190.77   15.52
  15   7   1   -1.12    1.23
 -15  -7  -1    1.35    1.46
  15   7   2   43.77    5.91
 -15  -7  -2   34.05    3.76
 -15  -7  -2   29.93    4.01
  15   7   3    0.98    1.78
 -15  -7  -3    2.86    1.54
 -15  -7  -3    3.11    2.02
  15   7   4  162.33   12.71
  15   7   4  115.52   10.02
 -15  -7  -4  102.60    8.25
  15   7   5   11.47    2.82
  15   7   5   10.99    2.28
 -15  -7  -5    7.57    2.55
  15   7   6   27.10    5.32
  15   7   6   41.81    5.33
 -15  -7  -6   48.55    4.92
  15   7   7   13.94    4.32
  15   7   7   12.44    3.32
 -15  -7  -7   11.08    3.08
  15   8  -2   15.45    3.69
  15   8  -2    8.26    2.74
 -15  -8   2    8.72    3.70
  15   8  -1    3.83    2.87
 -15  -8   1    4.62    2.78
  15   8   0   90.26    9.00
 -15  -8   0   60.23    8.36
  15   8   1    3.82    2.64
 -15  -8  -1    3.29    2.45
  15   8   2   44.25    5.05
 -15  -8  -2   32.46    4.38
  15   8   3   24.88    4.70
 -15  -8  -3   13.91    4.16
  15   8   4   33.66    4.37
  15   8   4   27.61    4.86
 -15  -8  -4   27.00    2.75
  15   8   5   61.83    6.44
  15   8   5   62.95    7.01
 -15  -8  -5   53.26    4.16
  15   8   6   29.51    5.80
  15   8   6   27.41    4.88
 -15  -8  -6   27.15    2.99
  15   8   7    7.91    3.37
  15   8   7    9.55    2.77
 -15  -8  -7    4.55    1.78
  15   9  -1   33.77    6.02
 -15  -9   1   25.51    5.78
  15   9   0   23.77    5.27
 -15  -9   0   22.66    5.18
  15   9   1   21.05    3.82
 -15  -9  -1   22.55    4.86
  15   9   2   30.57    4.77
 -15  -9  -2   34.33    5.96
  15   9   3  398.41   30.56
 -15  -9  -3  357.32   24.83
  15   9   4    9.32    2.72
  15   9   4    8.95    2.54
  15   9   5   53.62    7.94
  15   9   5   46.82    6.84
  15   9   6   18.05    4.80
  15   9   6   18.64    3.25
 -15  -9  -6   14.86    2.95
  15   9   7    7.45    3.25
  15   9   7    4.96    2.13
 -15  -9  -7    4.82    2.10
  15  10   1   13.81    3.58
 -15 -10  -1   18.86    4.61
  15  10   2   37.27    6.68
 -15 -10  -2   36.22    6.50
  15  10   3    9.31    3.96
 -15 -10  -3   10.98    3.78
  15  10   4   22.15    4.16
  15  10   5    4.49    3.47
  15  10   5    8.86    3.25
  15  10   6   31.45    6.69
  15  10   6   33.35    4.96
  15  11   4   47.89    8.08
   0   0   0    0.00    0.00

_computing_structure_solution     'SHELXT 2014/5 (Sheldrick, 2014)'
;
_shelx_hkl_checksum              52187
loop_
_space_group_symop_operation_xyz
'x, y, z'
'-x, -y, -z'
loop_
_atom_site_label
_atom_site_type_symbol
_atom_site_fract_x
_atom_site_fract_y
_atom_site_fract_z
_atom_site_U_iso_or_equiv
_atom_site_adp_type
_atom_site_occupancy
_atom_site_site_symmetry_order
_atom_site_calc_flag
_atom_site_refinement_flags_posn
_atom_site_refinement_flags_adp
_atom_site_refinement_flags_occupancy
_atom_site_disorder_assembly
_atom_site_disorder_group
C1 C 1.2142(3) 0.5053(3) 0.0056(2) 0.0225(7) Uani 1 1 d . . . . .
C8 C 1.1267(3) 0.5844(3) -0.0081(2) 0.0263(4) Uani 1 1 d . . . . .
C9 C 1.1103(3) 0.6780(3) -0.0864(2) 0.0248(8) Uani 1 1 d . . . . .
H9 H 1.1537 0.6939 -0.1352 0.030 Uiso 1 1 calc R U . . .
C10 C 1.0228(3) 0.7393(3) -0.0784(2) 0.0284(8) Uani 1 1 d . . . . .
H10 H 0.9930 0.8061 -0.1208 0.034 Uiso 1 1 calc R U . . .
C11 C 0.9824(3) 0.6857(3) 0.0058(2) 0.0263(4) Uani 1 1 d . . . . .
C12 C 0.8956(3) 0.7283(3) 0.0388(2) 0.0243(8) Uani 1 1 d . . . . .
C13 C 0.8454(3) 0.8355(3) -0.0111(2) 0.0237(8) Uani 1 1 d . . . . .
C14 C 0.9038(3) 0.9021(3) -0.0298(2) 0.0286(8) Uani 1 1 d . . . . .
H14 H 0.9767 0.8789 -0.0101 0.034 Uiso 1 1 calc R U . . .
C15 C 0.8566(3) 1.0018(3) -0.0768(3) 0.0316(9) Uani 1 1 d . . . . .
H15 H 0.8972 1.0469 -0.0894 0.038 Uiso 1 1 calc R U . . .
C16 C 0.7510(3) 1.0361(3) -0.1057(2) 0.0308(9) Uani 1 1 d . . . . .
H16 H 0.7190 1.1047 -0.1389 0.037 Uiso 1 1 calc R U . . .
C17 C 0.6919(3) 0.9708(3) -0.0863(2) 0.0289(8) Uani 1 1 d . . . . .
H17 H 0.6187 0.9947 -0.1054 0.035 Uiso 1 1 calc R U . . .
C18 C 0.7379(3) 0.8712(3) -0.0395(2) 0.0238(7) Uani 1 1 d . . . . .
H18 H 0.6965 0.8267 -0.0265 0.029 Uiso 1 1 calc R U . . .
C19 C 0.8563(3) 0.6741(3) 0.1190(3) 0.0259(8) Uani 1 1 d . . . . .
C20 C 0.7776(3) 0.7120(3) 0.1638(2) 0.0285(8) Uani 1 1 d . . . . .
H20 H 0.7402 0.7792 0.1426 0.034 Uiso 1 1 calc R U . . .
C21 C 0.7643(3) 0.6369(3) 0.2415(3) 0.0309(9) Uani 1 1 d . . . . .
H21 H 0.7160 0.6427 0.2840 0.037 Uiso 1 1 calc R U . . .
C22 C 0.8335(3) 0.5487(3) 0.2494(2) 0.0324(9) Uani 1 1 d . . . . .
C23 C 0.8419(3) 0.4548(3) 0.3198(2) 0.0285(8) Uani 1 1 d . . . . .
C24 C 0.7735(6) 0.4530(7) 0.3940(5) 0.017(2) Uiso 0.592(11) 1 d . . P A 4
C25 C 0.7897(5) 0.4835(5) 0.4554(5) 0.0306(18) Uiso 0.592(11) 1 d . . P A 4
H25 H 0.8483 0.5086 0.4520 0.037 Uiso 0.592(11) 1 calc R U P A 4
C26 C 0.7224(6) 0.4784(6) 0.5224(5) 0.0335(19) Uiso 0.592(11) 1 d . . P A 4
H26 H 0.7342 0.5008 0.5641 0.040 Uiso 0.592(11) 1 calc R U P A 4
C27 C 0.6365(7) 0.4400(6) 0.5286(6) 0.0235(19) Uiso 0.592(11) 1 d . . P A 4
H27 H 0.5983 0.4242 0.5807 0.028 Uiso 0.592(11) 1 calc R U P A 4
C28 C 0.6088(8) 0.4257(8) 0.4598(7) 0.036(3) Uiso 0.592(11) 1 d . . P A 4
H28 H 0.5445 0.4099 0.4592 0.044 Uiso 0.592(11) 1 calc R U P A 4
C29 C 0.6733(8) 0.4339(8) 0.3904(7) 0.033(3) Uiso 0.592(11) 1 d . . P A 4
H29 H 0.6519 0.4270 0.3407 0.040 Uiso 0.592(11) 1 calc R U P A 4
C30 C 0.8171(12) 0.4190(11) 0.4800(9) 0.058(4) Uiso 0.408(11) 1 d . . P A 3
H30 H 0.8905 0.4107 0.4883 0.069 Uiso 0.408(11) 1 calc R U P A 3
C31 C 0.7521(11) 0.4182(11) 0.5484(9) 0.051(4) Uiso 0.408(11) 1 d . . P A 3
H31 H 0.7792 0.4198 0.5992 0.061 Uiso 0.408(11) 1 calc R U P A 3
C32 C 0.6575(11) 0.4153(11) 0.5444(9) 0.035(3) Uiso 0.408(11) 1 d . . P A 3
H32 H 0.6101 0.4228 0.5868 0.042 Uiso 0.408(11) 1 calc R U P A 3
C33 C 0.6275(9) 0.4006(9) 0.4748(8) 0.021(3) Uiso 0.408(11) 1 d . . P A 3
H33 H 0.5635 0.3840 0.4751 0.026 Uiso 0.408(11) 1 calc R U P A 3
C34 C 0.6912(9) 0.4101(9) 0.4044(7) 0.016(3) Uiso 0.408(11) 1 d . . P A 3
H34 H 0.6688 0.3975 0.3586 0.019 Uiso 0.408(11) 1 calc R U P A 3
C35 C 0.7719(12) 0.4328(12) 0.3963(10) 0.035(5) Uiso 0.408(11) 1 d . . P A 3
C36 C 0.9125(3) 0.3703(3) 0.3227(2) 0.0258(4) Uani 1 1 d . . . . .
C37 C 0.9164(3) 0.2736(3) 0.3918(2) 0.0283(8) Uani 1 1 d . . . . .
H37 H 0.8721 0.2576 0.4400 0.034 Uiso 1 1 calc R U . . .
C38 C 0.9933(3) 0.2100(3) 0.3766(2) 0.0289(8) Uani 1 1 d . . . . .
H38 H 1.0120 0.1405 0.4111 0.035 Uiso 1 1 calc R U . . .
C39 C 1.0430(3) 0.2650(3) 0.2987(2) 0.0258(4) Uani 1 1 d . . . . .
C40 C 1.1345(3) 0.2219(3) 0.2710(2) 0.0223(7) Uani 1 1 d . . . . .
C41 C 1.1901(3) 0.1157(3) 0.3249(2) 0.0236(7) Uani 1 1 d . . . . .
C42 C 1.2267(3) 0.0781(3) 0.4145(2) 0.0272(8) Uani 1 1 d . . . . .
H42 H 1.2137 0.1195 0.4427 0.033 Uiso 1 1 calc R U . . .
C43 C 1.2821(3) -0.0197(3) 0.4626(3) 0.0311(9) Uani 1 1 d . . . . .
H43 H 1.3069 -0.0451 0.5238 0.037 Uiso 1 1 calc R U . . .
C44 C 1.3017(3) -0.0807(3) 0.4226(3) 0.0312(9) Uani 1 1 d . . . . .
H44 H 1.3398 -0.1477 0.4561 0.037 Uiso 1 1 calc R U . . .
C45 C 1.2658(3) -0.0441(3) 0.3333(3) 0.0306(8) Uani 1 1 d . . . . .
H45 H 1.2790 -0.0862 0.3057 0.037 Uiso 1 1 calc R U . . .
C46 C 1.2106(3) 0.0536(3) 0.2843(2) 0.0253(8) Uani 1 1 d . . . . .
H46 H 1.1866 0.0787 0.2230 0.030 Uiso 1 1 calc R U . . .
C47 C 1.1814(3) 0.2760(3) 0.1966(2) 0.0287(8) Uani 1 1 d . . . . .
C48 C 1.2836(3) 0.2481(3) 0.1708(2) 0.0253(8) Uani 1 1 d . . . . .
H48 H 1.3304 0.1838 0.1996 0.030 Uiso 1 1 calc R U . . .
C49 C 1.3059(3) 0.3252(3) 0.0996(2) 0.0241(8) Uani 1 1 d . . . . .
H49 H 1.3705 0.3219 0.0722 0.029 Uiso 1 1 calc R U . . .
C50 C 1.2208(3) 0.4110(3) 0.0714(3) 0.0285(8) Uani 1 1 d . . . . .
N1 N 1.0460(2) 0.5887(2) 0.0490(2) 0.0263(4) Uani 1 1 d . . . . .
N2 N 0.9888(2) 0.3657(2) 0.2623(2) 0.0258(4) Uani 1 1 d . . . . .
N3 N 0.8981(4) 0.5760(4) 0.1775(4) 0.0225(5) Uani 0.608(5) 1 d . . P B 1
N4 N 1.1532(10) 0.3834(8) 0.1468(8) 0.0460(11) Uani 0.392(5) 1 d . . P B 2
S1 S 0.8750(2) 0.5484(3) 0.1528(2) 0.0460(11) Uani 0.392(5) 1 d . . P B 2
S2 S 1.10762(13) 0.38598(10) 0.11495(11) 0.0225(5) Uani 0.608(5) 1 d . . P B 1
Ni1 Ni 1.01485(4) 0.47917(4) 0.15558(3) 0.02542(13) Uani 1 1 d . . . . .
B1 B 0.2999(3) -0.0167(3) 0.7674(2) 0.0201(8) Uani 1 1 d . . . . .
C51 C 0.3604(3) 0.0697(2) 0.7394(2) 0.0205(7) Uani 1 1 d . . . . .
C52 C 0.3656(3) 0.1295(3) 0.6479(2) 0.0229(7) Uani 1 1 d . . . . .
C53 C 0.4131(3) 0.2048(3) 0.6159(2) 0.0286(8) Uani 1 1 d . . . . .
C54 C 0.4569(3) 0.2245(3) 0.6755(3) 0.0276(8) Uani 1 1 d . . . . .
C55 C 0.4521(3) 0.1701(3) 0.7662(3) 0.0251(8) Uani 1 1 d . . . . .
C56 C 0.4037(3) 0.0950(3) 0.7954(2) 0.0214(7) Uani 1 1 d . . . . .
F1 F 0.32492(17) 0.11313(16) 0.58581(13) 0.0291(5) Uani 1 1 d . . . . .
F2 F 0.4184(2) 0.25749(18) 0.52680(14) 0.0395(6) Uani 1 1 d . . . . .
F3 F 0.5030(2) 0.29801(18) 0.64600(16) 0.0421(6) Uani 1 1 d . . . . .
F4 F 0.49305(17) 0.18986(16) 0.82514(15) 0.0314(5) Uani 1 1 d . . . . .
F5 F 0.40041(16) 0.04734(15) 0.88620(13) 0.0248(4) Uani 1 1 d . . . . .
C57 C 0.1755(3) 0.0450(3) 0.7342(2) 0.0233(8) Uani 1 1 d . . . . .
C58 C 0.1128(3) 0.0530(3) 0.6658(2) 0.0262(8) Uani 1 1 d . . . . .
C59 C 0.0071(3) 0.1042(3) 0.6454(3) 0.0349(10) Uani 1 1 d . . . . .
C60 C -0.0399(3) 0.1552(3) 0.6913(3) 0.0391(11) Uani 1 1 d . . . . .
C61 C 0.0195(3) 0.1535(3) 0.7574(3) 0.0344(10) Uani 1 1 d . . . . .
C62 C 0.1236(3) 0.1000(3) 0.7767(2) 0.0269(8) Uani 1 1 d . . . . .
F6 F 0.15122(17) 0.00903(17) 0.61390(14) 0.0328(5) Uani 1 1 d . . . . .
F7 F -0.04954(18) 0.1040(2) 0.58085(15) 0.0476(7) Uani 1 1 d . . . . .
F8 F -0.14219(19) 0.2062(2) 0.67229(19) 0.0567(8) Uani 1 1 d . . . . .
F9 F -0.02440(19) 0.20226(18) 0.80426(18) 0.0450(6) Uani 1 1 d . . . . .
F10 F 0.17625(17) 0.09842(16) 0.84501(15) 0.0309(5) Uani 1 1 d . . . . .
C63 C 0.3161(3) -0.0950(2) 0.8766(2) 0.0196(7) Uani 1 1 d . . . . .
C64 C 0.2389(3) -0.1275(3) 0.9319(2) 0.0207(7) Uani 1 1 d . . . . .
C65 C 0.2584(3) -0.1987(3) 1.0209(2) 0.0222(7) Uani 1 1 d . . . . .
C66 C 0.3594(3) -0.2415(3) 1.0598(2) 0.0224(7) Uani 1 1 d . . . . .
C67 C 0.4398(3) -0.2132(3) 1.0081(2) 0.0214(7) Uani 1 1 d . . . . .
C68 C 0.4169(3) -0.1433(2) 0.9196(2) 0.0193(7) Uani 1 1 d . . . . .
F11 F 0.13568(15) -0.09011(15) 0.90095(13) 0.0261(5) Uani 1 1 d . . . . .
F12 F 0.17840(16) -0.22582(15) 1.06965(14) 0.0288(5) Uani 1 1 d . . . . .
F13 F 0.37884(17) -0.30913(15) 1.14672(13) 0.0296(5) Uani 1 1 d . . . . .
F14 F 0.54084(16) -0.25450(15) 1.04418(13) 0.0259(5) Uani 1 1 d . . . . .
F15 F 0.50114(15) -0.12205(14) 0.87287(13) 0.0222(4) Uani 1 1 d . . . . .
C69 C 0.3488(3) -0.0912(3) 0.7235(2) 0.0200(7) Uani 1 1 d . . . . .
C70 C 0.2976(3) -0.1591(3) 0.7301(2) 0.0209(7) Uani 1 1 d . . . . .
C71 C 0.3332(3) -0.2294(3) 0.7010(2) 0.0224(7) Uani 1 1 d . . . . .
C72 C 0.4286(3) -0.2367(3) 0.6641(2) 0.0235(7) Uani 1 1 d . . . . .
C73 C 0.4852(3) -0.1731(3) 0.6578(2) 0.0223(7) Uani 1 1 d . . . . .
C74 C 0.4460(3) -0.1034(3) 0.6872(2) 0.0213(7) Uani 1 1 d . . . . .
F16 F 0.20522(16) -0.15973(15) 0.76874(13) 0.0253(5) Uani 1 1 d . . . . .
F17 F 0.27753(17) -0.29267(16) 0.71134(14) 0.0297(5) Uani 1 1 d . . . . .
F18 F 0.46622(18) -0.30513(17) 0.63635(15) 0.0313(5) Uani 1 1 d . . . . .
F19 F 0.57914(16) -0.17998(16) 0.62293(15) 0.0300(5) Uani 1 1 d . . . . .
F20 F 0.50902(15) -0.04658(15) 0.67914(14) 0.0246(4) Uani 1 1 d . . . . .
C75 C 0.2177(3) 0.3549(4) 0.3826(3) 0.0434(11) Uani 1 1 d . . . . .
H75 H 0.2543 0.2875 0.4172 0.052 Uiso 1 1 calc R U . . .
C76 C 0.2490(4) 0.4087(4) 0.3001(4) 0.0553(13) Uani 1 1 d . . . . .
H76 H 0.3065 0.3781 0.2772 0.066 Uiso 1 1 calc R U . . .
C77 C 0.1997(5) 0.5039(5) 0.2511(4) 0.0629(15) Uani 1 1 d . . . . .
H77 H 0.2236 0.5408 0.1945 0.075 Uiso 1 1 calc R U . . .
C78 C 0.1141(6) 0.5495(4) 0.2820(4) 0.073(2) Uani 1 1 d . . . . .
H78 H 0.0788 0.6169 0.2462 0.087 Uiso 1 1 calc R U . . .
C79 C 0.0788(4) 0.4949(4) 0.3676(4) 0.0559(14) Uani 1 1 d . . . . .
H79 H 0.0202 0.5244 0.3904 0.067 Uiso 1 1 calc R U . . .
C80 C 0.1339(4) 0.3976(4) 0.4157(3) 0.0415(10) Uani 1 1 d . . . . .
Cl1 Cl 0.09740(14) 0.32801(13) 0.52149(10) 0.0743(4) Uani 1 1 d . . . . .
C87 C 1.4722(7) 0.5441(7) -0.1577(6) 0.022(2) Uiso 0.452(15) 1 d . . P C 5
H80 H 1.5312 0.5512 -0.1925 0.026 Uiso 0.452(15) 1 calc R U P C 5
C89 C 1.4158(7) 0.4799(6) -0.1555(6) 0.022(2) Uiso 0.452(15) 1 d . . P C 5
H81 H 1.4366 0.4440 -0.1888 0.026 Uiso 0.452(15) 1 calc R U P C 5
C92 C 1.3306(8) 0.4690(6) -0.1051(6) 0.015(2) Uiso 0.452(15) 1 d . . P C 5
H82 H 1.2924 0.4259 -0.1043 0.018 Uiso 0.452(15) 1 calc R U P C 5
C93 C 1.3562(9) 0.5849(9) -0.0598(8) 0.025(3) Uiso 0.452(15) 1 d . . P C 5
H83 H 1.3340 0.6213 -0.0270 0.030 Uiso 0.452(15) 1 calc R U P C 5
C95 C 1.3003(8) 0.5190(8) -0.0564(8) 0.017(3) Uiso 0.452(15) 1 d . . P C 5
C85 C 1.4426(7) 0.5974(7) -0.1097(7) 0.021(2) Uiso 0.452(15) 1 d . . P C 5
H84 H 1.4804 0.6411 -0.1111 0.025 Uiso 0.452(15) 1 calc R U P C 5
C90 C 1.3548(8) 0.4740(6) -0.0908(6) 0.029(2) Uiso 0.548(15) 1 d . . P C 6
H85 H 1.3270 0.4241 -0.0893 0.035 Uiso 0.548(15) 1 calc R U P C 6
C91 C 1.4354(6) 0.6172(6) -0.0919(6) 0.025(2) Uiso 0.548(15) 1 d . . P C 6
H86 H 1.4640 0.6661 -0.0920 0.031 Uiso 0.548(15) 1 calc R U P C 6
C88 C 1.4817(6) 0.5649(5) -0.1369(5) 0.0214(19) Uiso 0.548(15) 1 d . . P C 6
H87 H 1.5423 0.5784 -0.1677 0.026 Uiso 0.548(15) 1 calc R U P C 6
C94 C 1.3488(7) 0.5993(7) -0.0472(6) 0.021(2) Uiso 0.548(15) 1 d . . P C 6
H88 H 1.3165 0.6367 -0.0172 0.025 Uiso 0.548(15) 1 calc R U P C 6
C96 C 1.3072(7) 0.5272(7) -0.0448(6) 0.018(3) Uiso 0.548(15) 1 d . . P C 6
C97 C 1.4428(7) 0.4931(6) -0.1389(5) 0.027(2) Uiso 0.548(15) 1 d . . P C 6
H89 H 1.4743 0.4583 -0.1715 0.032 Uiso 0.548(15) 1 calc R U P C 6
loop_
_atom_site_aniso_label
_atom_site_aniso_U_11
_atom_site_aniso_U_22
_atom_site_aniso_U_33
_atom_site_aniso_U_23
_atom_site_aniso_U_13
_atom_site_aniso_U_12
C1 0.0213(17) 0.0261(18) 0.0224(17) -0.0117(15) 0.0056(14) -0.0095(15)
C8 0.0232(10) 0.0252(10) 0.0183(9) -0.0026(8) 0.0096(8) -0.0029(8)
C9 0.0227(18) 0.0287(19) 0.0162(17) -0.0056(15) 0.0071(14) -0.0064(15)
C10 0.0248(19) 0.0250(19) 0.0174(17) 0.0014(15) 0.0077(14) -0.0007(15)
C11 0.0232(10) 0.0252(10) 0.0183(9) -0.0026(8) 0.0096(8) -0.0029(8)
C12 0.0176(17) 0.0269(19) 0.0207(17) -0.0061(15) 0.0044(14) -0.0039(15)
C13 0.0190(17) 0.0272(19) 0.0166(16) -0.0048(15) 0.0065(13) -0.0043(15)
C14 0.0233(19) 0.032(2) 0.0242(19) -0.0069(16) 0.0096(15) -0.0100(16)
C15 0.038(2) 0.030(2) 0.0254(19) -0.0093(17) 0.0133(17) -0.0141(18)
C16 0.042(2) 0.0198(18) 0.0220(18) -0.0087(15) 0.0069(16) 0.0023(16)
C17 0.0255(19) 0.030(2) 0.0247(19) -0.0126(16) 0.0010(15) 0.0031(16)
C18 0.0200(17) 0.0272(19) 0.0214(17) -0.0107(15) 0.0047(14) -0.0035(15)
C19 0.0216(18) 0.0200(18) 0.0277(19) -0.0065(15) 0.0097(15) -0.0022(14)
C20 0.0247(19) 0.029(2) 0.0243(19) -0.0081(16) 0.0102(15) -0.0055(16)
C21 0.0261(19) 0.038(2) 0.0254(19) -0.0131(17) 0.0148(16) -0.0094(17)
C22 0.030(2) 0.040(2) 0.0183(18) -0.0125(17) 0.0042(15) 0.0021(17)
C23 0.0215(18) 0.041(2) 0.0208(18) -0.0131(17) 0.0038(14) -0.0085(16)
C36 0.0311(11) 0.0224(10) 0.0215(10) -0.0074(8) 0.0167(8) -0.0110(8)
C37 0.0220(18) 0.036(2) 0.0192(18) -0.0050(16) 0.0069(14) -0.0125(16)
C38 0.028(2) 0.031(2) 0.0207(18) -0.0030(16) 0.0064(15) -0.0156(17)
C39 0.0311(11) 0.0224(10) 0.0215(10) -0.0074(8) 0.0167(8) -0.0110(8)
C40 0.0269(18) 0.0194(17) 0.0156(16) -0.0049(14) 0.0012(14) -0.0043(14)
C41 0.0239(18) 0.0236(18) 0.0184(17) -0.0061(15) 0.0062(14) -0.0062(15)
C42 0.034(2) 0.0261(19) 0.0164(17) -0.0057(15) 0.0043(15) -0.0084(16)
C43 0.032(2) 0.032(2) 0.0187(18) -0.0049(16) 0.0019(15) -0.0052(17)
C44 0.030(2) 0.0205(18) 0.0266(19) 0.0000(16) 0.0062(16) -0.0028(16)
C45 0.034(2) 0.026(2) 0.030(2) -0.0123(17) 0.0083(16) -0.0087(17)
C46 0.0285(19) 0.0239(18) 0.0200(17) -0.0083(15) 0.0039(14) -0.0056(15)
C47 0.029(2) 0.028(2) 0.0170(17) -0.0052(15) 0.0057(15) 0.0011(16)
C48 0.0293(19) 0.0220(18) 0.0221(18) -0.0085(15) 0.0091(15) -0.0074(15)
C49 0.0256(18) 0.0218(18) 0.0265(19) -0.0115(15) 0.0139(15) -0.0104(15)
C50 0.0209(18) 0.0237(19) 0.042(2) -0.0147(17) 0.0101(16) -0.0106(15)
N1 0.0232(10) 0.0252(10) 0.0183(9) -0.0026(8) 0.0096(8) -0.0029(8)
N2 0.0311(11) 0.0224(10) 0.0215(10) -0.0074(8) 0.0167(8) -0.0110(8)
N3 0.0239(9) 0.0182(7) 0.0200(8) -0.0050(6) 0.0098(6) -0.0061(6)
N4 0.0351(16) 0.0469(18) 0.0324(16) -0.0028(13) 0.0105(12) -0.0049(13)
S1 0.0351(16) 0.0469(18) 0.0324(16) -0.0028(13) 0.0105(12) -0.0049(13)
S2 0.0239(9) 0.0182(7) 0.0200(8) -0.0050(6) 0.0098(6) -0.0061(6)
Ni1 0.0274(3) 0.0353(3) 0.0139(2) -0.0058(2) 0.00641(18) -0.0201(2)
B1 0.0204(19) 0.0222(19) 0.0144(18) -0.0036(15) 0.0072(14) -0.0106(16)
C51 0.0164(16) 0.0212(17) 0.0190(17) -0.0058(14) 0.0093(13) -0.0056(14)
C52 0.0215(17) 0.0246(18) 0.0196(17) -0.0069(15) 0.0062(14) -0.0082(14)
C53 0.030(2) 0.028(2) 0.0186(18) -0.0015(15) 0.0099(15) -0.0126(16)
C54 0.0266(19) 0.0214(18) 0.032(2) -0.0069(16) 0.0129(16) -0.0144(15)
C55 0.0215(18) 0.0242(18) 0.0296(19) -0.0128(16) 0.0072(15) -0.0063(15)
C56 0.0197(17) 0.0212(17) 0.0182(17) -0.0054(14) 0.0101(13) -0.0057(14)
F1 0.0335(12) 0.0333(12) 0.0179(10) -0.0061(9) 0.0047(9) -0.0160(10)
F2 0.0510(15) 0.0412(14) 0.0197(11) -0.0009(10) 0.0119(10) -0.0285(12)
F3 0.0518(15) 0.0415(14) 0.0384(13) -0.0118(11) 0.0161(11) -0.0352(12)
F4 0.0324(12) 0.0345(12) 0.0326(12) -0.0172(10) 0.0065(9) -0.0150(10)
F5 0.0319(11) 0.0255(11) 0.0170(10) -0.0085(8) 0.0098(8) -0.0112(9)
C57 0.0204(17) 0.0233(18) 0.0174(16) 0.0000(14) 0.0115(14) -0.0112(15)
C58 0.0236(18) 0.0285(19) 0.0172(17) -0.0016(15) 0.0120(14) -0.0111(15)
C59 0.026(2) 0.042(2) 0.0189(18) 0.0023(17) 0.0038(15) -0.0130(18)
C60 0.0199(19) 0.035(2) 0.036(2) 0.0015(18) 0.0127(17) -0.0017(17)
C61 0.026(2) 0.0235(19) 0.039(2) -0.0041(17) 0.0181(18) -0.0056(16)
C62 0.0263(19) 0.0219(18) 0.0255(19) -0.0040(15) 0.0122(15) -0.0104(15)
F6 0.0260(11) 0.0469(14) 0.0178(10) -0.0084(10) 0.0048(9) -0.0107(10)
F7 0.0257(12) 0.0723(19) 0.0243(12) -0.0052(12) 0.0007(10) -0.0128(12)
F8 0.0205(12) 0.0609(18) 0.0570(17) -0.0090(14) 0.0077(11) 0.0033(12)
F9 0.0358(13) 0.0325(13) 0.0554(16) -0.0162(12) 0.0243(12) -0.0030(11)
F10 0.0312(12) 0.0295(12) 0.0342(12) -0.0164(10) 0.0134(10) -0.0103(10)
C63 0.0216(17) 0.0180(16) 0.0185(17) -0.0071(14) 0.0084(13) -0.0081(14)
C64 0.0185(17) 0.0214(17) 0.0207(17) -0.0084(14) 0.0061(13) -0.0062(14)
C65 0.0252(18) 0.0204(17) 0.0207(17) -0.0086(14) 0.0135(14) -0.0092(14)
C66 0.0310(19) 0.0203(17) 0.0136(16) -0.0051(14) 0.0084(14) -0.0097(15)
C67 0.0212(17) 0.0224(17) 0.0196(17) -0.0102(14) 0.0045(14) -0.0039(14)
C68 0.0194(17) 0.0210(17) 0.0186(16) -0.0088(14) 0.0106(13) -0.0097(14)
F11 0.0183(10) 0.0293(11) 0.0235(10) -0.0049(9) 0.0087(8) -0.0101(9)
F12 0.0276(11) 0.0296(11) 0.0227(11) -0.0052(9) 0.0160(9) -0.0127(9)
F13 0.0354(12) 0.0273(11) 0.0143(10) -0.0009(9) 0.0076(9) -0.0075(9)
F14 0.0230(10) 0.0277(11) 0.0205(10) -0.0072(9) 0.0026(8) -0.0039(9)
F15 0.0189(10) 0.0248(10) 0.0202(10) -0.0077(8) 0.0088(8) -0.0079(8)
C69 0.0188(17) 0.0221(17) 0.0136(15) -0.0029(13) 0.0047(13) -0.0075(14)
C70 0.0196(17) 0.0271(18) 0.0127(15) -0.0057(14) 0.0071(13) -0.0084(14)
C71 0.0253(18) 0.0247(18) 0.0158(16) -0.0046(14) 0.0037(14) -0.0134(15)
C72 0.0271(19) 0.0252(18) 0.0175(17) -0.0102(15) 0.0055(14) -0.0061(15)
C73 0.0194(17) 0.0312(19) 0.0159(16) -0.0089(15) 0.0086(13) -0.0110(15)
C74 0.0206(17) 0.0248(18) 0.0164(16) -0.0069(14) 0.0064(13) -0.0085(14)
F16 0.0219(10) 0.0325(11) 0.0210(10) -0.0087(9) 0.0112(8) -0.0149(9)
F17 0.0313(12) 0.0353(12) 0.0292(11) -0.0157(10) 0.0085(9) -0.0190(10)
F18 0.0347(12) 0.0377(13) 0.0310(12) -0.0216(10) 0.0127(10) -0.0156(10)
F19 0.0237(11) 0.0388(13) 0.0330(12) -0.0203(10) 0.0153(9) -0.0124(10)
F20 0.0211(10) 0.0295(11) 0.0275(11) -0.0134(9) 0.0111(8) -0.0145(9)
C75 0.033(2) 0.050(3) 0.041(3) -0.019(2) -0.0056(19) -0.005(2)
C76 0.045(3) 0.072(4) 0.047(3) -0.023(3) -0.001(2) -0.020(3)
C77 0.078(4) 0.064(4) 0.056(3) -0.023(3) -0.003(3) -0.040(3)
C78 0.098(5) 0.031(3) 0.079(4) -0.019(3) -0.051(4) -0.004(3)
C79 0.054(3) 0.051(3) 0.070(4) -0.038(3) -0.021(3) -0.001(2)
C80 0.037(2) 0.050(3) 0.042(2) -0.022(2) 0.0015(19) -0.017(2)
Cl1 0.0914(11) 0.0878(11) 0.0593(9) -0.0356(8) 0.0317(8) -0.0500(10)
loop_
_atom_type_symbol
_atom_type_description
_atom_type_scat_dispersion_real
_atom_type_scat_dispersion_imag
_atom_type_scat_source
C C 0.0045 0.0022 'International Tables Vol C Tables 4.2.6.8 and 6.1.1.4'
H H 0.0000 0.0000 'International Tables Vol C Tables 4.2.6.8 and 6.1.1.4'
B B 0.0023 0.0009 'International Tables Vol C Tables 4.2.6.8 and 6.1.1.4'
N N 0.0085 0.0045 'International Tables Vol C Tables 4.2.6.8 and 6.1.1.4'
Ni Ni 0.3079 1.4113 'International Tables Vol C Tables 4.2.6.8 and 6.1.1.4'
S S 0.1533 0.1621 'International Tables Vol C Tables 4.2.6.8 and 6.1.1.4'
Cl Cl 0.1813 0.2074 'International Tables Vol C Tables 4.2.6.8 and 6.1.1.4'
F F 0.0232 0.0138 'International Tables Vol C Tables 4.2.6.8 and 6.1.1.4'
loop_
_geom_angle_atom_site_label_1
_geom_angle_atom_site_label_2
_geom_angle_atom_site_label_3
_geom_angle
_geom_angle_site_symmetry_1
_geom_angle_site_symmetry_3
_geom_angle_publ_flag
C50 C1 C8 122.1(3) . . ?
C50 C1 C96 119.7(4) . . ?
C8 C1 C96 117.8(4) . . ?
C50 C1 C95 117.3(5) . . ?
C8 C1 C95 120.5(5) . . ?
C1 C8 N1 128.3(3) . . ?
C1 C8 C9 122.0(3) . . ?
N1 C8 C9 109.7(3) . . ?
C10 C9 C8 108.0(3) . . ?
C10 C9 H9 126.0 . . ?
C8 C9 H9 126.0 . . ?
C9 C10 C11 107.7(3) . . ?
C9 C10 H10 126.2 . . ?
C11 C10 H10 126.2 . . ?
C12 C11 N1 126.8(3) . . ?
C12 C11 C10 123.3(3) . . ?
N1 C11 C10 109.8(3) . . ?
C19 C12 C11 122.1(3) . . ?
C19 C12 C13 118.4(3) . . ?
C11 C12 C13 119.4(3) . . ?
C14 C13 C18 118.8(3) . . ?
C14 C13 C12 120.8(3) . . ?
C18 C13 C12 120.4(3) . . ?
C15 C14 C13 120.5(4) . . ?
C15 C14 H14 119.7 . . ?
C13 C14 H14 119.7 . . ?
C16 C15 C14 120.2(4) . . ?
C16 C15 H15 119.9 . . ?
C14 C15 H15 119.9 . . ?
C15 C16 C17 119.9(4) . . ?
C15 C16 H16 120.0 . . ?
C17 C16 H16 120.0 . . ?
C18 C17 C16 120.5(4) . . ?
C18 C17 H17 119.7 . . ?
C16 C17 H17 119.7 . . ?
C17 C18 C13 120.1(4) . . ?
C17 C18 H18 119.9 . . ?
C13 C18 H18 119.9 . . ?
N3 C19 C12 126.3(4) . . ?
N3 C19 C20 106.5(4) . . ?
C12 C19 C20 126.4(3) . . ?
C12 C19 S1 117.6(3) . . ?
C20 C19 S1 113.4(3) . . ?
C21 C20 C19 108.8(3) . . ?
C21 C20 H20 125.6 . . ?
C19 C20 H20 125.6 . . ?
C20 C21 C22 108.9(3) . . ?
C20 C21 H21 125.5 . . ?
C22 C21 H21 125.5 . . ?
C23 C22 C21 126.2(3) . . ?
C23 C22 N3 127.6(4) . . ?
C21 C22 N3 105.9(4) . . ?
C23 C22 S1 113.3(3) . . ?
C21 C22 S1 116.4(3) . . ?
C36 C23 C22 122.9(3) . . ?
C36 C23 C24 122.8(5) . . ?
C22 C23 C24 114.2(5) . . ?
C36 C23 C35 112.9(7) . . ?
C22 C23 C35 124.1(7) . . ?
C29 C24 C25 117.2(7) . . ?
C29 C24 C23 116.7(7) . . ?
C25 C24 C23 125.2(7) . . ?
C26 C25 C24 121.1(7) . . ?
C26 C25 H25 119.4 . . ?
C24 C25 H25 119.4 . . ?
C25 C26 C27 119.7(7) . . ?
C25 C26 H26 120.1 . . ?
C27 C26 H26 120.1 . . ?
C28 C27 C26 119.5(8) . . ?
C28 C27 H27 120.3 . . ?
C26 C27 H27 120.3 . . ?
C27 C28 C29 120.5(9) . . ?
C27 C28 H28 119.8 . . ?
C29 C28 H28 119.8 . . ?
C24 C29 C28 119.6(8) . . ?
C24 C29 H29 120.2 . . ?
C28 C29 H29 120.2 . . ?
C35 C30 C31 119.3(13) . . ?
C35 C30 H30 120.3 . . ?
C31 C30 H30 120.3 . . ?
C32 C31 C30 121.6(13) . . ?
C32 C31 H31 119.2 . . ?
C30 C31 H31 119.2 . . ?
C31 C32 C33 116.0(13) . . ?
C31 C32 H32 122.0 . . ?
C33 C32 H32 122.0 . . ?
C34 C33 C32 119.8(11) . . ?
C34 C33 H33 120.1 . . ?
C32 C33 H33 120.1 . . ?
C33 C34 C35 125.4(12) . . ?
C33 C34 H34 117.3 . . ?
C35 C34 H34 117.3 . . ?
C34 C35 C30 113.0(14) . . ?
C34 C35 C23 130.4(13) . . ?
C30 C35 C23 115.5(12) . . ?
C23 C36 N2 127.0(3) . . ?
C23 C36 C37 122.8(3) . . ?
N2 C36 C37 110.2(3) . . ?
C38 C37 C36 107.9(3) . . ?
C38 C37 H37 126.0 . . ?
C36 C37 H37 126.0 . . ?
C37 C38 C39 108.1(3) . . ?
C37 C38 H38 125.9 . . ?
C39 C38 H38 125.9 . . ?
C40 C39 N2 127.6(3) . . ?
C40 C39 C38 122.9(3) . . ?
N2 C39 C38 109.3(3) . . ?
C47 C40 C39 122.0(3) . . ?
C47 C40 C41 117.1(3) . . ?
C39 C40 C41 120.7(3) . . ?
C42 C41 C46 119.1(3) . . ?
C42 C41 C40 120.7(3) . . ?
C46 C41 C40 120.1(3) . . ?
C43 C42 C41 120.0(4) . . ?
C43 C42 H42 120.0 . . ?
C41 C42 H42 120.0 . . ?
C44 C43 C42 120.6(4) . . ?
C44 C43 H43 119.7 . . ?
C42 C43 H43 119.7 . . ?
C43 C44 C45 120.0(4) . . ?
C43 C44 H44 120.0 . . ?
C45 C44 H44 120.0 . . ?
C46 C45 C44 120.0(4) . . ?
C46 C45 H45 120.0 . . ?
C44 C45 H45 120.0 . . ?
C45 C46 C41 120.2(3) . . ?
C45 C46 H46 119.9 . . ?
C41 C46 H46 119.9 . . ?
C40 C47 C48 128.4(3) . . ?
C40 C47 N4 125.6(5) . . ?
C48 C47 N4 102.7(5) . . ?
C40 C47 S2 119.4(3) . . ?
C48 C47 S2 111.7(3) . . ?
C49 C48 C47 111.0(3) . . ?
C49 C48 H48 124.5 . . ?
C47 C48 H48 124.5 . . ?
C48 C49 C50 111.5(3) . . ?
C48 C49 H49 124.3 . . ?
C50 C49 H49 124.3 . . ?
C1 C50 C49 129.5(3) . . ?
C1 C50 N4 125.8(5) . . ?
C49 C50 N4 102.3(5) . . ?
C1 C50 S2 117.6(3) . . ?
C49 C50 S2 112.1(3) . . ?
C11 N1 C8 104.8(3) . . ?
C11 N1 Ni1 126.6(2) . . ?
C8 N1 Ni1 127.8(2) . . ?
C36 N2 C39 104.3(3) . . ?
C36 N2 Ni1 125.8(2) . . ?
C39 N2 Ni1 129.8(2) . . ?
C19 N3 C22 108.5(4) . . ?
C19 N3 Ni1 126.8(4) . . ?
C22 N3 Ni1 123.8(4) . . ?
C47 N4 C50 108.1(7) . . ?
C47 N4 Ni1 125.6(6) . . ?
C50 N4 Ni1 124.0(6) . . ?
C22 S1 C19 82.1(3) . . ?
C22 S1 Ni1 117.3(2) . . ?
C19 S1 Ni1 114.2(2) . . ?
C50 S2 C47 88.7(2) . . ?
C50 S2 Ni1 117.14(15) . . ?
C47 S2 Ni1 117.31(15) . . ?
S1 Ni1 N1 94.18(13) . . ?
S1 Ni1 N2 88.03(13) . . ?
N1 Ni1 N2 177.75(13) . . ?
N1 Ni1 S2 88.85(10) . . ?
N2 Ni1 S2 89.11(10) . . ?
N1 Ni1 N3 89.54(17) . . ?
N2 Ni1 N3 92.66(17) . . ?
S2 Ni1 N3 167.74(19) . . ?
S1 Ni1 N4 165.5(4) . . ?
N1 Ni1 N4 90.0(3) . . ?
N2 Ni1 N4 87.7(3) . . ?
C69 B1 C57 114.4(3) . . ?
C69 B1 C51 112.5(3) . . ?
C57 B1 C51 103.6(3) . . ?
C69 B1 C63 101.1(3) . . ?
C57 B1 C63 111.7(3) . . ?
C51 B1 C63 114.0(3) . . ?
C56 C51 C52 113.7(3) . . ?
C56 C51 B1 128.0(3) . . ?
C52 C51 B1 118.3(3) . . ?
F1 C52 C53 116.6(3) . . ?
F1 C52 C51 119.6(3) . . ?
C53 C52 C51 123.8(3) . . ?
F2 C53 C54 119.9(3) . . ?
F2 C53 C52 120.6(4) . . ?
C54 C53 C52 119.5(3) . . ?
F3 C54 C53 120.6(3) . . ?
F3 C54 C55 119.7(4) . . ?
C53 C54 C55 119.7(3) . . ?
F4 C55 C54 120.2(3) . . ?
F4 C55 C56 120.8(3) . . ?
C54 C55 C56 119.0(3) . . ?
F5 C56 C51 121.2(3) . . ?
F5 C56 C55 114.4(3) . . ?
C51 C56 C55 124.4(3) . . ?
C58 C57 C62 113.1(3) . . ?
C58 C57 B1 128.6(3) . . ?
C62 C57 B1 118.3(3) . . ?
F6 C58 C57 121.5(3) . . ?
F6 C58 C59 114.6(3) . . ?
C57 C58 C59 123.9(4) . . ?
F7 C59 C60 120.0(4) . . ?
F7 C59 C58 120.1(4) . . ?
C60 C59 C58 119.9(4) . . ?
F8 C60 C59 121.1(4) . . ?
F8 C60 C61 120.2(4) . . ?
C59 C60 C61 118.8(4) . . ?
F9 C61 C60 120.3(4) . . ?
F9 C61 C62 120.3(4) . . ?
C60 C61 C62 119.3(4) . . ?
F10 C62 C61 116.2(4) . . ?
F10 C62 C57 118.9(3) . . ?
C61 C62 C57 124.8(4) . . ?
C64 C63 C68 112.7(3) . . ?
C64 C63 B1 127.1(3) . . ?
C68 C63 B1 119.9(3) . . ?
F11 C64 C65 114.5(3) . . ?
F11 C64 C63 121.1(3) . . ?
C65 C64 C63 124.4(3) . . ?
F12 C65 C66 119.7(3) . . ?
F12 C65 C64 120.4(3) . . ?
C66 C65 C64 119.9(3) . . ?
F13 C66 C65 120.2(3) . . ?
F13 C66 C67 121.3(3) . . ?
C65 C66 C67 118.5(3) . . ?
F14 C67 C68 120.2(3) . . ?
F14 C67 C66 120.1(3) . . ?
C68 C67 C66 119.7(3) . . ?
F15 C68 C67 115.7(3) . . ?
F15 C68 C63 119.5(3) . . ?
C67 C68 C63 124.8(3) . . ?
C70 C69 C74 112.8(3) . . ?
C70 C69 B1 119.5(3) . . ?
C74 C69 B1 127.3(3) . . ?
F16 C70 C71 115.3(3) . . ?
F16 C70 C69 119.3(3) . . ?
C71 C70 C69 125.4(3) . . ?
F17 C71 C72 120.0(3) . . ?
F17 C71 C70 120.6(3) . . ?
C72 C71 C70 119.3(3) . . ?
F18 C72 C73 120.8(3) . . ?
F18 C72 C71 120.8(3) . . ?
C73 C72 C71 118.4(3) . . ?
F19 C73 C72 119.2(3) . . ?
F19 C73 C74 120.5(3) . . ?
C72 C73 C74 120.3(3) . . ?
F20 C74 C73 115.0(3) . . ?
F20 C74 C69 121.2(3) . . ?
C73 C74 C69 123.9(3) . . ?
C76 C75 C80 120.3(5) . . ?
C76 C75 H75 119.9 . . ?
C80 C75 H75 119.9 . . ?
C77 C76 C75 120.7(6) . . ?
C77 C76 H76 119.6 . . ?
C75 C76 H76 119.6 . . ?
C76 C77 C78 120.7(6) . . ?
C76 C77 H77 119.7 . . ?
C78 C77 H77 119.7 . . ?
C77 C78 C79 120.0(5) . . ?
C77 C78 H78 120.0 . . ?
C79 C78 H78 120.0 . . ?
C80 C79 C78 116.7(5) . . ?
C80 C79 H79 121.6 . . ?
C78 C79 H79 121.6 . . ?
C75 C80 C79 121.7(5) . . ?
C75 C80 Cl1 119.2(4) . . ?
C79 C80 Cl1 119.1(4) . . ?
C85 C87 C89 120.8(8) . . ?
C85 C87 H80 119.6 . . ?
C89 C87 H80 119.6 . . ?
C92 C89 C87 120.0(8) . . ?
C92 C89 H81 120.0 . . ?
C87 C89 H81 120.0 . . ?
C95 C92 C89 120.8(9) . . ?
C95 C92 H82 119.6 . . ?
C89 C92 H82 119.6 . . ?
C85 C93 C95 121.4(11) . . ?
C85 C93 H83 119.3 . . ?
C95 C93 H83 119.3 . . ?
C92 C95 C93 119.2(10) . . ?
C92 C95 C1 124.1(9) . . ?
C93 C95 C1 116.6(9) . . ?
C93 C85 C87 117.8(9) . . ?
C93 C85 H84 121.1 . . ?
C87 C85 H84 121.1 . . ?
C97 C90 C96 121.1(9) . . ?
C97 C90 H85 119.4 . . ?
C96 C90 H85 119.4 . . ?
C94 C91 C88 120.2(8) . . ?
C94 C91 H86 119.9 . . ?
C88 C91 H86 119.9 . . ?
C91 C88 C97 122.1(7) . . ?
C91 C88 H87 119.0 . . ?
C97 C88 H87 119.0 . . ?
C91 C94 C96 120.8(9) . . ?
C91 C94 H88 119.6 . . ?
C96 C94 H88 119.6 . . ?
C94 C96 C90 118.8(9) . . ?
C94 C96 C1 121.3(8) . . ?
C90 C96 C1 119.9(8) . . ?
C88 C97 C90 117.0(7) . . ?
C88 C97 H89 121.5 . . ?
C90 C97 H89 121.5 . . ?
loop_
_geom_bond_atom_site_label_1
_geom_bond_atom_site_label_2
_geom_bond_distance
_geom_bond_site_symmetry_2
_geom_bond_publ_flag
C1 C50 1.381(5) . ?
C1 C8 1.399(5) . ?
C1 C96 1.484(9) . ?
C1 C95 1.493(11) . ?
C8 N1 1.405(4) . ?
C8 C9 1.434(5) . ?
C9 C10 1.344(5) . ?
C9 H9 0.9500 . ?
C10 C11 1.439(5) . ?
C10 H10 0.9500 . ?
C11 C12 1.392(5) . ?
C11 N1 1.401(5) . ?
C12 C19 1.389(5) . ?
C12 C13 1.483(5) . ?
C13 C14 1.389(5) . ?
C13 C18 1.398(5) . ?
C14 C15 1.381(5) . ?
C14 H14 0.9500 . ?
C15 C16 1.377(6) . ?
C15 H15 0.9500 . ?
C16 C17 1.377(6) . ?
C16 H16 0.9500 . ?
C17 C18 1.377(5) . ?
C17 H17 0.9500 . ?
C18 H18 0.9500 . ?
C19 N3 1.379(6) . ?
C19 C20 1.415(5) . ?
C19 S1 1.762(5) . ?
C20 C21 1.350(5) . ?
C20 H20 0.9500 . ?
C21 C22 1.407(6) . ?
C21 H21 0.9500 . ?
C22 C23 1.398(6) . ?
C22 N3 1.408(6) . ?
C22 S1 1.681(5) . ?
C23 C36 1.397(5) . ?
C23 C24 1.493(9) . ?
C23 C35 1.505(16) . ?
C24 C29 1.444(13) . ?
C24 C25 1.364(11) . ?
C25 C26 1.382(10) . ?
C25 H25 0.9500 . ?
C26 C27 1.405(10) . ?
C26 H26 0.9500 . ?
C27 C28 1.352(12) . ?
C27 H27 0.9500 . ?
C28 C29 1.383(13) . ?
C28 H28 0.9500 . ?
C29 H29 0.9500 . ?
C30 C35 1.45(2) . ?
C30 C31 1.393(18) . ?
C30 H30 0.9500 . ?
C31 C32 1.269(18) . ?
C31 H31 0.9500 . ?
C32 C33 1.380(17) . ?
C32 H32 0.9500 . ?
C33 C34 1.387(15) . ?
C33 H33 0.9500 . ?
C34 C35 1.199(19) . ?
C34 H34 0.9500 . ?
C36 N2 1.404(4) . ?
C36 C37 1.431(5) . ?
C37 C38 1.334(6) . ?
C37 H37 0.9500 . ?
C38 C39 1.441(5) . ?
C38 H38 0.9500 . ?
C39 C40 1.392(5) . ?
C39 N2 1.412(5) . ?
C40 C47 1.380(5) . ?
C40 C41 1.491(5) . ?
C41 C42 1.390(5) . ?
C41 C46 1.399(5) . ?
C42 C43 1.383(5) . ?
C42 H42 0.9500 . ?
C43 C44 1.375(6) . ?
C43 H43 0.9500 . ?
C44 C45 1.385(6) . ?
C44 H44 0.9500 . ?
C45 C46 1.383(5) . ?
C45 H45 0.9500 . ?
C46 H46 0.9500 . ?
C47 C48 1.416(5) . ?
C47 N4 1.465(11) . ?
C47 S2 1.708(4) . ?
C48 C49 1.356(5) . ?
C48 H48 0.9500 . ?
C49 C50 1.412(5) . ?
C49 H49 0.9500 . ?
C50 N4 1.474(10) . ?
C50 S2 1.695(4) . ?
N1 Ni1 1.966(3) . ?
N2 Ni1 1.974(3) . ?
N3 Ni1 2.019(5) . ?
N4 Ni1 2.092(11) . ?
S1 Ni1 1.872(3) . ?
S2 Ni1 2.0062(15) . ?
B1 C69 1.643(5) . ?
B1 C57 1.644(5) . ?
B1 C51 1.648(5) . ?
B1 C63 1.659(5) . ?
C51 C56 1.372(5) . ?
C51 C52 1.395(5) . ?
C52 F1 1.345(4) . ?
C52 C53 1.379(5) . ?
C53 F2 1.345(4) . ?
C53 C54 1.364(6) . ?
C54 F3 1.346(4) . ?
C54 C55 1.368(5) . ?
C55 F4 1.337(4) . ?
C55 C56 1.386(5) . ?
C56 F5 1.357(4) . ?
C57 C58 1.382(5) . ?
C57 C62 1.391(5) . ?
C58 F6 1.348(4) . ?
C58 C59 1.384(5) . ?
C59 F7 1.345(5) . ?
C59 C60 1.372(6) . ?
C60 F8 1.344(5) . ?
C60 C61 1.371(7) . ?
C61 F9 1.348(5) . ?
C61 C62 1.374(5) . ?
C62 F10 1.352(5) . ?
C63 C64 1.385(5) . ?
C63 C68 1.386(5) . ?
C64 F11 1.354(4) . ?
C64 C65 1.381(5) . ?
C65 F12 1.344(4) . ?
C65 C66 1.365(5) . ?
C66 F13 1.341(4) . ?
C66 C67 1.375(5) . ?
C67 F14 1.351(4) . ?
C67 C68 1.371(5) . ?
C68 F15 1.356(4) . ?
C69 C70 1.383(5) . ?
C69 C74 1.397(5) . ?
C70 F16 1.353(4) . ?
C70 C71 1.377(5) . ?
C71 F17 1.346(4) . ?
C71 C72 1.376(5) . ?
C72 F18 1.340(4) . ?
C72 C73 1.376(5) . ?
C73 F19 1.344(4) . ?
C73 C74 1.380(5) . ?
C74 F20 1.345(4) . ?
C75 C76 1.365(7) . ?
C75 C80 1.369(7) . ?
C75 H75 0.9500 . ?
C76 C77 1.337(8) . ?
C76 H76 0.9500 . ?
C77 C78 1.384(9) . ?
C77 H77 0.9500 . ?
C78 C79 1.428(9) . ?
C78 H78 0.9500 . ?
C79 C80 1.377(7) . ?
C79 H79 0.9500 . ?
C80 Cl1 1.733(5) . ?
C87 C85 1.388(14) . ?
C87 C89 1.403(13) . ?
C87 H80 0.9500 . ?
C89 C92 1.373(12) . ?
C89 H81 0.9500 . ?
C92 C95 1.357(15) . ?
C92 H82 0.9500 . ?
C93 C85 1.384(15) . ?
C93 C95 1.416(16) . ?
C93 H83 0.9500 . ?
C85 H84 0.9500 . ?
C90 C97 1.402(12) . ?
C90 C96 1.401(12) . ?
C90 H85 0.9500 . ?
C91 C94 1.358(11) . ?
C91 C88 1.374(11) . ?
C91 H86 0.9500 . ?
C88 C97 1.386(11) . ?
C88 H87 0.9500 . ?
C94 C96 1.382(13) . ?
C94 H88 0.9500 . ?
C97 H89 0.9500 . ?
loop_
_geom_torsion_atom_site_label_1
_geom_torsion_atom_site_label_2
_geom_torsion_atom_site_label_3
_geom_torsion_atom_site_label_4
_geom_torsion
_geom_torsion_site_symmetry_1
_geom_torsion_site_symmetry_2
_geom_torsion_site_symmetry_3
_geom_torsion_site_symmetry_4
_geom_torsion_publ_flag
C50 C1 C8 N1 14.6(6) . . . . ?
C96 C1 C8 N1 -157.6(6) . . . . ?
C95 C1 C8 N1 -170.8(7) . . . . ?
C50 C1 C8 C9 -167.9(4) . . . . ?
C96 C1 C8 C9 19.8(7) . . . . ?
C95 C1 C8 C9 6.6(8) . . . . ?
C1 C8 C9 C10 -177.5(4) . . . . ?
N1 C8 C9 C10 0.4(5) . . . . ?
C8 C9 C10 C11 0.5(5) . . . . ?
C9 C10 C11 C12 175.8(4) . . . . ?
C9 C10 C11 N1 -1.3(5) . . . . ?
N1 C11 C12 C19 -5.4(7) . . . . ?
C10 C11 C12 C19 178.0(4) . . . . ?
N1 C11 C12 C13 172.4(4) . . . . ?
C10 C11 C12 C13 -4.2(6) . . . . ?
C19 C12 C13 C14 121.5(4) . . . . ?
C11 C12 C13 C14 -56.4(5) . . . . ?
C19 C12 C13 C18 -58.0(5) . . . . ?
C11 C12 C13 C18 124.1(4) . . . . ?
C18 C13 C14 C15 -1.0(5) . . . . ?
C12 C13 C14 C15 179.5(3) . . . . ?
C13 C14 C15 C16 0.0(6) . . . . ?
C14 C15 C16 C17 1.0(6) . . . . ?
C15 C16 C17 C18 -1.1(6) . . . . ?
C16 C17 C18 C13 0.1(5) . . . . ?
C14 C13 C18 C17 0.9(5) . . . . ?
C12 C13 C18 C17 -179.6(3) . . . . ?
C11 C12 C19 N3 3.3(7) . . . . ?
C13 C12 C19 N3 -174.5(5) . . . . ?
C11 C12 C19 C20 171.7(4) . . . . ?
C13 C12 C19 C20 -6.1(6) . . . . ?
C11 C12 C19 S1 -28.0(5) . . . . ?
C13 C12 C19 S1 154.2(3) . . . . ?
N3 C19 C20 C21 -6.9(5) . . . . ?
C12 C19 C20 C21 -177.2(4) . . . . ?
S1 C19 C20 C21 21.7(5) . . . . ?
C19 C20 C21 C22 -0.1(5) . . . . ?
C20 C21 C22 C23 -178.8(4) . . . . ?
C20 C21 C22 N3 6.9(5) . . . . ?
C20 C21 C22 S1 -23.3(5) . . . . ?
C21 C22 C23 C36 179.7(4) . . . . ?
N3 C22 C23 C36 -7.1(7) . . . . ?
S1 C22 C23 C36 23.6(5) . . . . ?
C21 C22 C23 C24 -3.5(7) . . . . ?
C21 C22 C23 C35 4.1(10) . . . . ?
C36 C23 C24 C29 -86.8(8) . . . . ?
C22 C23 C24 C29 96.5(8) . . . . ?
C36 C23 C24 C25 104.6(8) . . . . ?
C22 C23 C24 C25 -72.1(9) . . . . ?
C29 C24 C25 C26 11.9(12) . . . . ?
C23 C24 C25 C26 -179.5(7) . . . . ?
C24 C25 C26 C27 0.9(12) . . . . ?
C25 C26 C27 C28 -12.4(12) . . . . ?
C26 C27 C28 C29 10.1(14) . . . . ?
C25 C24 C29 C28 -14.2(13) . . . . ?
C23 C24 C29 C28 176.3(8) . . . . ?
C27 C28 C29 C24 3.2(15) . . . . ?
C35 C30 C31 C32 10(2) . . . . ?
C30 C31 C32 C33 8(2) . . . . ?
C31 C32 C33 C34 -13(2) . . . . ?
C32 C33 C34 C35 -2(2) . . . . ?
C33 C34 C35 C30 19(2) . . . . ?
C33 C34 C35 C23 -173.5(12) . . . . ?
C31 C30 C35 C34 -23(2) . . . . ?
C31 C30 C35 C23 167.2(12) . . . . ?
C36 C23 C35 C34 -83.7(17) . . . . ?
C22 C23 C35 C34 92.3(18) . . . . ?
C36 C23 C35 C30 83.3(13) . . . . ?
C22 C23 C35 C30 -100.7(12) . . . . ?
C22 C23 C36 N2 4.9(7) . . . . ?
C24 C23 C36 N2 -171.5(5) . . . . ?
C35 C23 C36 N2 -179.0(7) . . . . ?
C22 C23 C36 C37 -175.9(4) . . . . ?
C24 C23 C36 C37 7.6(7) . . . . ?
C35 C23 C36 C37 0.2(8) . . . . ?
C23 C36 C37 C38 -178.5(4) . . . . ?
N2 C36 C37 C38 0.7(5) . . . . ?
C36 C37 C38 C39 1.9(4) . . . . ?
C37 C38 C39 C40 171.9(4) . . . . ?
C37 C38 C39 N2 -3.9(5) . . . . ?
N2 C39 C40 C47 -4.4(6) . . . . ?
C38 C39 C40 C47 -179.4(4) . . . . ?
N2 C39 C40 C41 171.3(4) . . . . ?
C38 C39 C40 C41 -3.7(6) . . . . ?
C47 C40 C41 C42 117.4(4) . . . . ?
C39 C40 C41 C42 -58.5(5) . . . . ?
C47 C40 C41 C46 -59.4(5) . . . . ?
C39 C40 C41 C46 124.6(4) . . . . ?
C46 C41 C42 C43 -0.4(6) . . . . ?
C40 C41 C42 C43 -177.2(3) . . . . ?
C41 C42 C43 C44 0.1(6) . . . . ?
C42 C43 C44 C45 0.0(6) . . . . ?
C43 C44 C45 C46 0.2(6) . . . . ?
C44 C45 C46 C41 -0.6(6) . . . . ?
C42 C41 C46 C45 0.6(5) . . . . ?
C40 C41 C46 C45 177.5(3) . . . . ?
C39 C40 C47 C48 165.9(4) . . . . ?
C41 C40 C47 C48 -9.9(6) . . . . ?
C39 C40 C47 N4 9.9(10) . . . . ?
C41 C40 C47 N4 -166.0(8) . . . . ?
C39 C40 C47 S2 -22.6(5) . . . . ?
C41 C40 C47 S2 161.5(3) . . . . ?
C40 C47 C48 C49 -172.6(4) . . . . ?
N4 C47 C48 C49 -12.4(7) . . . . ?
S2 C47 C48 C49 15.4(4) . . . . ?
C47 C48 C49 C50 -0.3(5) . . . . ?
C8 C1 C50 C49 -173.8(4) . . . . ?
C96 C1 C50 C49 -1.7(8) . . . . ?
C95 C1 C50 C49 11.5(8) . . . . ?
C8 C1 C50 N4 -14.5(10) . . . . ?
C8 C1 C50 S2 17.5(5) . . . . ?
C48 C49 C50 C1 175.6(4) . . . . ?
C48 C49 C50 N4 12.7(7) . . . . ?
C48 C49 C50 S2 -15.1(4) . . . . ?
C12 C11 N1 C8 -175.5(4) . . . . ?
C10 C11 N1 C8 1.5(4) . . . . ?
C12 C11 N1 Ni1 13.4(6) . . . . ?
C10 C11 N1 Ni1 -169.6(3) . . . . ?
C1 C8 N1 C11 176.5(4) . . . . ?
C9 C8 N1 C11 -1.2(4) . . . . ?
C1 C8 N1 Ni1 -12.5(6) . . . . ?
C9 C8 N1 Ni1 169.8(3) . . . . ?
C23 C36 N2 C39 176.2(4) . . . . ?
C37 C36 N2 C39 -3.1(4) . . . . ?
C23 C36 N2 Ni1 -0.8(6) . . . . ?
C37 C36 N2 Ni1 180.0(3) . . . . ?
C40 C39 N2 C36 -171.4(4) . . . . ?
C38 C39 N2 C36 4.2(4) . . . . ?
C40 C39 N2 Ni1 5.4(6) . . . . ?
C38 C39 N2 Ni1 -179.0(3) . . . . ?
C12 C19 N3 C22 -178.5(4) . . . . ?
C20 C19 N3 C22 11.2(6) . . . . ?
C12 C19 N3 Ni1 -9.1(8) . . . . ?
C20 C19 N3 Ni1 -179.4(4) . . . . ?
C23 C22 N3 C19 174.5(4) . . . . ?
C21 C22 N3 C19 -11.2(6) . . . . ?
C23 C22 N3 Ni1 4.8(8) . . . . ?
C21 C22 N3 Ni1 179.0(4) . . . . ?
C40 C47 N4 C50 -178.9(5) . . . . ?
C48 C47 N4 C50 20.2(10) . . . . ?
C40 C47 N4 Ni1 -15.5(15) . . . . ?
C48 C47 N4 Ni1 -176.4(8) . . . . ?
C1 C50 N4 C47 176.0(5) . . . . ?
C49 C50 N4 C47 -20.3(10) . . . . ?
C1 C50 N4 Ni1 12.2(14) . . . . ?
C49 C50 N4 Ni1 176.0(8) . . . . ?
C23 C22 S1 C19 -172.3(3) . . . . ?
C21 C22 S1 C19 29.1(4) . . . . ?
C23 C22 S1 Ni1 -59.1(4) . . . . ?
C21 C22 S1 Ni1 142.3(3) . . . . ?
C12 C19 S1 C22 168.8(3) . . . . ?
C20 C19 S1 C22 -28.4(3) . . . . ?
C12 C19 S1 Ni1 52.3(4) . . . . ?
C20 C19 S1 Ni1 -144.8(3) . . . . ?
C1 C50 S2 C47 -169.3(3) . . . . ?
C49 C50 S2 C47 20.0(3) . . . . ?
C1 C50 S2 Ni1 -49.1(4) . . . . ?
C49 C50 S2 Ni1 140.3(3) . . . . ?
C40 C47 S2 C50 167.1(4) . . . . ?
C48 C47 S2 C50 -20.1(3) . . . . ?
C40 C47 S2 Ni1 47.0(4) . . . . ?
C48 C47 S2 Ni1 -140.2(3) . . . . ?
C22 S1 Ni1 N1 -129.9(3) . . . . ?
C19 S1 Ni1 N1 -36.3(3) . . . . ?
C22 S1 Ni1 N2 50.6(3) . . . . ?
C19 S1 Ni1 N2 144.2(2) . . . . ?
C22 S1 Ni1 N4 123.6(11) . . . . ?
C19 S1 Ni1 N4 -142.8(12) . . . . ?
C69 B1 C51 C56 -127.8(4) . . . . ?
C57 B1 C51 C56 108.1(4) . . . . ?
C63 B1 C51 C56 -13.5(5) . . . . ?
C69 B1 C51 C52 55.7(4) . . . . ?
C57 B1 C51 C52 -68.4(4) . . . . ?
C63 B1 C51 C52 170.0(3) . . . . ?
C56 C51 C52 F1 -179.3(3) . . . . ?
B1 C51 C52 F1 -2.3(5) . . . . ?
C56 C51 C52 C53 2.4(5) . . . . ?
B1 C51 C52 C53 179.3(3) . . . . ?
F1 C52 C53 F2 -0.7(5) . . . . ?
C51 C52 C53 F2 177.7(3) . . . . ?
F1 C52 C53 C54 -179.3(3) . . . . ?
C51 C52 C53 C54 -0.9(6) . . . . ?
F2 C53 C54 F3 1.8(6) . . . . ?
C52 C53 C54 F3 -179.5(3) . . . . ?
F2 C53 C54 C55 -179.4(3) . . . . ?
C52 C53 C54 C55 -0.8(6) . . . . ?
F3 C54 C55 F4 0.0(5) . . . . ?
C53 C54 C55 F4 -178.8(3) . . . . ?
F3 C54 C55 C56 179.6(3) . . . . ?
C53 C54 C55 C56 0.8(6) . . . . ?
C52 C51 C56 F5 176.7(3) . . . . ?
B1 C51 C56 F5 0.1(5) . . . . ?
C52 C51 C56 C55 -2.4(5) . . . . ?
B1 C51 C56 C55 -179.0(3) . . . . ?
F4 C55 C56 F5 1.3(5) . . . . ?
C54 C55 C56 F5 -178.2(3) . . . . ?
F4 C55 C56 C51 -179.6(3) . . . . ?
C54 C55 C56 C51 0.9(6) . . . . ?
C69 B1 C57 C58 -10.3(5) . . . . ?
C51 B1 C57 C58 112.5(4) . . . . ?
C63 B1 C57 C58 -124.4(4) . . . . ?
C69 B1 C57 C62 171.7(3) . . . . ?
C51 B1 C57 C62 -65.5(4) . . . . ?
C63 B1 C57 C62 57.6(4) . . . . ?
C62 C57 C58 F6 176.4(3) . . . . ?
B1 C57 C58 F6 -1.7(5) . . . . ?
C62 C57 C58 C59 -4.5(5) . . . . ?
B1 C57 C58 C59 177.4(3) . . . . ?
F6 C58 C59 F7 2.6(5) . . . . ?
C57 C58 C59 F7 -176.5(3) . . . . ?
F6 C58 C59 C60 -177.5(3) . . . . ?
C57 C58 C59 C60 3.4(6) . . . . ?
F7 C59 C60 F8 -0.7(6) . . . . ?
C58 C59 C60 F8 179.4(3) . . . . ?
F7 C59 C60 C61 179.4(3) . . . . ?
C58 C59 C60 C61 -0.5(6) . . . . ?
F8 C60 C61 F9 0.5(6) . . . . ?
C59 C60 C61 F9 -179.6(3) . . . . ?
F8 C60 C61 C62 179.3(3) . . . . ?
C59 C60 C61 C62 -0.8(6) . . . . ?
F9 C61 C62 F10 1.3(5) . . . . ?
C60 C61 C62 F10 -177.4(3) . . . . ?
F9 C61 C62 C57 178.1(3) . . . . ?
C60 C61 C62 C57 -0.6(6) . . . . ?
C58 C57 C62 F10 179.9(3) . . . . ?
B1 C57 C62 F10 -1.8(5) . . . . ?
C58 C57 C62 C61 3.1(5) . . . . ?
B1 C57 C62 C61 -178.6(3) . . . . ?
C69 B1 C63 C64 -105.8(4) . . . . ?
C57 B1 C63 C64 16.3(5) . . . . ?
C51 B1 C63 C64 133.3(4) . . . . ?
C69 B1 C63 C68 67.1(4) . . . . ?
C57 B1 C63 C68 -170.8(3) . . . . ?
C51 B1 C63 C68 -53.8(4) . . . . ?
C68 C63 C64 F11 -178.7(3) . . . . ?
B1 C63 C64 F11 -5.4(5) . . . . ?
C68 C63 C64 C65 1.4(5) . . . . ?
B1 C63 C64 C65 174.7(3) . . . . ?
F11 C64 C65 F12 0.1(5) . . . . ?
C63 C64 C65 F12 180.0(3) . . . . ?
F11 C64 C65 C66 -179.6(3) . . . . ?
C63 C64 C65 C66 0.3(6) . . . . ?
F12 C65 C66 F13 -1.1(5) . . . . ?
C64 C65 C66 F13 178.6(3) . . . . ?
F12 C65 C66 C67 179.2(3) . . . . ?
C64 C65 C66 C67 -1.1(5) . . . . ?
F13 C66 C67 F14 0.7(5) . . . . ?
C65 C66 C67 F14 -179.5(3) . . . . ?
F13 C66 C67 C68 -179.6(3) . . . . ?
C65 C66 C67 C68 0.2(5) . . . . ?
F14 C67 C68 F15 1.6(5) . . . . ?
C66 C67 C68 F15 -178.1(3) . . . . ?
F14 C67 C68 C63 -178.5(3) . . . . ?
C66 C67 C68 C63 1.8(6) . . . . ?
C64 C63 C68 F15 177.4(3) . . . . ?
B1 C63 C68 F15 3.5(5) . . . . ?
C64 C63 C68 C67 -2.4(5) . . . . ?
B1 C63 C68 C67 -176.3(3) . . . . ?
C57 B1 C69 C70 -53.1(4) . . . . ?
C51 B1 C69 C70 -171.0(3) . . . . ?
C63 B1 C69 C70 67.0(4) . . . . ?
C57 B1 C69 C74 134.9(3) . . . . ?
C51 B1 C69 C74 17.0(5) . . . . ?
C63 B1 C69 C74 -104.9(4) . . . . ?
C74 C69 C70 F16 176.3(3) . . . . ?
B1 C69 C70 F16 3.2(5) . . . . ?
C74 C69 C70 C71 -2.9(5) . . . . ?
B1 C69 C70 C71 -175.9(3) . . . . ?
F16 C70 C71 F17 0.3(5) . . . . ?
C69 C70 C71 F17 179.4(3) . . . . ?
F16 C70 C71 C72 -177.5(3) . . . . ?
C69 C70 C71 C72 1.7(5) . . . . ?
F17 C71 C72 F18 1.3(5) . . . . ?
C70 C71 C72 F18 179.0(3) . . . . ?
F17 C71 C72 C73 -177.5(3) . . . . ?
C70 C71 C72 C73 0.2(5) . . . . ?
F18 C72 C73 F19 0.3(5) . . . . ?
C71 C72 C73 F19 179.1(3) . . . . ?
F18 C72 C73 C74 -179.5(3) . . . . ?
C71 C72 C73 C74 -0.7(5) . . . . ?
F19 C73 C74 F20 -0.9(5) . . . . ?
C72 C73 C74 F20 178.9(3) . . . . ?
F19 C73 C74 C69 179.5(3) . . . . ?
C72 C73 C74 C69 -0.7(5) . . . . ?
C70 C69 C74 F20 -177.2(3) . . . . ?
B1 C69 C74 F20 -4.8(5) . . . . ?
C70 C69 C74 C73 2.4(5) . . . . ?
B1 C69 C74 C73 174.7(3) . . . . ?
C80 C75 C76 C77 1.1(8) . . . . ?
C75 C76 C77 C78 -1.6(8) . . . . ?
C76 C77 C78 C79 1.0(8) . . . . ?
C77 C78 C79 C80 0.1(7) . . . . ?
C76 C75 C80 C79 0.1(7) . . . . ?
C76 C75 C80 Cl1 -178.9(4) . . . . ?
C78 C79 C80 C75 -0.7(7) . . . . ?
C78 C79 C80 Cl1 178.3(4) . . . . ?
C85 C87 C89 C92 -0.2(13) . . . . ?
C87 C89 C92 C95 -0.6(13) . . . . ?
C89 C92 C95 C93 1.5(15) . . . . ?
C89 C92 C95 C1 -174.9(8) . . . . ?
C85 C93 C95 C92 -1.7(16) . . . . ?
C85 C93 C95 C1 175.0(8) . . . . ?
C50 C1 C95 C92 53.8(11) . . . . ?
C8 C1 C95 C92 -121.0(9) . . . . ?
C50 C1 C95 C93 -122.7(8) . . . . ?
C8 C1 C95 C93 62.5(11) . . . . ?
C95 C93 C85 C87 0.9(14) . . . . ?
C89 C87 C85 C93 0.1(13) . . . . ?
C94 C91 C88 C97 0.2(11) . . . . ?
C88 C91 C94 C96 1.2(12) . . . . ?
C91 C94 C96 C90 -1.1(13) . . . . ?
C91 C94 C96 C1 178.5(7) . . . . ?
C97 C90 C96 C94 -0.3(13) . . . . ?
C97 C90 C96 C1 -180.0(7) . . . . ?
C50 C1 C96 C94 -123.9(7) . . . . ?
C8 C1 C96 C94 48.5(10) . . . . ?
C50 C1 C96 C90 55.7(9) . . . . ?
C8 C1 C96 C90 -131.8(7) . . . . ?
C91 C88 C97 C90 -1.5(11) . . . . ?
C96 C90 C97 C88 1.6(12) . . . . ?
