#------------------------------------------------------------------------------
#$Date: 2022-09-05 05:38:10 +0300 (Mon, 05 Sep 2022) $
#$Revision: 277621 $
#$URL: file:///home/coder/svn-repositories/cod/cif/7/13/06/7130661.cif $
#------------------------------------------------------------------------------
#
# This file is available in the Crystallography Open Database (COD),
# http://www.crystallography.net/
#
# All data on this site have been placed in the public domain by the
# contributors.
#
data_7130661
loop_
_publ_author_name
'Fujita, Masaki'
'Haketa, Yohei'
'Tanaka, Hiroki'
'Yasuda, Nobuhiro'
'Maeda, Hiromitsu'
_publ_section_title
;
 Ion-pairing assemblies of heteroporphyrin-based \p-electronic cation with
 various counteranions.
;
_journal_issue                   71
_journal_name_full               'Chemical communications (Cambridge, England)'
_journal_page_first              9870
_journal_page_last               9873
_journal_paper_doi               10.1039/d2cc02345h
_journal_volume                  58
_journal_year                    2022
_chemical_formula_moiety         'C44 H28 Cl N3 Ni S, C11 H5 B F6 N2 O2, H2 O'
_chemical_formula_sum            'C55 H35 B Cl F6 N5 Ni O3 S'
_chemical_formula_weight         1064.91
_space_group_crystal_system      triclinic
_space_group_IT_number           2
_space_group_name_Hall           '-P 1'
_space_group_name_H-M_alt        'P -1'
_atom_sites_solution_hydrogens   mixed
_audit_creation_method           SHELXL-2014/7
_audit_update_record
;
2022-04-19 deposited with the CCDC.	2022-08-04 downloaded from the CCDC.
;
_cell_angle_alpha                83.126(3)
_cell_angle_beta                 84.024(3)
_cell_angle_gamma                81.561(3)
_cell_formula_units_Z            2
_cell_length_a                   12.3536(4)
_cell_length_b                   13.2407(4)
_cell_length_c                   14.7731(5)
_cell_measurement_reflns_used    18843
_cell_measurement_temperature    90(2)
_cell_measurement_theta_max      29.229
_cell_measurement_theta_min      1.783
_cell_volume                     2363.86(13)
_computing_cell_refinement       'Rapid Auto(Rigaku)'
_computing_data_collection       'Rapid Auto(Rigaku)'
_computing_data_reduction        'Rapid Auto(Rigaku)'
_computing_structure_refinement  'SHELXL2014 (Sheldrick, 2014)'
_computing_structure_solution    'SHELXT (Sheldrick, 2014)'
_diffrn_ambient_temperature      90(2)
_diffrn_detector_area_resol_mean 13.33
_diffrn_measured_fraction_theta_full 0.979
_diffrn_measured_fraction_theta_max 0.979
_diffrn_measurement_device_type  'DECTRIS EIGER X 1M'
_diffrn_measurement_method       'Shutterless \w scans'
_diffrn_radiation_monochromator  'Si(111) Channel Cut'
_diffrn_radiation_type           Synchrotron
_diffrn_radiation_wavelength     0.81063
_diffrn_reflns_av_R_equivalents  0.0476
_diffrn_reflns_av_unetI/netI     0.0606
_diffrn_reflns_Laue_measured_fraction_full 0.979
_diffrn_reflns_Laue_measured_fraction_max 0.979
_diffrn_reflns_limit_h_max       14
_diffrn_reflns_limit_h_min       -14
_diffrn_reflns_limit_k_max       15
_diffrn_reflns_limit_k_min       -12
_diffrn_reflns_limit_l_max       17
_diffrn_reflns_limit_l_min       -17
_diffrn_reflns_number            18843
_diffrn_reflns_point_group_measured_fraction_full 0.979
_diffrn_reflns_point_group_measured_fraction_max 0.979
_diffrn_reflns_theta_full        29.103
_diffrn_reflns_theta_max         29.229
_diffrn_reflns_theta_min         1.783
_diffrn_source                   'synchrotron radiation SPring-8 BL40XU'
_exptl_absorpt_coefficient_mu    0.834
_exptl_absorpt_correction_T_max  1.000
_exptl_absorpt_correction_T_min  0.711
_exptl_crystal_colour            red
_exptl_crystal_density_diffrn    1.496
_exptl_crystal_density_meas      ?
_exptl_crystal_description       prism
_exptl_crystal_F_000             1088
_exptl_crystal_size_max          0.05
_exptl_crystal_size_mid          0.03
_exptl_crystal_size_min          0.03
_refine_diff_density_max         0.515
_refine_diff_density_min         -0.497
_refine_diff_density_rms         0.069
_refine_ls_extinction_method     none
_refine_ls_goodness_of_fit_ref   1.127
_refine_ls_hydrogen_treatment    mixed
_refine_ls_matrix_type           full
_refine_ls_number_parameters     692
_refine_ls_number_reflns         8458
_refine_ls_number_restraints     0
_refine_ls_restrained_S_all      1.127
_refine_ls_R_factor_all          0.0559
_refine_ls_R_factor_gt           0.0519
_refine_ls_shift/su_max          0.000
_refine_ls_shift/su_mean         0.000
_refine_ls_structure_factor_coef Fsqd
_refine_ls_weighting_details
'w=1/[\s^2^(Fo^2^)+4.5542P] where P=(Fo^2^+2Fc^2^)/3'
_refine_ls_weighting_scheme      calc
_refine_ls_wR_factor_gt          0.1183
_refine_ls_wR_factor_ref         0.1206
_reflns_Friedel_coverage         0.000
_reflns_number_gt                7754
_reflns_number_total             8458
_reflns_threshold_expression     'I > 2\s(I)'
_cod_data_source_file            d2cc02345h2.cif
_cod_data_source_block           ydkr_a
_cod_depositor_comments
;
The following automatic conversions were performed:

data item '_exptl_crystal_density_meas' value 'not measured' was
changed to '?' -- the value is perceived as not measured.

Automatic conversion script
Id: cif_fix_values 7556 2019-12-06 15:28:31Z antanas 
;
_cod_database_code               7130661
_shelx_shelxl_version_number     2014/7
_shelx_space_group_comment
;
The symmetry employed for this shelxl refinement is uniquely defined
by the following loop, which should always be used as a source of
symmetry information in preference to the above space-group names.
They are only intended as comments.
;
_shelx_estimated_absorpt_t_min   0.960
_shelx_estimated_absorpt_t_max   0.975
_shelx_res_file
;

    ydkr_a.res created by SHELXL-2014/7

TITL ydkr_a.res in P-1
REM  Yadorkari-X generated
CELL 0.81063 12.3536 13.2407 14.7731 83.1260 84.0240 81.5610
ZERR 2.0 0.0004 0.0004 0.0005 0.0030 0.0030 0.0030
LATT 1
REM  SPGR P-1 triclinic
SFAC C H B Cl F N Ni O S
DISP    C     0.00449    0.00219        15.05
DISP    H     0.00000    0.00000         0.67
DISP    B     0.00225    0.00093         8.15
DISP    Cl    0.18114    0.20713       979.05
DISP    F     0.02312    0.01373        72.99
DISP    N     0.00849    0.00445        26.80
DISP    Ni    0.30818    1.40989      6537.07
DISP    O     0.01461    0.00813        45.35
DISP    S     0.15318    0.16188       768.64s
UNIT 110 70 2 2 12 10 2 6 2
SIZE 0.05 0.03 0.03
TEMP -183.0
L.S. 20
FMAP 2
PLAN -20
ACTA
CONF
LIST 4
BOND $H

WGHT    0.000000    4.554200
FVAR       0.82139   0.79627
C1    1    0.199807    0.490257    0.735263    11.00000    0.01726    0.02398 =
         0.02821   -0.00769   -0.00011    0.00186
AFIX  43
H1    2    0.123193    0.487827    0.747948    11.00000   -1.20000
AFIX   0
C2    1    0.269681    0.455737    0.803472    11.00000    0.02853    0.02611 =
         0.02590   -0.00053   -0.00381    0.00314
AFIX  43
H2    2    0.240912    0.430469    0.862641    11.00000   -1.20000
AFIX   0
C3    1    0.381200    0.458246    0.785033    11.00000    0.02720    0.03221 =
         0.03152   -0.00389   -0.00978    0.00311
AFIX  43
H3    2    0.429116    0.434560    0.831687    11.00000   -1.20000
AFIX   0
C4    1    0.423655    0.495100    0.698898    11.00000    0.01861    0.03822 =
         0.03408   -0.00870   -0.00472   -0.00090
AFIX  43
H4    2    0.500542    0.495822    0.686233    11.00000   -1.20000
AFIX   0
C5    1    0.353502    0.530868    0.631372    11.00000    0.02038    0.03066 =
         0.02327   -0.00563   -0.00174   -0.00360
AFIX  43
H5    2    0.382499    0.557404    0.572698    11.00000   -1.20000
AFIX   0
C6    1    0.240460    0.528341    0.648630    11.00000    0.01810    0.01997 =
         0.02135   -0.00891   -0.00185    0.00253
C7    1    0.162874    0.567203    0.577125    11.00000    0.01577    0.02103 =
         0.02180   -0.00677   -0.00220    0.00048
C8    1    0.189400    0.539578    0.487414    11.00000    0.01152    0.02038 =
         0.01971   -0.00472   -0.00146    0.00251
C9    1    0.277094    0.460503    0.462593    11.00000    0.01264    0.02117 =
         0.02298   -0.00588   -0.00177    0.00512
AFIX  43
H6    2    0.326429    0.420746    0.502501    11.00000   -1.20000
AFIX   0
C10   1    0.276259    0.453374    0.373041    11.00000    0.01051    0.02065 =
         0.02403   -0.00658    0.00183    0.00487
AFIX  43
H7    2    0.324211    0.406890    0.338039    11.00000   -1.20000
AFIX   0
C11   1    0.189380    0.529043    0.339328    11.00000    0.01204    0.01600 =
         0.02335   -0.00624    0.00136    0.00248
C12   1    0.161808    0.542952    0.248585    11.00000    0.01126    0.01656 =
         0.02203   -0.00520    0.00036    0.00303
C13   1    0.227891    0.475284    0.182827    11.00000    0.01819    0.01663 =
         0.02028   -0.00415   -0.00066    0.00599
C14   1    0.337255    0.485717    0.155769    11.00000    0.01987    0.02160 =
         0.02294   -0.00571   -0.00071    0.00097
AFIX  43
H8    2    0.371257    0.534780    0.180618    11.00000   -1.20000
AFIX   0
C15   1    0.396919    0.424921    0.092745    11.00000    0.01797    0.02985 =
         0.02929   -0.00722    0.00542    0.00564
AFIX  43
H9    2    0.471210    0.433370    0.073754    11.00000   -1.20000
AFIX   0
C16   1    0.348951    0.352247    0.057490    11.00000    0.02843    0.02825 =
         0.02147   -0.00984    0.00263    0.01124
AFIX  43
H10   2    0.390041    0.310730    0.014252    11.00000   -1.20000
AFIX   0
C17   1    0.240491    0.339910    0.085336    11.00000    0.02814    0.02185 =
         0.02452   -0.00710   -0.00612    0.00229
AFIX  43
H11   2    0.207741    0.288761    0.062294    11.00000   -1.20000
AFIX   0
C18   1    0.180095    0.402028    0.146590    11.00000    0.01788    0.02410 =
         0.02244   -0.00331   -0.00263    0.00407
AFIX  43
H12   2    0.105236    0.394626    0.164111    11.00000   -1.20000
AFIX   0
C19   1    0.075142    0.611737    0.214567    11.00000    0.01550    0.01801 =
         0.01889   -0.00558    0.00199    0.00030
C20   1    0.048192    0.623691    0.120598    11.00000    0.01928    0.02527 =
         0.01777   -0.00764    0.00175    0.00100
AFIX  43
H13   2    0.086973    0.588765    0.071960    11.00000   -1.20000
AFIX   0
C21   1   -0.042470    0.693852    0.115125    11.00000    0.01741    0.02532 =
         0.01974   -0.00398   -0.00126    0.00365
AFIX  43
H14   2   -0.079290    0.717600    0.061682    11.00000   -1.20000
AFIX   0
C22   1   -0.073130    0.726020    0.204366    11.00000    0.01522    0.02046 =
         0.01942   -0.00199    0.00089    0.00406
C23   1   -0.168998    0.792731    0.228943    11.00000    0.01749    0.01890 =
         0.02503    0.00181    0.00154    0.00818
C24   1   -0.238000    0.839058    0.152506    11.00000    0.01803    0.01879 =
         0.02361   -0.00499    0.00130    0.00901
C25   1   -0.194528    0.899434    0.077342    11.00000    0.02132    0.02412 =
         0.02828   -0.00132   -0.00078    0.00298
AFIX  43
H15   2   -0.121057    0.913606    0.075162    11.00000   -1.20000
AFIX   0
C26   1   -0.257823    0.938685    0.006099    11.00000    0.03082    0.02040 =
         0.02645   -0.00064   -0.00135    0.00436
AFIX  43
H16   2   -0.227096    0.978364   -0.045444    11.00000   -1.20000
AFIX   0
C27   1   -0.365399    0.920536    0.009455    11.00000    0.02751    0.02862 =
         0.02539   -0.01273   -0.00598    0.01360
AFIX  43
H17   2   -0.408916    0.948516   -0.039262    11.00000   -1.20000
AFIX   0
C28   1   -0.409717    0.861682    0.083674    11.00000    0.01886    0.02983 =
         0.03359   -0.01979   -0.00028    0.00479
AFIX  43
H18   2   -0.483927    0.849550    0.086119    11.00000   -1.20000
AFIX   0
C29   1   -0.346184    0.820119    0.154821    11.00000    0.02023    0.02068 =
         0.02190   -0.00800    0.00317    0.00445
AFIX  43
H19   2   -0.376686    0.778633    0.205219    11.00000   -1.20000
AFIX   0
C30   1   -0.206869    0.814756    0.317552    11.00000    0.02441    0.02635 =
         0.02515    0.00051    0.00425    0.01008
C31   1   -0.302390    0.883843    0.342324    11.00000    0.01889    0.02819 =
         0.02133   -0.00685   -0.00258    0.00948
AFIX  43
H20   2   -0.351192    0.922137    0.301198    11.00000   -1.20000
AFIX   0
C32   1   -0.311712    0.885644    0.433385    11.00000    0.01704    0.02753 =
         0.02349   -0.00766   -0.00088    0.00823
AFIX  43
H21   2   -0.368801    0.924639    0.467714    11.00000   -1.20000
AFIX   0
C33   1   -0.221008    0.818806    0.470202    11.00000    0.02231    0.02200 =
         0.02104   -0.01016   -0.00338    0.00867
C34   1   -0.198018    0.808377    0.562640    11.00000    0.01889    0.01665 =
         0.01889   -0.00607    0.00152    0.00077
C35   1   -0.268036    0.874933    0.626478    11.00000    0.01603    0.02171 =
         0.02327   -0.00787   -0.00185    0.00536
C36   1   -0.322146    0.831230    0.705107    11.00000    0.02696    0.02490 =
         0.02810   -0.00848    0.00275    0.00104
AFIX  43
H22   2   -0.312477    0.758752    0.719270    11.00000   -1.20000
AFIX   0
C37   1   -0.390352    0.892716    0.763254    11.00000    0.02940    0.04018 =
         0.02651   -0.01201    0.00635   -0.00224
AFIX  43
H23   2   -0.427597    0.862076    0.816715    11.00000   -1.20000
AFIX   0
C38   1   -0.404231    0.997272    0.743968    11.00000    0.02603    0.03578 =
         0.02757   -0.01682   -0.00006    0.01097
AFIX  43
H24   2   -0.451839    1.038917    0.783564    11.00000   -1.20000
AFIX   0
C39   1   -0.349116    1.042304    0.667024    11.00000    0.04688    0.02868 =
         0.03125   -0.01007   -0.00047    0.00886
AFIX  43
H25   2   -0.358043    1.114914    0.653997    11.00000   -1.20000
AFIX   0
C40   1   -0.280679    0.981157    0.608822    11.00000    0.03457    0.02815 =
         0.02651   -0.00810    0.00353    0.00178
AFIX  43
H26   2   -0.242071    1.012287    0.556350    11.00000   -1.20000
AFIX   0
C41   1   -0.108492    0.744640    0.597116    11.00000    0.01619    0.01605 =
         0.02191   -0.00361    0.00166    0.00069
C42   1   -0.055881    0.751105    0.675963    11.00000    0.02085    0.02288 =
         0.01904   -0.01013    0.00276    0.00188
AFIX  43
H27   2   -0.084999    0.794789    0.721706    11.00000   -1.20000
AFIX   0
C43   1    0.041741    0.687541    0.679370    11.00000    0.02022    0.02368 =
         0.01861   -0.00332   -0.00250    0.00237
AFIX  43
H28   2    0.087958    0.682739    0.727671    11.00000   -1.20000
AFIX   0
C44   1    0.066660    0.630026    0.604018    11.00000    0.01533    0.02800 =
         0.02042   -0.00658    0.00013   -0.00019
N1    6    0.136822    0.580450    0.410234    11.00000    0.01475    0.01887 =
         0.01913   -0.00783   -0.00026    0.00537
N2    6    0.000454    0.676186    0.264167    11.00000    0.01258    0.01996 =
         0.02089   -0.00453    0.00342    0.00601
PART 1
N3    6   -0.153172    0.779295    0.397491    21.00000    0.01399    0.01688 =
         0.01702   -0.00714   -0.00127    0.00510
S2    9   -0.044255    0.642887    0.542645    21.00000    0.01188    0.01605 =
         0.01564   -0.00464    0.00063    0.00488
CL1   4    0.092083    0.829651    0.422780    21.00000    0.02092    0.01756 =
         0.02818   -0.00829    0.00313   -0.00096
PART 2
N4    6   -0.020600    0.684931    0.533246   -21.00000    0.02525    0.01663 =
         0.05981    0.00687    0.01317   -0.00549
S1    9   -0.176997    0.721945    0.400743   -21.00000    0.01958    0.02307 =
         0.01824   -0.00700    0.00138    0.00843
CL2   4    0.051366    0.849904    0.387617   -21.00000    0.14405    0.07757 =
         0.09258   -0.03278    0.05851   -0.04571
PART 0
NI1   7    0.004613    0.694557    0.394497    11.00000    0.01357    0.01945 =
         0.01761   -0.00743    0.00118    0.00388
C45   1    0.667212    0.188143    0.427697    11.00000    0.05238    0.03318 =
         0.03719   -0.00105    0.01140    0.01127
AFIX  43
H29   2    0.674021    0.173884    0.491577    11.00000   -1.20000
AFIX   0
C46   1    0.577629    0.239042    0.387983    11.00000    0.03390    0.03445 =
         0.04106   -0.00573    0.01356    0.00838
C47   1    0.600789    0.244002    0.294137    11.00000    0.03211    0.02396 =
         0.02945   -0.00546    0.00751   -0.00124
C48   1    0.707337    0.194750    0.277198    11.00000    0.02969    0.02687 =
         0.03151   -0.00836    0.00556    0.00039
C49   1    0.773788    0.178365    0.193519    11.00000    0.02101    0.02172 =
         0.03873   -0.01084    0.00561    0.00184
C50   1    0.739385    0.212887    0.108580    11.00000    0.02059    0.02653 =
         0.03390   -0.01208    0.00444    0.00168
AFIX  43
H30   2    0.672301    0.257434    0.102377    11.00000   -1.20000
AFIX   0
C51   1    0.804242    0.181619    0.031963    11.00000    0.01913    0.02461 =
         0.04231   -0.01391    0.00484   -0.00290
C52   1    0.769231    0.201208   -0.057674    11.00000    0.02221    0.02780 =
         0.03325   -0.01456    0.00601   -0.00372
C53   1    0.674162    0.252904   -0.091830    11.00000    0.01808    0.02553 =
         0.04046   -0.01399    0.00806    0.00027
C54   1    0.680550    0.244259   -0.184347    11.00000    0.02376    0.03181 =
         0.03248   -0.01034    0.00025   -0.00049
C55   1    0.779585    0.186856   -0.207951    11.00000    0.02838    0.03636 =
         0.03031   -0.01478    0.00126   -0.00388
AFIX  43
H31   2    0.806095    0.168239   -0.267204    11.00000   -1.20000
AFIX   0
N5    6    0.744670    0.161470    0.360473    11.00000    0.03435    0.03440 =
         0.03793   -0.00409    0.00580    0.00803
AFIX  43
H32   2    0.810101    0.127374    0.369190    11.00000   -1.20000
AFIX   0
N6    6    0.831558    0.162206   -0.131184    11.00000    0.01981    0.03304 =
         0.03486   -0.01636    0.00635   -0.00174
AFIX  43
H33   2    0.896964    0.125833   -0.128432    11.00000   -1.20000
AFIX   0
O1    8    0.871149    0.125175    0.203893    11.00000    0.02687    0.03460 =
         0.03584   -0.01261    0.00185    0.00411
O2    8    0.901985    0.128582    0.037972    11.00000    0.02103    0.03596 =
         0.03262   -0.01640    0.00408    0.00231
B1    3    0.954923    0.118113    0.124641    11.00000    0.02592    0.03774 =
         0.03571   -0.01825    0.00230    0.00240
F1    5    1.019256    0.195197    0.121659    11.00000    0.03707    0.06207 =
         0.03653   -0.02057    0.00340   -0.01754
F2    5    1.016123    0.022858    0.134374    11.00000    0.03437    0.05635 =
         0.04133   -0.02211   -0.00722    0.01703
F3    5    0.483501    0.280616    0.431514    11.00000    0.04239    0.05293 =
         0.04332   -0.00524    0.01960    0.01489
F4    5    0.534995    0.290711    0.231846    11.00000    0.02660    0.04640 =
         0.03836   -0.01090    0.00156    0.00275
F5    5    0.590027    0.304118   -0.043471    11.00000    0.02205    0.03981 =
         0.04117   -0.01753    0.00619    0.00692
F6    5    0.603818    0.285418   -0.241161    11.00000    0.03208    0.04727 =
         0.04226   -0.01407   -0.00669    0.00775
O3    8    0.929810    0.042627    0.411122    11.00000    0.06767    0.05507 =
         0.06969   -0.02202   -0.02661    0.02196
H101  2    0.978267   -0.026788    0.405893    11.00000   -1.20000
H104  2    0.951824    0.075738    0.470730    11.00000   -1.20000

HKLF 4 1 1 0 0 0 1 0 0 0 1

REM  ydkr_a.res in P-1
REM R1 =  0.0519 for    7754 Fo > 4sig(Fo)  and  0.0559 for all    8458 data
REM    692 parameters refined using      0 restraints

END

WGHT      0.0000      4.5542

REM Highest difference peak  0.515,  deepest hole -0.497,  1-sigma level  0.069
Q1    1  -0.0520  0.7341  0.4283  11.00000  0.05    0.52
Q2    1   0.0623  0.6587  0.3583  11.00000  0.05    0.49
Q3    1   0.0347  0.8625  0.4661  11.00000  0.05    0.39
Q4    1   0.0811  0.6333  0.1596  11.00000  0.05    0.38
Q5    1  -0.0863  0.6895  0.5761  11.00000  0.05    0.36
Q6    1   0.0819  0.6168  0.4352  11.00000  0.05    0.35
Q7    1  -0.2386  0.7776  0.2932  11.00000  0.05    0.35
Q8    1   0.0061  0.5653  0.4538  11.00000  0.05    0.35
Q9    1  -0.3797  0.8604  0.6394  11.00000  0.05    0.34
Q10   1  -0.2565  0.8681  0.4510  11.00000  0.05    0.33
Q11   1   0.0032  0.7783  0.3825  11.00000  0.05    0.32
Q12   1   1.0568  0.1015  0.1536  11.00000  0.05    0.31
Q13   1  -0.2036  0.8227  0.1911  11.00000  0.05    0.31
Q14   1  -0.0229  0.7295  0.3021  11.00000  0.05    0.31
Q15   1   0.1212  0.6075  0.5876  11.00000  0.05    0.30
Q16   1  -0.0172  0.6562  0.3112  11.00000  0.05    0.30
Q17   1   0.0205  0.6822  0.4857  11.00000  0.05    0.30
Q18   1   0.2008  0.5222  0.2052  11.00000  0.05    0.29
Q19   1   0.0331  0.7974  0.2935  11.00000  0.05    0.29
Q20   1   0.0519  0.6573  0.2342  11.00000  0.05    0.29
;
_shelx_res_checksum              95556
_shelx_hkl_file
;
   0   0   2  353.64    9.68
   0   0   2  331.17   13.57
   0   0   2  306.86    9.87
   0   0  -2  351.99   11.76
   0   0   3   37.07    2.86
   0   0   3   33.63    4.10
   0   0   3   26.21    2.04
   0   0  -3   33.30    2.51
   0   0  -3   29.38    4.06
   0   0   5 7210.51  456.94
   0   0   7  290.03   20.38
   0   0   7  293.08   12.97
   0   0   8  125.13   10.12
   0   0   8  126.94    6.06
   0   0  -8  128.30    8.70
   0   0   9    5.50    3.94
   0   0   9    3.32    1.32
   0   0  -9    7.79    2.56
   0   0  10  395.92   27.67
   0   0  10  392.66   16.11
   0   0 -10  399.34   21.96
   0   0  11  998.67   59.38
   0   0  11  942.03   42.23
   0   0 -11 1008.00   55.82
   0   0  12   97.98   10.81
   0   0 -12   62.17    7.69
   0   0  13  106.45   13.15
   0   0 -13   73.45    9.07
   0   0  14  296.25   26.31
   0   0 -14  249.90   20.86
   0   0  15  603.90   46.91
   0   0 -15  489.43   35.04
   0   0  16   56.10   10.42
   0   0 -16   23.67    5.52
   0   0  17   27.84   11.08
   0  -1  17   44.42   12.34
   0   1 -16    3.94    4.59
   0  -1  16   11.05    7.38
   0   1 -15   77.36    9.53
   0  -1  15   79.09   14.17
   0   1 -14  920.31   59.85
   0  -1  14 1031.86   75.10
   0   1 -13  971.54   60.21
   0  -1  13 1010.73   71.36
   0   1 -12 1008.75   59.45
   0  -1  12  999.67   68.30
   0   1 -11  123.27    5.59
   0   1 -11  176.65   12.63
   0  -1  11  166.91   13.24
   0   1 -10   12.09    1.35
   0   1 -10   18.09    4.10
   0  -1  10   20.36    4.41
   0   1  -9  786.10   30.58
   0   1  -9  792.77   40.96
   0  -1   9  814.25   44.62
   0  -1   9  797.97   29.94
   0   1  -8  376.47   13.98
   0   1  -8  411.51   20.32
   0  -1   8  376.53   21.66
   0  -1   8  358.57   12.73
   0   1  -7 4440.53  230.86
   0   1  -7 4161.74  244.30
   0  -1   7 3976.16  207.20
   0  -1   7 4186.25  256.00
   0   1  -6 1476.94   69.45
   0  -1   6 1675.18   87.10
   0  -1   6 1418.45   53.66
   0   1  -5   79.85    5.93
   0  -1   5   72.45    5.53
   0  -1   4  786.09   29.94
   0  -1   4  671.75   20.71
   0  -1   4  658.51   32.31
   0   1  -3  571.65   16.00
   0   1  -3  528.38   21.92
   0  -1   3  564.28   26.51
   0  -1   3  612.62   23.17
   0  -1   3  554.39   15.23
   0   1  -2   14.98    2.38
   0   1  -2   10.81    2.70
   0  -1   2   11.61    2.92
   0  -1   2   12.41    2.61
   0   1  -1 1064.15   35.57
   0   1  -1 1043.03   38.57
   0  -1   1 1066.57   37.97
   0   1   0  383.88   11.36
   0   1   0  378.04   10.61
   0   1   0  373.06    9.06
   0  -1   0  368.99    8.44
   0  -1   0  371.64   10.24
   0  -1   0  385.28   10.36
   0   1   3 1425.04   54.30
   0   1   3 1195.25   54.71
   0   1   3 1254.02   52.28
   0  -1  -3 1298.40   51.95
   0   1   4 1378.94   56.60
   0   1   4 1341.74   57.50
   0   1   4 1330.60   62.47
   0  -1  -4 1348.94   54.46
   0  -1  -4 1403.17   59.52
   0   1   5   27.72    5.27
   0   1   5   28.39    3.19
   0   1   5   25.59    2.61
   0  -1  -5   34.06    3.32
   0   1   6 3087.63  176.01
   0   1   6 3017.64  155.83
   0  -1  -6 3493.71  179.36
   0   1   7  137.37    8.19
   0   1   7  136.21   12.89
   0  -1  -7  156.07    8.73
   0   1   8  626.81   27.71
   0   1   8  680.64   39.02
   0  -1  -8  692.09   31.48
   0   1   9   31.52    5.15
   0   1   9   39.49    3.02
   0  -1  -9   31.19    3.92
   0   1  10   54.87    4.53
   0   1  10   70.63    8.20
   0  -1 -10   46.21    6.08
   0   1  11   55.77    9.57
   0   1  11   53.08    4.56
   0  -1 -11   54.71    6.64
   0   1  12  628.80   40.85
   0  -1 -12  591.09   34.85
   0   1  13  331.87   28.83
   0  -1 -13  267.93   19.68
   0   1  14    0.19    3.96
   0  -1 -14    3.99    3.22
   0   1  15    4.85    7.09
   0  -1 -15    8.67    3.79
   0   1  16  385.35   38.79
   0   1  17   92.86   14.11
   0  -2  17    2.26    5.02
   0   2 -16    1.09    4.29
   0  -2  16   -5.72    4.62
   0   2 -15  230.91   20.94
   0  -2  15  336.58   29.17
   0   2 -14    9.10    4.10
   0  -2  14   -7.83    6.20
   0   2 -13   49.20    8.41
   0  -2  13   67.14   10.50
   0   2 -12  172.03   14.79
   0  -2  12  162.66   15.39
   0   2 -11 4615.94  303.82
   0  -2  11 4645.42  323.14
   0   2 -10  385.25   23.00
   0  -2  10  405.00   25.98
   0   2  -9  233.72   15.04
   0  -2   9  255.35   18.71
   0   2  -8 1912.41  100.40
   0  -2   8 1933.60  108.79
   0   2  -7 3208.30  180.25
   0  -2   7 3462.86  204.30
   0   2  -5  569.41   25.87
   0  -2   5  566.50   29.24
   0  -2   4  320.40   14.81
   0  -2   3 3684.76  192.03
   0   2  -2  114.33    4.31
   0   2  -2  111.74    7.01
   0  -2   2  109.49    6.43
   0  -2   2  127.83    7.23
   0  -2   2  113.28    3.35
   0   2  -1  872.43   34.51
   0  -2   1  884.40   29.62
   0  -2   1  931.00   37.67
   0  -2   1  880.50   29.80
   0   2   1  388.30   14.93
   0   2   1  378.70   16.45
   0  -2  -1  358.70   11.01
   0  -2  -1  398.70   14.28
   0   2   2  318.11   14.12
   0   2   2  375.48   14.51
   0  -2  -2  325.34   12.80
   0  -2  -2  316.48   11.71
   0   2   3 3735.61  187.96
   0  -2  -3 3970.53  204.36
   0   2   4  548.13   24.04
   0   2   4  682.01   26.84
   0  -2  -4  657.03   26.76
   0   2   5  307.26   15.50
   0   2   5  280.17   12.02
   0  -2  -5  364.42   14.98
   0   2   6  362.31   18.17
   0  -2  -6  411.85   18.68
   0   2   7 1382.80   68.41
   0  -2  -7 1693.47   80.78
   0   2   8  323.77   16.83
   0  -2  -8  342.53   18.27
   0   2   9    8.66    2.85
   0  -2  -9    6.07    2.55
   0   2  10 1302.96   66.34
   0  -2 -10 1390.72   72.26
   0   2  11  367.40   19.65
   0  -2 -11  350.04   20.74
   0   2  12  140.56    9.30
   0  -2 -12  140.24   12.34
   0  -2 -13   57.27    6.66
   0   2  14 1858.58  126.90
   0  -2 -14 1465.73   90.37
   0   2  15  168.10   19.09
   0  -2 -15  106.83   10.26
   0   2  16  192.52   23.16
   0   2  17   51.49   13.41
   0   3 -16    1.97    4.99
   0  -3  16    6.09    6.54
   0   3 -15  137.06   16.30
   0  -3  15  196.02   23.35
   0   3 -14  896.87   62.98
   0  -3  14  938.54   68.46
   0   3 -13  666.75   44.67
   0  -3  13  683.40   48.32
   0   3 -12  294.68   22.85
   0  -3  12  325.45   27.66
   0   3 -11    7.09    4.43
   0  -3  11   10.97    5.70
   0   3 -10   96.18    8.95
   0  -3  10  145.20   12.69
   0   3  -9   16.06    4.22
   0  -3   9   16.19    4.11
   0   3  -8 1408.82   73.45
   0  -3   8 1448.87   81.37
   0   3  -7  122.17    9.16
   0  -3   7  120.47   11.46
   0   3  -6   40.10    4.65
   0  -3   6   48.12    6.61
   0  -3   5  106.83    9.55
   0  -3   4  611.03   28.09
   0   3  -3 4293.47  228.32
   0   3  -3 3848.75  217.72
   0  -3   3 4053.91  217.02
   0   3  -2 3114.54  149.40
   0   3  -2 2854.27  145.31
   0  -3   2 2894.46  131.89
   0   3  -1  261.43   15.92
   0   3  -1  253.18    9.75
   0   3  -1  277.62    9.52
   0  -3   1  286.58   11.96
   0  -3   1  266.02    9.44
   0  -3   1  273.65    9.40
   0   3   1  500.89   20.36
   0   3   1  505.79   17.83
   0   3   1  497.35   23.90
   0  -3  -1  452.13   14.45
   0  -3  -1  510.43   21.12
   0   3   2  708.37   30.90
   0   3   2  679.77   32.60
   0   3   2  805.79   33.77
   0  -3  -2  715.79   25.98
   0  -3  -2  688.78   25.81
   0   3   3   85.07    8.49
   0   3   3   83.51    6.23
   0   3   3   97.10    5.97
   0  -3  -3   90.11    7.01
   0  -3  -3   89.73    4.96
   0   3   4 1963.02   89.04
   0   3   4 1943.50   94.06
   0   3   4 1996.43   99.59
   0  -3  -4 2069.30   94.83
   0   3   5  411.36   17.74
   0   3   5  359.12   20.21
   0  -3  -5  384.22   16.77
   0   3   7  469.78   25.15
   0  -3  -7  510.13   24.49
   0   3   8  137.73   10.25
   0  -3  -8  153.19    9.33
   0   3   9  914.08   47.43
   0  -3  -9 1024.71   49.34
   0   3  10 1439.09   76.02
   0  -3 -10 1472.02   74.68
   0   3  11 1024.39   54.98
   0  -3 -11  943.42   50.52
   0   3  12  330.28   20.48
   0  -3 -12  312.10   19.56
   0   3  13  840.17   46.29
   0  -3 -13  678.42   38.33
   0  -3 -14 1513.41   86.21
   0  -3 -15 1330.28   79.05
   0   4 -16   25.21    7.98
   0  -4  16   30.16   10.35
   0   4 -15  136.61   16.74
   0  -4  15  174.81   20.46
   0   4 -14  149.97   17.26
   0  -4  14  171.79   19.41
   0   4 -13   63.55   10.65
   0  -4  13   74.32   12.06
   0   4 -12   55.54    8.03
   0  -4  12   55.13    8.36
   0   4 -11 1111.70   67.51
   0  -4  11 1142.76   74.90
   0   4 -10 1300.64   76.45
   0  -4  10 1326.75   84.28
   0   4  -9  561.62   32.14
   0  -4   9  555.41   35.12
   0   4  -8  204.00   13.63
   0  -4   8  195.64   15.16
   0   4  -7  985.08   49.77
   0  -4   7  981.91   52.73
   0   4  -6  558.13   30.02
   0  -4   6  586.80   30.92
   0  -4   5  928.67   45.18
   0   4  -4  701.05   22.48
   0  -4   4  801.88   25.81
   0  -4   4  838.14   37.56
   0   4  -3  539.08   26.98
   0   4  -3  532.91   18.63
   0  -4   3  522.95   23.10
   0  -4   3  583.40   19.52
   0   4  -2  882.94   33.80
   0   4  -2  952.82   43.31
   0   4  -2 1037.20   39.59
   0  -4   2 1013.20   39.99
   0  -4   2 1050.56   39.04
   0   4  -1 2230.01  111.81
   0   4  -1 2462.54  109.30
   0   4  -1 2182.25  103.72
   0  -4   1 2266.19  100.46
   0  -4   1 2391.75  109.55
   0   4   0  956.98   45.83
   0   4   0 1059.93   38.34
   0  -4   0  938.51   32.78
   0   4   1  586.83   27.96
   0   4   1  595.06   20.36
   0  -4  -1  563.72   19.36
   0   4   3 3611.43  193.51
   0   4   3 3300.93  185.44
   0  -4  -3 3447.81  176.11
   0   4   4 1860.04   97.33
   0   4   4 1850.80   88.36
   0  -4  -4 1986.05   95.47
   0   4   5  139.58   11.70
   0   4   5  147.20   10.45
   0  -4  -5  155.73    9.51
   0   4   6  377.33   20.89
   0   4   6  376.61   21.78
   0  -4  -6  424.11   19.75
   0   4   7  716.14   38.83
   0   4   7  738.39   39.23
   0  -4  -7  788.03   35.71
   0   4   8 1979.01  109.34
   0   4   8 1952.85  111.20
   0  -4  -8 1973.80  100.27
   0   4   9   67.67    8.33
   0   4   9   73.76    7.11
   0  -4  -9   58.44    5.14
   0   4  10   23.41    5.00
   0   4  10   20.40    5.32
   0  -4 -10    9.31    3.23
   0   4  11  513.61   36.03
   0   4  11  536.64   32.80
   0  -4 -11  505.44   27.26
   0   4  12 1053.08   60.19
   0   4  12 1029.21   62.38
   0  -4 -12  844.02   46.52
   0   4  13   39.20    6.76
   0   4  13   40.90    9.73
   0  -4 -13   40.43    4.44
   0   4  14  168.29   18.57
   0  -4 -14  129.62   10.88
   0   4  15  134.59   18.02
   0   4  16  110.03   17.38
   0   4  17  108.64   14.02
   0   5 -16   27.76    9.72
   0  -5  16   67.46   14.02
   0   5 -15    8.26    5.88
   0  -5  15    6.32    7.20
   0   5 -14  238.80   23.55
   0  -5  14  238.90   23.44
   0   5 -13  101.59   12.52
   0  -5  13  105.69   14.49
   0   5 -12  159.91   14.80
   0  -5  12  135.14   16.75
   0   5 -11  169.27   16.03
   0  -5  11  164.39   16.72
   0   5 -10   22.79    5.78
   0  -5  10   20.06    6.38
   0   5  -9  151.42   12.99
   0  -5   9  131.74   12.81
   0   5  -8  180.09   14.44
   0  -5   8  185.50   14.53
   0   5  -7   21.85    4.52
   0  -5   7   30.00    5.07
   0   5  -6  363.33   21.44
   0  -5   6  348.95   18.81
   0  -5   5 3435.75  158.70
   0  -5   5 3398.13  190.09
   0   5  -4  635.15   22.79
   0  -5   4  649.69   22.58
   0  -5   4  628.21   29.30
   0   5  -3   50.77    3.22
   0   5  -3   66.50    8.05
   0  -5   3   54.06    4.20
   0  -5   3   55.13    3.50
   0   5  -2  204.79    8.76
   0   5  -2  185.82    8.61
   0   5  -2  199.50   15.11
   0  -5   2  191.02    8.22
   0   5  -1  204.27    7.73
   0   5  -1  189.33   13.51
   0   5  -1  188.10    9.51
   0  -5   1  199.58    7.99
   0   5   0  878.95   40.85
   0   5   0  911.71   41.45
   0   5   0  979.97   35.92
   0  -5   0  815.47   29.29
   0   5   1   11.43    5.04
   0   5   1   11.92    1.23
   0   5   2 1572.25   78.53
   0  -5  -2 1609.69   66.30
   0  -5  -2 1500.45   62.60
   0   5   4   75.08    8.35
   0   5   4   83.63    6.08
   0  -5  -4   53.80    4.86
   0   5   5    7.61    2.19
   0   5   5    8.30    3.63
   0  -5  -5    3.02    2.12
   0   5   6 1642.26   82.67
   0   5   6 1643.04   86.34
   0  -5  -6 1746.69   85.38
   0   5   7 5549.41  376.46
   0   5   7 5286.48  350.48
   0  -5  -7 5755.53  364.81
   0   5   8 2315.70  134.40
   0   5   8 2398.98  142.44
   0  -5  -8 2460.78  130.77
   0   5   9  530.77   32.17
   0   5   9  516.34   28.49
   0  -5  -9  518.55   26.02
   0   5  10  258.84   20.40
   0   5  10  270.57   19.60
   0  -5 -10  256.55   14.86
   0   5  11  109.27   11.43
   0   5  11  130.49   11.84
   0  -5 -11   72.36    6.97
   0   5  12    3.24    3.85
   0   5  12    9.69    4.39
   0  -5 -12   -0.35    2.18
   0   5  13  279.66   20.98
   0   5  13  249.23   22.79
   0  -5 -13  191.09   13.33
   0   5  14  504.08   32.71
   0   5  14  520.88   41.02
   0  -5 -14  356.47   23.08
   0   5  15  168.00   20.96
   0   5  16   55.66   12.64
   0   5  17   -5.09    7.19
   0   6 -15   26.83    8.81
   0  -6  15   25.61    7.78
   0   6 -14  293.55   28.22
   0  -6  14  298.19   30.46
   0   6 -13  132.27   15.41
   0  -6  13  130.04   16.42
   0   6 -12  350.38   29.40
   0  -6  12  371.49   33.40
   0   6 -11  128.17   14.21
   0  -6  11  137.79   14.09
   0   6 -10  758.34   48.27
   0  -6  10  781.02   48.54
   0   6  -9  396.96   27.29
   0  -6   9  405.06   27.75
   0   6  -8  602.60   36.42
   0  -6   8  593.18   37.11
   0   6  -7  218.43   16.43
   0  -6   7  206.24   14.09
   0   6  -6  145.47    4.21
   0  -6   6  170.99   11.44
   0   6  -5   37.02    2.09
   0  -6   5   52.84    2.41
   0  -6   5   51.23    4.59
   0   6  -4  294.17   20.15
   0   6  -4  292.16   11.88
   0  -6   4  303.55   14.17
   0  -6   4  316.38   11.73
   0   6  -3 1331.21   57.57
   0   6  -3 1394.61   70.04
   0  -6   3 1373.05   60.27
   0   6  -2  292.00   13.92
   0   6  -2  299.30   20.16
   0  -6   2  278.48   11.60
   0   6  -1   52.04    5.57
   0   6  -1   51.90    4.74
   0   6  -1   41.69    2.88
   0  -6   1   36.57    3.49
   0   6   0 5905.32  381.06
   0   6   0 5804.90  384.58
   0  -6   0 6117.15  359.91
   0   6   1 2290.50  123.60
   0   6   1 2108.20  116.25
   0  -6  -1 2254.39  101.45
   0   6   2   39.90    6.29
   0  -6  -2   30.81    2.48
   0  -6  -2   29.74    2.16
   0   6   3 2845.16  166.54
   0   6   3 2890.21  161.03
   0  -6  -3 2754.96  137.68
   0   6   4   87.83    8.05
   0   6   4  108.46    9.70
   0  -6  -4   71.34    5.00
   0   6   5  721.58   35.90
   0   6   5  681.66   39.12
   0  -6  -5  672.06   29.72
   0   6   6  205.37   12.34
   0   6   6  199.63   15.52
   0  -6  -6  208.61   12.06
   0   6   7 3471.91  191.97
   0  -6  -7 2019.98  113.14
   0   6   8  704.85   39.41
   0   6   8  754.17   44.79
   0  -6  -8  701.30   36.40
   0   6   9  181.46   14.21
   0   6   9  201.62   17.83
   0  -6  -9  180.27   12.12
   0   6  10  149.10   13.61
   0   6  10  153.09   14.74
   0  -6 -10  127.78    9.20
   0   6  11  215.43   18.34
   0   6  11  251.93   20.98
   0  -6 -11  185.90   13.01
   0   6  12   24.87    7.36
   0   6  12   27.98    7.15
   0  -6 -12   19.11    3.64
   0   6  13  409.90   31.30
   0   6  13  415.03   32.80
   0  -6 -13  316.89   21.80
   0   6  14   53.64    9.05
   0   6  14   43.28    7.76
   0  -6 -14   20.40    4.05
   0   6  15  300.30   30.39
   0   6  15  259.38   21.79
   0   6  16  414.68   38.91
   0   7 -14   45.19   11.04
   0  -7  14   42.29    8.25
   0   7 -13  428.70   36.05
   0  -7  13  373.81   34.00
   0   7 -12  974.54   72.62
   0  -7  12  991.24   72.34
   0   7 -11  893.95   60.53
   0  -7  11  796.04   56.75
   0   7 -10   17.33    7.03
   0  -7  10   20.06    5.84
   0   7  -9  225.38   16.66
   0  -7   9  229.08   18.67
   0   7  -8  168.37   15.50
   0  -7   8  146.97   13.50
   0   7  -7  121.75   11.88
   0  -7   7  105.16    8.74
   0   7  -6  615.96   20.51
   0  -7   6 1361.20   56.20
   0   7  -5  879.98   35.42
   0  -7   5  923.09   43.78
   0   7  -4  281.66   11.87
   0   7  -4  303.06   20.57
   0  -7   4  291.78   14.22
   0   7  -3   31.73    5.48
   0   7  -3   27.67    2.93
   0  -7   3   30.78    2.93
   0   7  -2  183.33   14.00
   0   7  -2  172.93    9.03
   0  -7   2  176.55    8.05
   0   7  -1 1684.95   84.37
   0   7  -1 1660.97   92.03
   0  -7   1 1697.27   74.61
   0   7   0 1728.90   97.90
   0   7   0 1727.88   91.28
   0   7   0 1792.54   78.66
   0  -7   0 1772.32   78.72
   0   7   1   84.95    8.41
   0   7   1   59.48    8.23
   0   7   2  949.98   50.42
   0  -7  -2  902.91   36.41
   0   7   3  103.90    9.49
   0  -7  -3   89.36    5.18
   0   7   4 1703.48   91.56
   0   7   4 1658.87   93.24
   0  -7  -4 1587.10   73.55
   0   7   5 2504.40  140.35
   0   7   5 2516.90  150.05
   0  -7  -5 2376.42  123.24
   0   7   6  390.61   22.72
   0   7   6  390.10   22.77
   0  -7  -6  396.46   19.14
   0   7   7  595.42   32.22
   0   7   7  643.97   38.76
   0  -7  -7  605.39   30.71
   0   7   8 1722.27   96.36
   0   7   8 1879.13  114.87
   0  -7  -8 1844.25  100.04
   0   7   9  152.30   11.51
   0   7   9  173.73   16.61
   0  -7  -9  168.38   12.87
   0   7  10  348.03   26.02
   0  -7 -10  221.20   15.12
   0   7  11  450.67   33.24
   0  -7 -11  326.18   20.71
   0   7  12  636.90   47.50
   0   7  12  571.64   41.81
   0   7  13  167.80   17.34
   0   7  13  181.86   18.93
   0  -7 -13  127.83   10.80
   0   7  14  247.54   25.19
   0   7  14  211.27   23.11
   0   7  15   77.73   12.50
   0   8 -14    4.11    5.93
   0  -8  14    0.04    5.19
   0   8 -13    3.33    5.98
   0  -8  13    4.60    5.24
   0   8 -12   35.77    9.12
   0  -8  12   27.88    8.57
   0   8 -11   64.65   11.33
   0  -8  11   51.80    9.60
   0   8 -10   94.63   12.23
   0  -8  10   75.28   10.62
   0   8  -9   34.60    8.91
   0  -8   9   36.02    6.94
   0   8  -8   61.99    8.16
   0  -8   8   52.11    7.23
   0  -8   7  112.25    9.91
   0   8  -6  382.72   14.89
   0  -8   6  431.68   23.33
   0   8  -5  431.31   18.37
   0   8  -5  454.31   26.42
   0  -8   5  444.79   22.76
   0   8  -4  322.26   20.74
   0   8  -4  295.11   14.20
   0  -8   4  306.86   14.87
   0   8  -3 1725.36   99.24
   0   8  -3 1585.62   77.72
   0  -8   3 1624.91   75.47
   0   8  -2  204.60   15.67
   0   8  -2  192.48   11.02
   0  -8   2  197.55    9.12
   0   8  -1   54.10    7.74
   0   8  -1   43.25    5.65
   0  -8   1   38.80    2.86
   0   8   0 1778.26  102.33
   0   8   0 1784.91   96.41
   0  -8   0 1888.43   83.28
   0   8   1  814.50   43.70
   0   8   1  817.64   45.90
   0  -8  -1  808.82   33.14
   0   8   2  882.27   48.57
   0   8   2  870.51   48.68
   0  -8  -2  854.64   34.97
   0   8   3  642.56   36.63
   0  -8  -3  593.07   24.30
   0   8   4  146.66   13.12
   0  -8  -4  144.32    7.64
   0   8   5  921.30   53.76
   0   8   5  890.20   48.17
   0  -8  -5  826.88   37.52
   0   8   6  215.04   18.61
   0   8   6  218.37   14.61
   0  -8  -6  206.79   11.11
   0   8   7  508.55   29.85
   0   8   7  586.92   38.85
   0  -8  -7  524.57   26.34
   0   8   8   76.61    8.92
   0   8   8  113.88   13.28
   0  -8  -8  105.21    7.90
   0   8   9   93.97   11.75
   0   8   9   70.65    7.28
   0  -8  -9   88.54    8.44
   0   8  10  724.17   49.54
   0   8  10  547.79   31.28
   0  -8 -10  650.12   38.85
   0   8  11  678.77   48.31
   0  -8 -11  675.96   43.63
   0   8  12  207.29   23.09
   0  -8 -12  194.87   18.85
   0   8  13   12.91    9.02
   0  -8 -13   34.37    7.90
   0   8  14   78.77   11.49
   0  -8 -14   22.80   10.53
   0   8  15  145.82   18.20
   0  -8 -15  151.12   16.28
   0   8  16   24.84    9.35
   0  -8 -16   27.71    9.75
   0   9 -13   44.99   11.61
   0   9 -12  776.17   62.62
   0   9 -11  974.29   72.54
   0   9 -10  354.52   31.16
   0  -9  10  298.23   25.01
   0   9  -9   17.70    5.95
   0  -9   9   15.60    5.04
   0   9  -8  795.74   54.51
   0  -9   8  662.68   40.99
   0  -9   7 1014.71   57.26
   0   9  -6  300.04   13.25
   0  -9   6  326.08   18.87
   0   9  -5  129.81   11.57
   0   9  -5  111.11    6.96
   0  -9   5  114.07    8.01
   0   9  -4  143.45    8.19
   0   9  -4  182.81   15.28
   0  -9   4  144.06    8.36
   0   9  -3 2661.58  160.94
   0   9  -3 2404.44  132.43
   0  -9   3 2481.39  128.81
   0   9  -2 1299.32   77.19
   0   9  -2 1169.82   60.11
   0  -9   2 1226.03   55.01
   0   9  -1  920.96   51.29
   0   9  -1  869.99   46.41
   0  -9   1  918.17   39.03
   0   9   0  145.47   11.77
   0   9   0  160.22   14.74
   0  -9   0  147.36    7.35
   0   9   1  696.44   41.98
   0   9   1  682.98   36.43
   0  -9  -1  711.82   29.12
   0   9   2 2361.87  142.44
   0   9   2 2325.06  139.66
   0  -9  -2 2276.96  111.60
   0   9   3 2007.37  119.27
   0   9   3 2036.63  120.46
   0  -9  -3 1941.25   93.45
   0   9   4  452.83   28.51
   0  -9  -4  416.34   18.58
   0   9   5  436.24   28.50
   0  -9  -5  425.09   20.26
   0   9   6 2208.59  130.43
   0   9   6 2300.78  150.24
   0  -9  -6 2134.27  114.52
   0   9   7  332.84   22.86
   0   9   7  369.43   26.34
   0  -9  -7  365.91   19.27
   0   9   8  581.80   43.76
   0   9   8  524.47   33.19
   0  -9  -8  556.55   30.02
   0   9   9  177.45   19.26
   0   9   9  138.01   13.61
   0  -9  -9  167.68   12.77
   0   9  10  180.62   21.13
   0  -9 -10  170.98   14.02
   0   9  11  119.59   12.94
   0  -9 -11  112.66   11.90
   0   9  12  800.52   62.55
   0  -9 -12  776.64   52.89
   0   9  13   17.25    8.79
   0  -9 -13   23.70    7.29
   0   9  14  143.87   19.09
   0  -9 -14  123.58   15.99
   0   9  15  264.00   29.34
   0  -9 -15  323.85   26.78
   0  10 -12   11.26    7.79
   0  10 -11  244.85   23.08
   0  10 -10  463.57   40.53
   0  10  -9  161.11   18.28
   0  10  -8   60.89   11.76
   0  10  -6  528.21   22.28
   0  10  -5  130.96   13.11
   0  10  -5   75.98    5.41
   0  10  -4   17.02    2.86
   0  10  -4   24.60    7.07
   0  10  -3    4.44    2.74
   0  10  -3   12.74    4.54
   0  10  -2  153.43   15.96
   0  10  -2  134.77   10.09
   0  10  -1  276.12   22.96
   0  10  -1  246.50   17.02
   0  10   0  355.63   27.11
   0  10   0  357.04   23.26
   0  10   1   18.29    6.32
   0  10   1   21.49    5.57
   0  10   2 1574.84   91.20
   0  10   2 1581.75   96.73
   0  10   3  130.18   13.99
   0  10   3  132.63   11.76
   0  10   4   55.78    8.47
   0  10   4   53.72    9.92
   0  10   5  228.52   19.26
   0  10   6  228.68   17.92
   0  10   6  244.26   23.23
   0 -10  -6  210.09   12.10
   0  10   7  170.89   19.59
   0  10   7  164.01   15.80
   0 -10  -7  152.62   10.14
   0  10   8  567.34   36.09
   0  10   8  621.33   49.52
   0 -10  -8  594.97   32.98
   0  10   9  166.68   15.93
   0  10   9  130.34   13.91
   0 -10  -9  155.76   11.31
   0  10  10  229.75   22.05
   0 -10 -10  215.28   15.57
   0  10  11 1042.94   82.62
   0 -10 -11  934.78   57.61
   0  10  12    8.65    9.60
   0 -10 -12   21.42    6.00
   0  10  13   11.60    7.94
   0  10  14   30.33   11.24
   0  11 -11   12.04    8.48
   0  11 -10   82.27   14.27
   0  11  -9  649.84   52.93
   0  11  -6  170.16   18.43
   0  11  -5   49.01    4.63
   0  11  -5   85.37   12.09
   0  11  -4   38.59    4.56
   0  11  -4   46.62    9.41
   0  11  -3  784.44   44.13
   0  11  -3  889.63   59.62
   0  11  -2  962.32   65.47
   0  11  -2  869.45   50.13
   0  11  -1  314.34   27.05
   0  11  -1  281.25   20.10
   0  11   0  410.50   28.26
   0  11   0  429.95   33.65
   0  11   1   44.54    9.30
   0  11   1   29.31    7.50
   0  11   2  430.31   30.53
   0  11   2  418.55   30.16
   0  11   3  316.99   26.12
   0  11   3  325.80   26.31
   0  11   4 1817.64  119.23
   0  11   4 1786.82  121.35
   0  11   5  207.58   22.53
   0  11   5  198.89   18.53
   0  11   6  317.29   26.01
   0  11   7   18.92    5.36
   0  11   7   29.74    8.51
   0  11   8  406.20   32.15
   0  11   8  316.99   25.17
   0  11   9  209.80   25.44
   0  11  10  778.08   65.20
   0  11  11  430.00   41.85
   0  11  12  562.24   50.69
   0  11  13   -1.98    6.63
   0  12 -10    8.31    8.18
   0  12  -9   26.42   10.36
   0  12  -6   26.16    7.15
   0  12  -5   14.97    6.35
   0  12  -4   85.75   13.52
   0  12  -4   67.89    6.76
   0  12  -3  580.05   35.45
   0  12  -3  686.66   51.67
   0  12  -2  181.94   18.43
   0  12  -2  133.40   13.22
   0  12  -1  425.47   32.11
   0  12  -1  387.36   28.35
   0  12   0  347.46   30.17
   0  12   0  307.64   24.02
   0  12   1   53.03    8.80
   0  12   1   50.05    8.18
   0  12   2  172.38   19.13
   0  12   2  157.96   17.26
   0  12   3  724.44   54.13
   0  12   3  697.33   51.02
   0  12   4  132.42   16.88
   0  12   4  138.79   15.73
   0  12   5 1345.02   95.39
   0  12   5 1231.57   85.45
   0  12   6   26.06    7.25
   0  12   7 2434.09  165.27
   0  12   8  844.28   59.97
   0  12   8 1065.35   80.13
   0  12   9  141.53   19.11
   0  12  10   16.43    7.27
   0  12  11   86.33   12.68
   0  12  12  795.03   75.20
   0  13  -6  283.47   29.35
   0  13  -5    6.08    5.49
   0  13  -4   11.42    7.91
   0  13  -3    8.04    7.44
   0  13  -3    9.53    3.60
   0  13  -2    5.05    3.79
   0  13  -2    7.97    7.01
   0  13  -1   15.83    5.35
   0  13  -1   22.60    8.98
   0  13   0   64.58    9.22
   0  13   0   66.10   13.05
   0  13   1  122.87   17.25
   0  13   1  116.75   13.93
   0  13   2   75.30   11.63
   0  13   2   77.33   10.77
   0  13   3  442.37   34.29
   0  13   3  448.62   38.55
   0  13   4  578.42   47.23
   0  13   5 1224.35   90.45
   0  13   5 1126.48   81.91
   0  13   6  104.31   13.83
   0  13   6  109.25   16.10
   0  13   7    7.13    5.64
   0  13   9  428.17   45.59
   0  13  10  319.08   36.80
   0  13  11  151.11   23.45
   0  14  -6  191.45   22.31
   0  14  -5   -6.56    7.61
   0  14  -4  596.87   56.64
   0  14  -3  599.37   51.70
   0  14  -3  481.81   34.04
   0  14  -2   61.14    9.83
   0  14  -2   36.17    7.97
   0  14  -1   37.42   10.56
   0  14  -1   26.74    7.23
   0  14   0  494.74   44.81
   0  14   0  428.37   35.46
   0  14   1  583.72   50.94
   0  14   1  501.90   42.70
   0  14   2  286.21   29.44
   0  14   2  292.87   31.33
   0  14   3  597.36   49.29
   0  14   3  562.38   46.77
   0  14   4   60.39   12.76
   0  14   4   57.89   11.78
   0  14   5   23.99    7.28
   0  14   5   24.75    8.82
   0  14   6   64.10   14.39
   0  14   6   50.85   11.47
   0  14   7  147.87   20.21
   0  14   7  120.77   16.70
   0  14   9   -1.12    4.78
   0  15  -3   40.46   10.76
   0  15  -2    2.71    9.09
   0  15  -2   11.22    5.24
   0  15  -1  525.15   50.82
   0  15  -1  428.57   36.83
   0  15   0   84.82   15.91
   0  15   0  188.70   20.85
   0  15   1   74.18   13.36
   0  15   1  121.04   17.63
   0  15   2  220.24   24.43
   0  15   2  202.14   24.84
   0  15   3  130.87   17.13
   0  15   3  130.43   19.41
   0  15   4  708.99   63.99
   0  15   4  702.14   61.56
   0  15   5  140.45   18.66
   0  15   5  162.10   22.79
   0  15   6  270.96   29.08
   0  15   6  341.53   33.50
   0  15   7  428.75   46.74
  -1  15   6  289.19   34.11
  -1  15   5  247.56   29.49
  -1  15   5  191.00   23.31
  -1  15   4  642.84   56.70
  -1  15   4  715.05   62.33
  -1  15   3    2.87    8.10
  -1  15   3   18.19    7.91
  -1  15   2  101.42   12.74
  -1  15   2   91.40   15.38
  -1  15   1  780.45   62.70
  -1  15   1  848.11   73.25
  -1  15   0   31.55   10.58
  -1  15   0   25.38    8.45
  -1  15  -1  581.83   52.83
  -1  15  -1  452.16   36.60
  -1  15  -2  273.70   23.11
  -1  15  -2  369.23   37.75
  -1  15  -3   92.17   17.73
  -1  14   9   13.29   10.20
  -1  14   7  418.96   40.63
  -1  14   6  242.74   30.59
  -1  14   5   15.63    7.84
  -1  14   5   30.18    9.76
  -1  14   4   21.28    8.91
  -1  14   4   14.29    7.95
  -1  14   3  381.07   35.74
  -1  14   3  397.79   38.20
  -1  14   2   47.06   10.34
  -1  14   2   49.56   11.21
  -1  14   1   36.33    9.35
  -1  14   1   39.56   11.21
  -1  14   0  297.34   30.46
  -1  14   0  266.68   25.72
  -1  14  -1  160.83   16.75
  -1  14  -1   35.68   11.31
  -1  14  -2   32.42   11.31
  -1  14  -2  197.72   17.57
  -1  14  -3  416.68   36.26
  -1  14  -3  315.35   26.17
  -1  14  -4   31.74   11.75
  -1  14  -5   28.38   11.24
  -1  14  -6   11.44    7.16
  -1  13  11  448.41   45.24
  -1  13  10  126.68   19.34
  -1  13   9  243.52   30.70
  -1  13   6  412.06   35.13
  -1  13   6  484.30   45.63
  -1  13   5  274.94   26.28
  -1  13   5  294.94   30.86
  -1  13   4  647.90   50.79
  -1  13   4  682.60   55.85
  -1  13   3   -1.41    5.97
  -1  13   3   -4.62    5.37
  -1  13   2  414.47   36.95
  -1  13   2  405.65   34.17
  -1  13   1   22.52    9.39
  -1  13   1   29.11    6.18
  -1  13   0  132.07   13.36
  -1  13   0  139.12   17.01
  -1  13  -1  157.99   17.01
  -1  13  -1  123.93   14.43
  -1  13  -2    2.84    4.55
  -1  13  -2   15.42    7.21
  -1  13  -3   15.68    7.81
  -1  13  -3    8.12    4.37
  -1  13  -4   59.58    7.27
  -1  13  -4   99.10   11.35
  -1  13  -5  621.22   53.05
  -1  13  -6   28.91    8.00
  -1  13  -7   -6.39    8.35
  -1  13  -8   34.65   11.74
  -1  12  12  544.91   55.37
  -1  12  11  340.97   38.68
  -1  12  10   24.83   10.06
  -1  12   9  341.08   36.66
  -1  12   8  414.67   39.10
  -1  12   7   62.53    9.38
  -1  12   6    1.19    3.70
  -1  12   5    7.63    6.75
  -1  12   5   13.09    5.50
  -1  12   4  152.34   15.18
  -1  12   4  155.44   16.64
  -1  12   3   18.22    7.19
  -1  12   3   16.39    6.99
  -1  12   2  472.18   36.58
  -1  12   2  477.17   37.60
  -1  12   1  527.99   34.47
  -1  12   1  583.07   44.12
  -1  12   0    7.12    4.13
  -1  12   0   -1.71    3.77
  -1  12  -1   86.87   10.46
  -1  12  -1  117.64   15.37
  -1  12  -2  280.21   26.43
  -1  12  -2  246.14   19.31
  -1  12  -3  241.84   18.04
  -1  12  -3  312.12   27.82
  -1  12  -4   66.51    7.44
  -1  12  -4   98.75   11.64
  -1  12  -5  159.76   19.24
  -1  12  -6   72.14   13.67
  -1  12  -7  302.21   27.54
  -1  11  13   42.19   13.09
  -1  11  12  174.65   23.24
  -1  11  11  353.39   37.15
  -1  11  10  202.16   25.10
  -1  11   9  225.23   26.31
  -1  11   8  869.68   67.26
  -1  11   7  244.04   22.61
  -1  11   7  220.81   19.25
  -1  11   6   95.69   11.19
  -1  11   5  140.68   14.56
  -1  11   4  426.80   34.08
  -1  11   4  425.53   31.53
  -1  11   3  261.15   21.98
  -1  11   3  254.70   22.76
  -1  11   2  285.20   24.32
  -1  11   2  304.71   24.62
  -1  11   1   34.87    8.48
  -1  11   1   34.44    8.13
  -1  11   0   43.60    9.23
  -1  11   0   36.32    7.22
  -1  11  -1  434.37   29.37
  -1  11  -1  423.88   28.29
  -1  11  -2  812.39   47.13
  -1  11  -2  883.41   60.55
  -1  11  -3  630.18   46.00
  -1  11  -3  555.35   31.59
  -1  11  -4   78.29   10.07
  -1  11  -4   67.79    5.79
  -1  11  -5  353.97   26.09
  -1  11  -5  307.36   17.36
  -1  11  -6   15.93    7.34
  -1  11  -7  532.63   45.59
  -1  11 -10   22.04   10.42
  -1  11 -11   20.54    9.51
   1 -10 -14  211.61   22.32
  -1  10  14  228.43   29.60
   1 -10 -13   15.62    7.06
  -1  10  13   14.73    7.14
   1 -10 -12  199.45   19.42
  -1  10  12  204.27   25.00
   1 -10 -11    7.79    5.05
  -1  10  11   14.84    7.71
   1 -10 -10   66.07    7.62
  -1  10  10   61.68   12.41
   1 -10  -9   29.03    5.68
  -1  10   9   35.54    9.09
   1 -10  -8 1669.73   95.48
  -1  10   8 1569.35   94.33
  -1  10   8 1829.43  125.01
   1 -10  -7 1581.00   89.41
  -1  10   7 1818.61  123.12
  -1  10   7 1630.04   95.42
   1 -10  -6   16.37    3.56
  -1  10   6   17.72    5.32
  -1  10   6   20.99    6.95
   1 -10  -5   24.67    3.84
  -1  10   5   37.60    5.38
   1 -10  -4 2507.39  138.73
  -1  10   4 2679.21  176.43
  -1  10   4 2711.96  170.58
   1 -10  -3   56.17    4.89
  -1  10   3   71.64    9.98
  -1  10   3   78.48    9.67
   1 -10  -2   60.88    5.18
  -1  10   2   81.42    9.75
  -1  10   2   84.50    9.76
   1 -10  -1  443.11   20.88
  -1  10   1  431.07   29.14
  -1  10   1  475.67   29.41
   1 -10   0  156.10    8.88
  -1  10   0  170.91   14.82
  -1  10   0  185.30   16.71
   1 -10   1  114.79    7.45
  -1  10  -1  136.69   13.78
  -1  10  -1  120.97   11.47
   1 -10   2   39.55    4.29
  -1  10  -2   56.17    9.51
  -1  10  -2   52.61    6.17
  -1  10  -3  612.08   41.93
  -1  10  -3  588.50   31.46
  -1  10  -4  993.27   52.21
  -1  10  -4 1061.32   68.74
  -1  10  -5  260.57   21.97
  -1  10  -5  205.36   11.78
  -1  10  -6 1129.59   73.44
  -1  10  -6  948.06   45.37
  -1  10  -7  167.60   20.62
  -1  10  -9  292.05   28.21
  -1  10 -10  900.12   69.39
  -1  10 -11  180.18   21.66
  -1  10 -12   19.09    9.34
   1  -9 -15    8.52    6.02
  -1   9  15   -1.71    6.38
   1  -9 -14   -3.98    4.46
   1  -9 -13   11.86    6.91
  -1   9  13   18.01    8.22
   1  -9 -12   21.56    6.60
  -1   9  12   14.67    8.76
   1  -9 -11  121.45   13.39
  -1   9  11  168.34   18.93
   1  -9 -10  915.44   57.46
  -1   9  10  951.20   71.65
   1  -9  -9  483.29   30.02
  -1   9   9  511.18   40.74
   1  -9  -8  256.79   17.60
  -1   9   8  265.78   25.47
  -1   9   8  224.28   15.27
   1  -9  -7  926.57   49.21
  -1   9   7  974.62   60.52
  -1   9   7  887.61   48.45
   1  -9  -6  244.66   14.82
  -1   9   6  289.70   23.29
  -1   9   6  262.47   18.32
   1  -9  -5   72.48    6.44
  -1   9   5   67.86    8.07
  -1   9   5   66.68    8.57
   1  -9  -4 2592.82  141.11
  -1   9   4 2716.12  164.67
   1  -9  -3 1420.70   68.97
  -1   9   3 1445.52   83.23
  -1   9   3 1449.76   82.79
   1  -9  -2  354.05   16.28
  -1   9   2  382.78   25.85
  -1   9   2  355.32   21.46
   1  -9  -1  759.09   33.91
  -1   9   1  783.18   44.96
  -1   9   1  742.36   42.98
   1  -9   0   22.79    3.02
  -1   9   0   23.95    5.25
  -1   9   0   31.29    6.85
   1  -9   1 1183.88   54.55
  -1   9  -1 1226.71   72.55
  -1   9  -1 1208.69   65.27
   1  -9   2  531.16   24.43
  -1   9  -2  546.88   34.86
  -1   9  -2  524.65   27.43
   1  -9   3  890.50   42.98
  -1   9  -3  907.85   51.17
  -1   9  -3  860.50   42.63
   1  -9   4  246.51   13.93
  -1   9  -4  278.86   21.08
  -1   9  -4  236.70   12.79
   1  -9   5   77.49    6.85
  -1   9  -5  112.44   12.30
  -1   9  -5   67.34    4.91
   1  -9   6   44.86    5.97
  -1   9  -6   59.80    9.62
  -1   9  -6   39.58    2.89
   1  -9   7  188.53   14.41
   1  -9   8   38.55    6.58
   1  -9   9 1204.82   75.80
  -1   9  -9 1422.98   89.84
   1  -9  10   81.65   11.65
  -1   9 -10   90.92   11.79
   1  -9  11   93.43   13.86
  -1   9 -11  130.95   16.29
  -1   9 -12  148.97   19.42
  -1   9 -13   60.55   14.78
   1  -8 -15   62.12    9.66
  -1   8  15   73.27   13.39
   1  -8 -14  248.84   22.42
  -1   8  14  240.57   26.85
   1  -8 -13   20.44    6.72
  -1   8  13   13.81    6.16
   1  -8 -12  199.69   16.88
  -1   8  12  204.23   23.00
   1  -8 -11  526.97   36.45
  -1   8  11  567.96   43.63
   1  -8 -10  301.93   22.39
  -1   8  10  327.70   28.21
   1  -8  -9    4.65    3.53
  -1   8   9    0.18    2.20
  -1   8   9   12.27    4.94
   1  -8  -8    6.12    3.55
  -1   8   8    2.12    2.37
  -1   8   8    9.17    4.98
   1  -8  -7   59.40    5.44
  -1   8   7   56.60    5.86
  -1   8   7   45.32    7.16
   1  -8  -6 1612.63   85.25
  -1   8   6 1580.78   86.35
  -1   8   6 1599.08  100.23
   1  -8  -5 1215.11   60.20
  -1   8   5 1289.24   67.90
  -1   8   5 1242.70   75.55
   1  -8  -4  684.73   31.75
  -1   8   4  703.00   38.51
   1  -8  -3   73.41    4.96
  -1   8   3   63.20    8.20
   1  -8  -2  156.22    8.04
  -1   8   2  161.87   13.12
  -1   8   2  152.02   12.82
   1  -8  -1 2404.23  119.57
  -1   8   1 2395.65  137.49
  -1   8   1 2447.16  140.47
   1  -8   0 2366.21  116.67
  -1   8   0 2231.37  125.17
  -1   8   0 2390.89  138.79
   1  -8   1  339.86   15.22
  -1   8  -1  342.90   19.56
  -1   8  -1  347.29   22.19
   1  -8   2   77.51    5.53
  -1   8  -2  121.30   10.29
  -1   8  -2   81.79    6.72
   1  -8   3  591.57   27.61
  -1   8  -3  566.63   34.11
  -1   8  -3  565.66   27.52
   1  -8   4 2853.85  160.34
  -1   8  -4 3012.83  188.25
  -1   8  -4 2884.78  154.90
   1  -8   5  671.16   34.42
  -1   8  -5  677.80   40.96
  -1   8  -5  613.73   26.67
   1  -8   6 1763.98   95.60
  -1   8  -6 1695.09   98.46
  -1   8  -6 1547.55   70.33
   1  -8   7  187.80   14.18
  -1   8  -7  148.39    5.86
   1  -8   8   15.49    4.86
   1  -8   9  322.15   25.11
  -1   8  -9  367.59   29.99
   1  -8  10  461.33   34.14
  -1   8 -10  517.17   36.42
   1  -8  11   83.61   12.62
  -1   8 -11  150.17   15.82
   1  -8  12   91.91   14.26
  -1   8 -12  112.18   16.20
   1  -8  13   41.91   10.00
  -1   8 -13   27.65   11.15
   1  -8  14    3.56    5.74
  -1   8 -14    1.02    4.59
   1  -7 -16   23.42   10.61
   1  -7 -15   44.93   10.69
  -1   7  15   27.49    9.42
   1  -7 -14  143.10   16.74
  -1   7  14  137.46   16.99
   1  -7 -13 2046.77  142.52
  -1   7  13 2019.65  142.92
   1  -7 -12  426.73   32.41
  -1   7  12  423.66   31.26
   1  -7 -11   39.85    8.30
  -1   7  11   45.11    8.92
   1  -7 -10 1187.76   73.02
  -1   7  10 1239.49   76.42
   1  -7  -9  998.15   55.16
  -1   7   9  980.68   62.61
  -1   7   9  819.42   42.04
   1  -7  -8 1035.76   56.84
  -1   7   8 1070.54   65.12
  -1   7   8  953.73   48.86
   1  -7  -7 1179.34   60.78
  -1   7   7 1190.24   66.66
  -1   7   7 1125.43   57.54
   1  -7  -6  693.48   34.32
  -1   7   6  694.41   34.85
  -1   7   6  707.48   41.89
   1  -7  -5  762.72   36.82
  -1   7   5  762.75   37.36
  -1   7   5  809.81   46.67
   1  -7  -4  812.95   36.93
  -1   7   4  823.41   40.69
  -1   7   4  828.62   46.11
   1  -7  -3   69.55    4.91
  -1   7   3   84.03    7.51
   1  -7  -2 4205.77  239.23
  -1   7   2 4223.58  262.57
   1  -7  -1 2035.85   98.01
  -1   7   1 2040.14  108.34
   1  -7   0  215.40    9.88
  -1   7   0  206.87   13.39
  -1   7   0  220.78   13.82
   1  -7   1  147.59    7.71
  -1   7  -1  147.70   10.58
  -1   7  -1  149.55    9.62
   1  -7   2 2711.96  138.03
  -1   7  -2 2696.94  152.18
  -1   7  -2 2642.43  139.78
   1  -7   3  678.40   31.03
  -1   7  -3  674.38   29.63
  -1   7  -3  681.26   35.15
   1  -7   4  249.61   13.50
  -1   7  -4  242.23   10.83
  -1   7  -4  260.77   18.96
   1  -7   5   70.95    5.87
  -1   7  -5   68.50    8.31
  -1   7  -5   46.75    3.69
   1  -7   6  136.11   10.60
  -1   7  -6  123.99    5.35
   1  -7   7 3563.22  223.70
   1  -7   8  865.16   54.24
  -1   7  -8  915.24   57.85
   1  -7   9  870.11   55.71
  -1   7  -9  922.29   60.12
   1  -7  10 1620.00  106.68
  -1   7 -10 1751.95  116.94
   1  -7  11  187.28   21.05
  -1   7 -11  211.81   21.52
   1  -7  12   22.90    7.92
  -1   7 -12   24.04    8.29
   1  -7  13   97.40   16.20
  -1   7 -13  125.40   16.03
   1  -7  14   21.42    8.70
  -1   7 -14   18.70    8.79
   1  -6 -16  167.28   19.23
   1  -6 -15  108.60    9.04
  -1   6  14  292.05   26.18
  -1   6  13  158.89   17.28
  -1   6  12  241.16   20.46
   1  -6 -11  191.06   16.06
  -1   6  11  328.35   23.12
   1  -6 -10  102.02    9.93
  -1   6  10  114.42   12.68
   1  -6  -9   86.59    9.30
  -1   6   9   98.51   11.11
  -1   6   9   65.34    5.43
   1  -6  -8  561.31   32.11
  -1   6   8  518.58   24.81
  -1   6   8  576.89   35.31
   1  -6  -7 2633.51  150.88
  -1   6   7 2606.33  140.05
  -1   6   7 2758.40  166.08
   1  -6  -6   21.79    4.18
  -1   6   6   21.47    2.99
  -1   6   6   26.15    5.89
   1  -6  -5 1143.83   54.85
  -1   6   5 1184.07   64.71
  -1   6   5 1168.71   55.83
   1  -6  -4 1885.51   93.56
  -1   6   4 1891.07   95.29
  -1   6   4 1925.16  108.35
   1  -6  -3  283.58   13.14
  -1   6   3  282.44   16.14
  -1   6   3  283.69   16.20
   1  -6  -2 3608.27  193.51
  -1   6   2 3545.29  206.30
   1  -6  -1 3446.07  181.76
  -1   6   1 3349.95  190.29
  -1   6   1 3439.43  199.23
   1  -6   0 1787.01   81.53
  -1   6   0 1772.44   91.23
  -1   6   0 1861.11   97.06
   1  -6   1   68.87    4.91
  -1   6  -1   65.64    8.79
  -1   6  -1   90.75    7.00
   1  -6   2  233.45   11.48
  -1   6  -2  226.01   15.84
  -1   6  -2  221.26   11.83
   1  -6   3  716.92   31.91
  -1   6  -3  688.30   36.11
  -1   6  -3  699.96   29.02
   1  -6   4  572.82   26.41
  -1   6  -4  540.76   21.87
  -1   6  -4  588.81   32.59
   1  -6   5  492.58   24.96
   1  -6   5  533.13   19.35
  -1   6  -5  493.44   18.85
  -1   6  -5  499.79   29.32
   1  -6   6  161.57   11.92
  -1   6  -6  172.07    6.23
   1  -6   7   89.75    8.36
   1  -6   8  956.08   57.69
  -1   6  -8  929.26   55.73
   1  -6   9  558.39   37.34
  -1   6  -9  574.43   34.56
   1  -6  10  415.99   31.53
  -1   6 -10  422.36   31.29
   1  -6  11   21.30    7.34
  -1   6 -11   17.89    7.73
   1  -6  12  108.47   16.11
  -1   6 -12  124.94   14.14
   1  -6  13  499.26   43.26
  -1   6 -13  512.72   44.44
   1  -6  14   53.63   12.18
  -1   6 -14   59.64   11.58
   1  -6  15   16.53    8.03
  -1   6 -15    7.16    5.26
  -1   5  17   47.52   14.09
  -1   5  16  515.56   49.59
  -1   5  15  141.05   16.01
  -1   5  14  969.98   65.23
  -1   5  14 1040.24   77.22
   1  -5 -13  625.93   33.46
  -1   5  13  980.42   58.39
  -1   5  13  950.00   59.46
   1  -5 -12   44.28    4.31
  -1   5  12   54.46    9.06
  -1   5  12   59.02    7.72
   1  -5 -11  167.94    9.95
  -1   5  11  185.04   15.80
  -1   5  11  190.56   15.79
   1  -5 -10  428.04   21.19
  -1   5  10  487.54   32.41
  -1   5  10  502.39   31.45
   1  -5  -9 1392.62   67.06
  -1   5   9 1515.47   86.29
  -1   5   9 1466.10   84.43
   1  -5  -8  565.14   25.56
  -1   5   8  578.38   33.36
  -1   5   8  594.05   31.62
   1  -5  -7 1129.84   59.07
  -1   5   7 1176.63   53.33
  -1   5   7 1128.49   60.20
   1  -5  -6   93.79    7.65
  -1   5   6   64.92    5.09
  -1   5   6   95.75    8.48
   1  -5  -5 5155.97  322.19
  -1   5   5 5268.45  340.84
  -1   5   5 5295.31  321.41
   1  -5  -4 1569.81   75.44
  -1   5   4 1592.62   80.81
  -1   5   4 1621.00   76.08
   1  -5  -3  202.94   10.10
  -1   5   3  204.21   14.68
  -1   5   3  212.04   11.56
   1  -5  -2   30.86    3.50
  -1   5   2   23.84    4.86
   1  -5  -1 1218.13   51.22
  -1   5   1 1281.83   62.47
   1  -5   0  520.81   21.08
  -1   5   0  513.23   24.45
  -1   5   0  518.38   23.96
   1  -5   1 1168.29   50.05
  -1   5  -1 1106.74   55.04
  -1   5  -1 1082.51   49.16
   1  -5   2   32.40    3.58
  -1   5  -2   38.18    3.55
  -1   5  -2   40.93    6.38
   1  -5   3 2404.21  120.38
  -1   5  -3 2368.18  125.00
  -1   5  -3 2330.34  110.70
   1  -5   4  462.16   16.15
   1  -5   4  488.93   24.32
  -1   5  -4  468.68   26.28
  -1   5  -4  490.67   18.41
   1  -5   5  237.68   13.91
   1  -5   5  200.31    6.49
  -1   5  -5  245.59   16.40
  -1   5  -5  228.08    7.84
   1  -5   6   50.66    2.02
   1  -5   6   56.88    6.86
   1  -5   7   24.41    5.32
   1  -5   8  116.70   12.00
  -1   5  -8  114.21    9.32
   1  -5   9 1253.31   77.20
  -1   5  -9 1310.37   78.43
   1  -5  10   64.64    9.35
  -1   5 -10   57.21    7.23
   1  -5  11  158.82   17.83
  -1   5 -11  168.13   16.61
   1  -5  12  390.69   31.51
  -1   5 -12  396.12   32.31
   1  -5  13   24.26    8.84
  -1   5 -13   18.11    7.88
   1  -5  14  203.55   26.29
  -1   5 -14  197.35   22.70
   1  -5  15   88.95   15.34
  -1   5 -15   99.84   15.78
   1  -5  16   32.88   10.25
  -1   5 -16    8.84    8.46
  -1   4  17   42.90    9.88
  -1   4  16  444.02   38.51
  -1   4  15    7.03    5.27
  -1   4  14  168.37   17.68
   1  -4 -13   14.19    2.66
  -1   4  13   29.52    5.54
  -1   4  13   40.59    7.67
   1  -4 -12  325.42   17.76
  -1   4  12  405.34   30.84
  -1   4  12  423.06   26.24
   1  -4 -11   49.28    3.81
  -1   4  11   50.32    6.95
  -1   4  11   61.92    8.71
   1  -4 -10   22.47    3.54
  -1   4  10   35.71    6.92
  -1   4  10   29.76    5.27
   1  -4  -9   65.36    5.13
  -1   4   9   94.04    8.04
  -1   4   9  104.11    8.06
   1  -4  -8  575.92   24.63
  -1   4   8  578.51   31.74
  -1   4   8  551.69   28.96
   1  -4  -7  583.40   25.47
  -1   4   7  571.63   30.87
  -1   4   7  540.52   30.19
   1  -4  -6  538.87   22.22
  -1   4   6  509.36   28.00
  -1   4   6  549.38   30.42
   1  -4  -5   68.32    6.63
  -1   4   5   68.29    7.99
  -1   4   5   58.61    4.71
   1  -4  -4 1990.68  101.62
  -1   4   4 2211.95  103.76
  -1   4   4 2136.29  114.94
  -1   4   4 2472.79  114.78
  -1   4   3 4046.02  238.10
  -1   4   3 3847.14  211.91
  -1   4   3 4552.07  248.53
  -1   4   2 5332.63  315.05
  -1   4   2 5126.93  316.91
   1  -4  -1  865.44   33.43
  -1   4   1  691.53   27.05
  -1   4   1  867.48   37.59
   1  -4   0  481.37   19.18
  -1   4   0  492.42   23.22
  -1   4   0  516.89   19.72
   1  -4   1   36.64    3.62
  -1   4  -1   30.43    5.54
  -1   4  -1   34.87    3.90
  -1   4  -1   28.31    2.74
   1  -4   2  394.04   17.74
   1  -4   2  407.86   14.34
  -1   4  -2  399.58   15.73
  -1   4  -2  387.41   20.82
   1  -4   3 1028.51   37.68
   1  -4   3 1048.35   46.94
  -1   4  -3 1038.21   40.21
  -1   4  -3 1062.81   52.29
   1  -4   4    9.86    1.24
   1  -4   4    7.54    3.38
  -1   4  -4    8.30    4.75
  -1   4  -4    4.41    1.54
   1  -4   5  543.94   16.82
   1  -4   5  605.14   30.92
  -1   4  -5  588.23   19.20
   1  -4   6 1648.01   77.55
   1  -4   6 1112.68   35.62
   1  -4   7   15.97    4.54
  -1   4  -7   19.81    4.74
   1  -4   8    6.66    4.04
  -1   4  -8    1.56    3.87
   1  -4   9    8.35    4.68
  -1   4  -9    7.04    3.44
   1  -4  10  897.63   58.39
  -1   4 -10  924.04   55.19
   1  -4  11  127.21   15.05
  -1   4 -11  116.55   12.69
   1  -4  12  870.96   61.20
  -1   4 -12  840.17   52.14
   1  -4  13 1402.14  105.14
  -1   4 -13 1329.64   93.87
   1  -4  14  299.93   29.90
  -1   4 -14  277.59   27.57
   1  -4  15  227.58   23.09
  -1   4 -15  216.55   24.65
   1  -4  16   82.43   14.20
  -1   4 -16   45.48   12.48
   1  -3 -14  131.21    9.50
   1  -3 -13 2071.63  117.36
  -1   3  13 2565.80  150.38
   1  -3 -12   56.28    4.42
  -1   3  12   55.36    6.74
   1  -3 -11  302.57   15.22
  -1   3  11  344.28   20.06
   1  -3 -10  305.36   15.09
  -1   3  10  304.23   17.48
   1  -3  -9   44.41    4.00
  -1   3   9   41.37    5.47
   1  -3  -8  310.79   14.13
  -1   3   8  315.62   18.17
   1  -3  -7  480.84   20.55
  -1   3   7  488.73   19.66
  -1   3   7  459.61   25.17
   1  -3  -6  244.38   11.04
  -1   3   6  225.17   10.00
  -1   3   6  227.69   14.63
   1  -3  -5   80.47    5.32
  -1   3   5  106.07    8.08
  -1   3   5   71.30    4.49
  -1   3   4  778.78   38.81
  -1   3   4  958.35   36.95
   1  -3  -3  783.20   33.17
  -1   3   3  891.22   32.71
  -1   3   3  771.62   33.54
  -1   3   3  677.59   25.21
   1  -3  -2 2471.22  119.43
   1  -3  -2 2938.24  130.83
  -1   3   2 2747.98  130.66
  -1   3   2 2367.15  109.54
  -1   3   2 2537.78  129.58
   1  -3  -1 2134.50   91.44
   1  -3  -1 1882.42   82.52
  -1   3   1 1946.62   87.17
  -1   3   1 1708.49   73.42
  -1   3   1 1903.88   90.62
   1  -3   1  141.61    6.88
   1  -3   1  132.70    7.61
  -1   3  -1  131.68    8.19
  -1   3  -1  133.41    8.00
  -1   3  -1  140.13    7.33
   1  -3   2 2291.37  109.25
   1  -3   2 2333.54  102.29
  -1   3  -2 2189.82   96.21
  -1   3  -2 2487.91  116.27
  -1   3  -2 2274.11  114.87
   1  -3   3  106.11    8.21
   1  -3   3  100.13    4.11
  -1   3  -3  101.79    4.54
  -1   3  -3   98.12    6.59
   1  -3   5  258.23   16.26
   1  -3   5  246.70    7.28
   1  -3   5  263.15    8.24
   1  -3   6   21.49    0.93
   1  -3   6   31.07    5.72
   1  -3   6   21.52    0.88
   1  -3   7   56.30    7.33
  -1   3  -7   66.39    7.73
   1  -3   8 1360.30   75.44
  -1   3  -8 1271.48   68.01
   1  -3   9 1339.59   77.74
  -1   3  -9 1342.43   74.79
   1  -3  10  716.92   43.09
  -1   3 -10  703.18   42.53
   1  -3  11 2309.97  152.01
  -1   3 -11 2172.61  134.60
   1  -3  12  628.31   46.14
  -1   3 -12  577.81   41.15
   1  -3  13 1258.04   86.89
  -1   3 -13 1220.91   83.21
   1  -3  14  195.25   22.50
  -1   3 -14  180.12   19.61
   1  -3  15  189.84   21.66
  -1   3 -15  170.84   18.57
   1  -3  16   -2.08    4.36
  -1   3 -16    4.78    4.53
  -1   2  17   47.66   13.41
  -1   2  16    2.75    6.22
  -1   2  15  753.67   64.48
   1  -2 -14 1039.62   57.99
  -1   2  14 1264.78   90.20
   1  -2 -13  155.64   11.41
  -1   2  13  207.32   20.17
   1  -2 -12  145.20    9.91
  -1   2  12  143.10   10.74
  -1   2  12  150.79   16.89
   1  -2 -11  113.99    8.55
  -1   2  11  119.47    8.76
  -1   2  11  159.11   13.27
   1  -2 -10 2212.85  114.07
  -1   2  10 2088.31  111.44
  -1   2  10 2159.67  127.03
   1  -2  -9 1077.12   48.30
  -1   2   9 1002.71   58.11
  -1   2   9 1033.38   49.12
   1  -2  -8   18.84    2.23
  -1   2   8   12.78    3.42
  -1   2   8   11.32    3.66
   1  -2  -7 2828.95  138.04
  -1   2   7 2490.65  133.92
  -1   2   7 2422.21  139.37
   1  -2  -6 1328.29   53.85
  -1   2   6 1230.26   57.37
  -1   2   6 1193.02   63.37
  -1   2   6 1151.91   47.48
   1  -2  -5  964.72   36.21
  -1   2   5  843.86   38.87
  -1   2   5  826.71   38.69
  -1   2   5  863.12   32.49
   1  -2  -4  402.52   14.10
  -1   2   4  349.54   17.86
  -1   2   4  412.29   14.31
   1  -2  -3  707.70   24.61
  -1   2   3  775.19   26.67
  -1   2   3  629.08   29.92
   1  -2  -2 2234.43  102.84
   1  -2  -2 2230.75  100.83
   1  -2  -2 2079.56   96.72
  -1   2   2 2386.76  101.03
  -1   2   2 2221.03  106.51
   1  -2  -1  350.37   14.45
   1  -2  -1  319.09   13.25
  -1   2   1  323.03   16.25
  -1   2   1  312.75   11.28
   1  -2   0 2543.68  116.26
  -1   2   0 2492.18  116.37
   1  -2   1  109.21    6.71
   1  -2   1  107.08    4.89
   1  -2   1  105.23    6.51
  -1   2  -1   97.38    6.37
   1  -2   2 2914.10  147.05
   1  -2   2 3199.68  156.95
   1  -2   2 3082.41  140.69
  -1   2  -2 3039.82  157.08
   1  -2   3 1002.51   45.41
   1  -2   3 1040.95   35.84
  -1   2  -3  996.57   34.53
  -1   2  -3 1018.28   45.78
   1  -2   5   62.70    4.74
   1  -2   5   37.80    1.70
   1  -2   6 1038.52   35.31
   1  -2   6  986.91   51.50
   1  -2   6 1001.76   34.33
  -1   2  -6  974.78   49.42
   1  -2   7  598.36   29.96
   1  -2   7  482.62   14.66
   1  -2   7  565.68   17.38
  -1   2  -7  563.38   29.38
   1  -2   8  218.12   16.61
   1  -2   8  212.95    6.58
  -1   2  -8  233.19   15.48
   1  -2   9   43.29    7.61
  -1   2  -9   42.86    5.98
   1  -2  10  358.48   26.20
  -1   2 -10  368.03   23.70
   1  -2  11  126.21   11.81
  -1   2 -11  124.36   12.70
   1  -2  12 1127.45   76.06
  -1   2 -12 1064.58   68.22
   1  -2  13    4.72    4.93
  -1   2 -13    6.51    4.71
   1  -2  14   61.52   11.77
  -1   2 -14   49.12    9.26
   1  -2  15  446.95   37.79
  -1   2 -15  330.82   29.45
   1  -2  16   26.85   10.72
  -1   2 -16   48.33    9.85
   1  -2  17  191.60   18.79
  -1   2 -17   62.69   11.42
  -1   1  17   21.79    7.89
  -1   1  16   15.29    8.45
  -1   1  15  121.74   17.35
   1  -1 -14   30.74    4.28
  -1   1  14   31.06    6.71
   1  -1 -13  195.63   14.14
  -1   1  13  242.37   22.64
   1  -1 -12  247.24   14.88
  -1   1  12  267.14   22.21
   1  -1 -11  184.77   11.70
  -1   1  11  153.72    9.11
  -1   1  11  163.05   15.91
   1  -1 -10   33.31    4.08
  -1   1  10   36.79    3.65
  -1   1  10   33.50    5.66
   1  -1  -9  812.39   36.99
  -1   1   9  794.22   45.59
  -1   1   9  819.87   36.12
   1  -1  -8  591.75   26.15
  -1   1   8  543.23   28.80
  -1   1   8  538.75   23.49
   1  -1  -7 8368.90  553.80
  -1   1   7 7086.89  483.37
  -1   1   7 7603.21  496.99
   1  -1  -6 3359.88  163.64
  -1   1   6 3061.28  156.08
  -1   1   6 2643.22  126.70
  -1   1   6 3014.20  172.84
   1  -1  -5  341.93   12.78
  -1   1   5  288.34   15.16
  -1   1   5  294.71   12.85
  -1   1   5  348.94   11.63
   1  -1  -4 5010.96  280.19
   1  -1  -3 2695.87  128.59
  -1   1   3 2477.90  123.99
  -1   1   3 2491.04  117.93
   1  -1  -1 2502.71  106.41
  -1   1   1 2397.72  103.95
  -1   1   1 2298.87  102.04
   1  -1   0  391.79   12.18
   1  -1   0  372.62   13.37
   1  -1   0  384.04   13.06
  -1   1   0  365.62   12.90
  -1   1   0  352.64   10.81
  -1   1   0  362.56   12.14
   1  -1   1    4.43    1.82
   1  -1   1    1.87    2.05
   1  -1   1    4.87    1.25
  -1   1  -1    1.19    1.79
  -1   1  -1    1.36    2.02
   1  -1   3   81.39    4.98
   1  -1   3   54.62    2.83
   1  -1   3   54.80    4.78
   1  -1   3   50.51    3.31
  -1   1  -3   69.44    5.33
  -1   1  -3   73.10    6.62
   1  -1   4   62.96    4.91
  -1   1  -4   45.09    2.60
   1  -1   5  592.10   19.94
   1  -1   5  704.60   34.70
  -1   1  -5  702.91   23.78
   1  -1   6   53.44    6.38
  -1   1  -6   66.90    6.59
   1  -1   8 2767.22  129.76
   1  -1   8 2736.83  155.84
  -1   1  -8 2643.13  148.37
   1  -1   9 1245.09   51.28
   1  -1   9 1321.58   76.53
  -1   1  -9 1292.80   70.98
  -1   1  -9 1272.42   53.61
   1  -1  10   79.34    4.30
   1  -1  10  121.98   11.94
  -1   1 -10   81.51    4.15
  -1   1 -10  134.32    9.93
   1  -1  11  575.79   36.16
  -1   1 -11  524.70   33.14
   1  -1  12  136.74   14.69
  -1   1 -12  123.80   11.89
   1  -1  13  611.47   45.40
  -1   1 -13  572.16   41.28
   1  -1  14  652.46   51.63
  -1   1 -14  627.54   45.15
   1  -1  15   32.05    8.12
  -1   1 -15   28.66    7.38
   1  -1  16    5.52    6.94
  -1   1 -16   18.59    5.87
   1  -1  17    0.11    6.47
  -1   1 -17   -1.20    4.16
  -1   0  17    0.33    5.65
  -1   0  16   84.70   12.24
   1   0 -15  615.12   39.27
  -1   0  15  876.62   65.01
   1   0 -14  579.84   36.31
  -1   0  14  729.79   50.75
   1   0 -13    4.87    2.46
  -1   0  13   -0.48    5.35
   1   0 -12  833.27   45.13
  -1   0  12  885.23   58.68
   1   0 -11 2188.19  119.59
  -1   0  11 2146.01  136.94
   1   0 -10  679.76   32.00
  -1   0  10  622.68   26.60
  -1   0  10  610.78   37.22
   1   0  -9   28.30    3.11
  -1   0   9   22.84    2.17
  -1   0   9   22.31    6.32
   1   0  -8  548.79   24.72
  -1   0   8  528.89   31.38
  -1   0   8  513.64   20.02
   1   0  -7  987.53   43.99
   1   0  -7 1071.81   43.51
  -1   0   7  968.78   49.31
  -1   0   7 1017.00   40.38
   1   0  -6 1808.40   78.29
   1   0  -6 1667.03   72.69
  -1   0   6 1598.52   84.64
  -1   0   6 1575.00   69.35
  -1   0   6 1733.85   73.67
   1   0  -5 2955.97  137.18
   1   0  -5 2448.41  112.41
  -1   0   5 2698.66  124.62
  -1   0   5 2815.08  148.11
  -1   0   5 2565.94  118.76
   1   0  -3   71.80    3.58
   1   0  -3   62.45    3.23
   1   0  -3   75.14    4.39
  -1   0   3   99.68    6.72
  -1   0   3   68.43    3.32
  -1   0   3   70.11    4.22
   1   0   2  386.75   13.20
   1   0   2  414.22   17.06
   1   0   2  378.41   16.05
  -1   0  -2  415.35   14.19
  -1   0  -2  398.37   16.49
   1   0   3 4146.07  220.95
  -1   0  -3 4202.10  222.71
   1   0   4 7955.99  533.38
   1   0   5  688.29   24.83
   1   0   5  755.18   36.62
  -1   0  -5  788.94   35.43
  -1   0  -5  767.92   28.38
   1   0   6  357.68   14.12
   1   0   6  358.26   18.50
  -1   0  -6  392.35   14.95
  -1   0  -6  404.60   21.22
   1   0   7 2307.05  125.72
   1   0   7 2250.51  106.79
  -1   0  -7 2324.95  124.83
  -1   0  -7 2444.06  115.78
   1   0   8  649.51   34.78
   1   0   8  643.31   25.97
  -1   0  -8  677.46   34.32
   1   0   9  269.22   12.01
   1   0   9  288.56   21.75
  -1   0  -9  293.47   17.77
   1   0  10 1731.54  102.36
   1   0  10 1476.00   68.48
  -1   0 -10 1764.60   94.62
   1   0  11  306.85   20.64
   1   0  11  274.70   12.51
  -1   0 -11  307.71   20.59
   1   0  12   37.94    7.85
  -1   0 -12   26.36    5.24
   1   0  13   98.97   12.09
  -1   0 -13   48.44    9.13
   1   0  14  761.93   58.90
  -1   0 -14  680.14   45.76
   1   0  15 3037.82  174.70
  -1   0 -15 1136.67   75.78
   1   0  16   18.80    7.42
  -1   0 -16    1.69    4.47
   1   0  17   46.54   11.12
  -1   0 -17   15.24    7.36
  -1  -1  17  113.38   19.07
  -1  -1  16   38.93   11.46
   1   1 -15  524.44   34.90
  -1  -1  15  834.37   57.80
   1   1 -14  225.30   18.18
  -1  -1  14  247.95   25.51
   1   1 -13 2397.30  147.42
  -1  -1  13 2650.56  177.35
   1   1 -12   20.68    4.59
  -1  -1  12   25.92    7.93
   1   1 -11  604.74   32.86
  -1  -1  11  626.20   38.76
   1   1 -10  163.27   10.74
  -1  -1  10  154.75   14.87
  -1  -1  10  151.33    6.76
   1   1  -9  345.63   17.97
   1   1  -9  368.07   13.78
  -1  -1   9  375.14   25.25
  -1  -1   9  394.14   14.25
   1   1  -8 1081.11   49.39
  -1  -1   8 1053.82   58.37
  -1  -1   8 1014.50   39.29
   1   1  -7 1001.43   45.47
   1   1  -7 1165.99   43.83
  -1  -1   7  973.46   35.77
  -1  -1   7 1061.30   56.48
   1   1  -6  692.62   31.28
   1   1  -6  767.98   26.85
  -1  -1   6  740.70   25.87
  -1  -1   6  733.83   38.85
   1   1  -5   87.02    3.17
   1   1  -5  104.99    5.71
  -1  -1   5  104.98    5.16
  -1  -1   5   95.47    8.65
  -1  -1   5   98.42    3.86
   1   1  -4 1166.91   47.61
   1   1  -4 1109.20   38.43
  -1  -1   4 1251.70   43.56
  -1  -1   4 1248.27   57.24
  -1  -1   4 1231.59   47.10
   1   1  -2  271.34    8.56
  -1  -1   2  249.79   11.22
  -1  -1   2  259.12    8.28
  -1  -1   2  269.90    9.77
   1   1  -1   10.06    1.87
  -1  -1   1    2.77    1.20
  -1  -1   1    7.12    1.29
  -1  -1   1    6.69    1.16
   1   1   0   11.53    1.77
   1   1   0    9.02    2.02
  -1  -1   0   12.21    1.59
  -1  -1   0   10.24    2.09
  -1  -1   0   11.39    0.66
   1   1   2  775.40   29.29
   1   1   2  738.16   27.85
   1   1   2  714.96   27.72
  -1  -1  -2  798.05   27.66
  -1  -1  -2  761.85   27.18
  -1  -1  -2  859.71   33.39
   1   1   3 2453.65  113.48
   1   1   3 2655.07  120.33
  -1  -1  -3 2513.83  114.56
   1   1   4 3845.78  199.92
   1   1   4 3332.37  182.03
   1   1   4 3382.95  174.16
  -1  -1  -4 3645.54  183.50
   1   1   5 1212.25   52.76
   1   1   5 1238.50   56.89
  -1  -1  -5 1335.55   61.41
  -1  -1  -5 1358.15   56.35
   1   1   6  330.97   15.13
   1   1   6  311.48   20.65
  -1  -1  -6  357.82   19.01
   1   1   7 2708.51  137.58
   1   1   7 2688.45  156.18
  -1  -1  -7 2836.10  153.65
   1   1   8  205.69   10.25
   1   1   8  217.62   17.95
  -1  -1  -8  231.32   15.09
   1   1   9  295.00   14.07
   1   1   9  304.92   22.44
  -1  -1  -9  291.35   17.92
   1   1  10  139.25   13.83
   1   1  10  149.22    8.37
  -1  -1 -10  134.63   10.69
   1   1  11   51.95    4.57
   1   1  11   79.38   10.20
  -1  -1 -11   77.37    7.97
   1   1  12 1538.05   98.70
  -1  -1 -12 1449.51   87.10
   1   1  13  463.96   37.79
  -1  -1 -13  455.11   30.84
   1   1  14  231.73   23.55
  -1  -1 -14  239.43   20.99
   1   1  15   50.78   11.63
  -1  -1 -15   45.17    7.93
   1   1  16  110.11   11.47
  -1  -1 -16   46.07    8.32
   1   1  17    0.31    4.10
  -1  -2  17   95.79   17.53
  -1  -2  16  122.43   18.90
   1   2 -15  218.90   19.93
  -1  -2  15  259.84   27.69
   1   2 -14   74.01    8.60
  -1  -2  14  100.91   10.37
   1   2 -13   39.94    6.50
  -1  -2  13   49.73   10.19
   1   2 -12  592.36   36.11
  -1  -2  12  620.00   44.36
   1   2 -11 1306.23   70.82
  -1  -2  11 1280.04   81.39
   1   2 -10  808.54   42.46
  -1  -2  10  878.31   53.85
   1   2  -9  281.35   15.14
  -1  -2   9  293.75   20.81
   1   2  -8  180.71   10.18
   1   2  -8  163.77    4.83
  -1  -2   8  187.00   14.64
  -1  -2   8  171.13    4.72
   1   2  -7 1829.32   86.78
   1   2  -7 1757.93   64.47
  -1  -2   7 1900.71   98.46
  -1  -2   7 1541.06   57.47
   1   2  -6  147.67    8.86
   1   2  -6  146.53    4.02
  -1  -2   6  145.01    3.81
  -1  -2   6  142.14    9.67
   1   2  -5 2654.72  106.77
   1   2  -5 2603.28  131.03
  -1  -2   5 2850.41  145.46
   1   2  -4  724.77   30.10
   1   2  -4  634.54   17.56
   1   2  -4  694.45   19.43
  -1  -2   4  678.94   30.86
   1   2  -3 1147.16   38.16
   1   2  -3 1101.52   36.72
   1   2  -3 1239.83   51.36
  -1  -2   3 1173.44   49.11
  -1  -2   3 1173.08   51.57
   1   2  -2  933.79   34.33
   1   2  -2  846.46   27.70
  -1  -2   2  978.22   37.56
  -1  -2   2  840.93   31.58
  -1  -2   2  897.50   28.89
   1   2   0 2820.02  127.70
   1   2   0 2568.83  116.02
  -1  -2   0 2599.19  114.44
   1   2   1   11.32    3.22
   1   2   1   13.72    3.05
  -1  -2  -1   14.15    3.68
  -1  -2  -1   13.31    2.61
  -1  -2  -1    9.47    1.03
   1   2   2  469.85   19.71
   1   2   2  454.13   18.85
  -1  -2  -2  474.87   15.85
  -1  -2  -2  449.07   18.27
  -1  -2  -2  473.70   21.10
   1   2   4  830.59   38.63
   1   2   4  952.29   42.34
   1   2   5 1152.67   53.57
  -1  -2  -5 1310.80   61.16
   1   2   6  256.77   14.07
  -1  -2  -6  290.02   17.13
   1   2   7  663.80   31.91
  -1  -2  -7  719.02   36.13
   1   2   8  995.09   47.36
  -1  -2  -8 1032.43   53.10
   1   2   9  138.13    8.70
  -1  -2  -9  139.53   10.78
   1   2  10  727.81   35.16
  -1  -2 -10  707.98   38.70
   1   2  11  351.14   19.27
  -1  -2 -11  356.44   21.57
   1   2  12   36.67    5.16
  -1  -2 -12   35.74    6.65
  -1  -2 -13 1886.98  115.77
  -1  -2 -14  847.44   52.75
  -1  -2 -15  104.40   11.69
  -1  -2 -16   32.56    6.94
   1   3 -16    0.65    3.67
  -1  -3  16   -5.53    5.70
   1   3 -15  356.37   27.01
  -1  -3  15  497.44   42.10
   1   3 -14  321.70   25.61
  -1  -3  14  358.11   29.22
   1   3 -13  148.27   14.13
  -1  -3  13  159.51   18.11
   1   3 -12  177.92   14.76
  -1  -3  12  190.65   19.35
   1   3 -11    2.00    2.81
  -1  -3  11   -0.47    4.06
   1   3 -10  574.51   31.91
  -1  -3  10  578.76   34.80
   1   3  -9  368.83   19.63
  -1  -3   9  360.54   24.12
   1   3  -8  529.99   26.99
  -1  -3   8  578.67   35.04
   1   3  -7  274.51   14.49
  -1  -3   7  282.95   17.95
   1   3  -6  435.28   22.30
  -1  -3   6  432.47   24.97
   1   3  -5  985.56   46.69
  -1  -3   5 1059.35   51.03
   1   3  -3 1686.95   73.36
   1   3  -3 1659.97   62.58
  -1  -3   3 1692.10   63.64
  -1  -3   3 1628.64   73.58
   1   3  -2 1962.10   79.16
   1   3  -2 1978.02   80.72
  -1  -3   2 1807.95   73.29
  -1  -3   2 1890.84   79.60
   1   3  -1  933.19   30.86
   1   3  -1  844.12   33.66
   1   3  -1  887.56   40.72
  -1  -3   1  974.62   39.21
  -1  -3   1  884.21   31.41
  -1  -3   1  900.43   30.73
   1   3   0  154.39    3.97
   1   3   0  147.41    8.72
  -1  -3   0  147.38    7.27
  -1  -3   0  169.37    7.49
  -1  -3   0  156.68    3.94
   1   3   2  461.21   21.39
   1   3   2  346.36   11.32
   1   3   2  378.42   20.18
  -1  -3  -2  406.62   13.46
   1   3   3 1292.86   56.05
   1   3   3 1036.12   47.36
   1   3   3 1025.71   42.38
  -1  -3  -3 1114.92   43.81
   1   3   4 2273.94  111.80
   1   3   4 2279.77  119.51
  -1  -3  -4 2672.97  131.78
   1   3   5   83.96    6.81
   1   3   5   63.53    5.89
  -1  -3  -5  106.20    7.54
   1   3   6  979.09   49.55
   1   3   6 1019.73   50.87
  -1  -3  -6 1131.83   54.28
   1   3   7  270.37   16.16
   1   3   7  266.71   17.70
  -1  -3  -7  282.78   17.61
   1   3   8    8.02    3.99
   1   3   8    5.14    3.57
  -1  -3  -8    8.03    3.28
   1   3   9  638.27   33.40
   1   3   9  610.05   35.88
  -1  -3  -9  695.79   36.93
   1   3  10 1333.07   79.92
   1   3  10 1359.53   71.69
  -1  -3 -10 1367.23   71.64
   1   3  11  924.91   49.28
   1   3  11 1009.09   58.60
  -1  -3 -11  964.48   53.31
   1   3  12   43.88    5.62
   1   3  12   61.77    8.60
  -1  -3 -12   30.01    6.05
   1   3  13  549.17   32.63
   1   3  13  584.36   43.16
  -1  -3 -13  498.13   33.30
   1   3  14  454.15   35.78
  -1  -3 -14  338.16   24.80
   1   3  15  529.88   44.22
  -1  -3 -15  402.39   29.42
   1   3  16 1582.80  115.70
  -1  -3 -16 1116.72   74.10
   1   3  17  195.20   22.05
   1   4 -16   59.11   10.22
  -1  -4  16   97.45   13.11
   1   4 -15   57.77    8.65
  -1  -4  15   59.27   12.84
   1   4 -14  105.57   12.82
  -1  -4  14  102.45   15.66
   1   4 -13  479.80   33.62
  -1  -4  13  502.65   40.86
   1   4 -12  457.02   30.88
  -1  -4  12  439.87   35.08
   1   4 -11 1453.89   86.27
  -1  -4  11 1426.85   89.92
   1   4 -10   68.91    7.71
  -1  -4  10   55.89    9.13
   1   4  -9   36.89    5.79
  -1  -4   9   41.63    5.31
   1   4  -8  280.60   16.41
  -1  -4   8  262.87   18.44
   1   4  -7 2408.06  136.59
  -1  -4   7 2589.75  147.16
   1   4  -6  304.03   17.11
  -1  -4   6  313.81   17.44
   1   4  -5  143.44   11.51
  -1  -4   5  146.78   10.35
   1   4  -4    7.99    1.12
  -1  -4   4   12.84    2.79
  -1  -4   4   14.66    1.05
   1   4  -3   36.05    2.33
   1   4  -3   41.52    2.95
  -1  -4   3   50.35    3.44
  -1  -4   3   39.30    2.28
   1   4  -2 1812.12   73.00
   1   4  -2 1676.13   81.79
   1   4  -2 1567.51   63.56
  -1  -4   2 1579.77   63.17
  -1  -4   2 1687.18   68.73
   1   4  -1  135.19    4.41
   1   4  -1  132.76    7.10
   1   4  -1  132.56   10.70
  -1  -4   1  133.44    4.98
  -1  -4   1  131.38    6.20
   1   4   1   41.50    6.60
  -1  -4  -1   27.15    1.49
  -1  -4  -1   27.14    1.63
   1   4   2 1032.55   50.96
   1   4   2 1161.74   55.09
  -1  -4  -2 1080.35   38.94
  -1  -4  -2 1022.56   37.51
   1   4   3  712.52   36.43
   1   4   3  704.09   26.54
  -1  -4  -3  764.69   28.23
   1   4   4  937.91   40.15
   1   4   4  943.85   48.73
  -1  -4  -4 1062.87   49.88
   1   4   5 1678.39   81.81
   1   4   5 1769.00   88.40
  -1  -4  -5 1844.73   92.17
   1   4   6 1988.19  102.57
   1   4   6 1987.36  107.81
  -1  -4  -6 2135.30  110.77
   1   4   7 6118.59  413.55
   1   4   7 5744.85  387.08
  -1  -4  -7 6468.32  421.89
   1   4   8  508.27   29.42
   1   4   8  490.99   28.46
  -1  -4  -8  530.96   28.35
   1   4   9  375.32   22.63
   1   4   9  351.81   22.71
  -1  -4  -9  376.63   21.47
   1   4  10   90.90   10.22
   1   4  10  108.42    8.71
  -1  -4 -10   71.33    7.18
   1   4  11  524.76   35.74
   1   4  11  532.66   32.20
  -1  -4 -11  513.75   29.77
   1   4  12   75.92   10.24
   1   4  12   58.46    7.85
  -1  -4 -12   52.49    7.70
   1   4  13  148.47   16.66
   1   4  13  134.38   11.65
  -1  -4 -13  121.15   11.87
   1   4  14  108.11   11.06
   1   4  14  117.67   13.35
  -1  -4 -14  132.74   11.33
   1   4  15   83.36   12.31
  -1  -4 -15   51.18    6.64
   1   4  16   21.72    9.85
   1   4  17  456.44   46.56
   1   5 -16   10.50    6.70
  -1  -5  16   16.01    9.52
   1   5 -15  261.82   25.70
  -1  -5  15  282.79   29.96
   1   5 -14   24.29    6.80
  -1  -5  14   14.62    8.64
   1   5 -13   34.91    7.59
  -1  -5  13   25.48    8.92
   1   5 -12  180.56   16.17
  -1  -5  12  175.98   16.52
   1   5 -11  143.02   13.15
  -1  -5  11  119.75   12.28
   1   5 -10  367.51   23.91
  -1  -5  10  366.48   25.07
   1   5  -9  187.96   14.09
  -1  -5   9  178.12   13.75
   1   5  -8   52.86    6.97
  -1  -5   8   47.12    6.44
   1   5  -7  271.13   16.92
  -1  -5   7  238.98   16.69
   1   5  -6    6.47    4.52
  -1  -5   6    9.57    3.37
   1   5  -5 2882.45  163.63
   1   5  -5 2642.61  113.85
  -1  -5   5 2836.12  151.69
   1   5  -4  234.62    7.73
  -1  -5   4  302.95   12.86
  -1  -5   4  238.67    7.48
   1   5  -3  247.23    9.99
  -1  -5   3  265.97   10.83
  -1  -5   3  271.79   10.07
   1   5  -2   20.70    2.16
   1   5  -2   25.78    2.59
   1   5  -2   25.97    6.22
  -1  -5   2   19.16    1.91
  -1  -5   2   16.20    1.87
   1   5  -1  490.54   16.16
   1   5  -1  443.78   24.55
   1   5  -1  440.22   20.44
  -1  -5   1  465.87   15.37
   1   5   0  382.58   19.10
   1   5   0  400.22   12.21
   1   5   0  369.90   18.70
  -1  -5   0  394.41   11.97
   1   5   1  206.29   11.76
  -1  -5  -1  184.58    5.72
   1   5   2  108.60    8.15
  -1  -5  -2   72.81    3.10
  -1  -5  -2   66.76    3.14
   1   5   3  717.24   39.32
   1   5   3  790.28   42.29
  -1  -5  -3  739.21   28.13
  -1  -5  -3  803.36   29.67
   1   5   4  110.65   11.22
   1   5   4   94.01    6.23
  -1  -5  -4  146.27   11.32
   1   5   5 1631.11   78.38
   1   5   5 1660.17   87.39
  -1  -5  -5 1833.32   94.88
   1   5   6   24.17    5.91
   1   5   6   28.76    3.75
  -1  -5  -6   25.15    5.11
   1   5   7  882.36   44.22
   1   5   7  918.03   50.17
  -1  -5  -7  970.36   47.09
   1   5   8 1160.95   66.08
   1   5   8 1097.30   59.65
  -1  -5  -8 1126.25   58.17
   1   5   9 4655.72  309.03
   1   5   9 4599.18  300.48
  -1  -5  -9 4596.91  292.55
   1   5  10 5264.68  365.48
   1   5  10 5455.64  379.44
  -1  -5 -10 5092.05  342.68
   1   5  11   29.21    6.50
   1   5  11   23.23    6.16
  -1  -5 -11   28.17    4.51
   1   5  12  129.31   14.41
   1   5  12  146.05   13.03
  -1  -5 -12   91.96    9.24
   1   5  13  136.90   13.00
   1   5  13   90.99   10.25
  -1  -5 -13   65.32    7.39
   1   5  14 2247.80  156.10
   1   5  14 2209.97  138.72
  -1  -5 -14 1687.64  106.01
   1   5  15 1773.45  123.63
  -1  -5 -15 1243.38   78.62
   1   5  16    6.93    7.32
   1   5  17   14.93    9.14
   1   6 -15    5.49    6.08
  -1  -6  15   12.10    7.35
   1   6 -14   37.85    8.95
  -1  -6  14   31.39    9.79
   1   6 -13    5.09    4.24
  -1  -6  13   -2.91    4.77
   1   6 -12  333.60   26.84
  -1  -6  12  334.73   27.67
   1   6 -11  504.14   34.87
  -1  -6  11  533.87   37.49
   1   6 -10  113.82   12.02
  -1  -6  10  118.68   11.14
   1   6  -9    9.92    5.15
  -1  -6   9    7.83    4.28
   1   6  -8  170.64   14.77
  -1  -6   8  165.05   13.30
   1   6  -7  310.63   19.77
  -1  -6   7  314.61   18.42
   1   6  -6  957.95   49.37
  -1  -6   6  991.99   50.50
   1   6  -5  347.40   11.97
  -1  -6   5  376.21   11.95
  -1  -6   5  367.13   17.90
   1   6  -4 4015.33  215.62
  -1  -6   4 4296.95  228.23
  -1  -6   4 4247.66  242.86
   1   6  -3 1396.50   62.10
   1   6  -3 1486.45   76.02
  -1  -6   3 1539.05   68.36
   1   6  -2 1038.70   45.73
   1   6  -2 1088.89   58.06
  -1  -6   2 1078.42   43.20
   1   6  -1   41.10    5.29
   1   6  -1   41.94    4.41
   1   6  -1   27.97    1.95
  -1  -6   1   28.83    2.16
   1   6   0 2814.93  155.54
   1   6   0 2996.10  135.46
   1   6   0 2949.59  166.69
  -1  -6   0 2896.50  131.27
   1   6   1 1499.87   77.97
   1   6   1 1459.33   78.42
  -1  -6  -1 1457.52   54.55
   1   6   2 2452.06  135.96
  -1  -6  -2 2281.55  100.78
  -1  -6  -2 2441.11  106.57
   1   6   3 6287.93  427.01
   1   6   3 6280.30  432.94
  -1  -6  -3 6806.16  412.71
   1   6   4  156.93   12.23
   1   6   4  172.12   12.59
  -1  -6  -4  164.98    7.48
   1   6   5   63.44    8.74
   1   6   6  215.62   11.69
   1   6   6  246.44   15.55
  -1  -6  -6  230.55   16.04
   1   6   7 3287.43  204.20
   1   6   7 3130.95  181.18
  -1  -6  -7 3301.78  194.66
   1   6   8  461.01   26.19
   1   6   8  413.95   23.45
  -1  -6  -8  377.92   22.50
   1   6   9   88.80    7.96
   1   6   9   93.30    8.44
  -1  -6  -9   80.89    8.01
   1   6  10  515.07   31.63
   1   6  10  524.00   31.99
  -1  -6 -10  460.86   28.34
   1   6  11   28.76    7.05
   1   6  11   32.92    6.74
  -1  -6 -11   32.44    6.11
   1   6  12   79.10    9.78
   1   6  12   82.99   10.26
  -1  -6 -12   38.28    5.97
   1   6  13  130.54   14.74
   1   6  13  129.08   12.60
  -1  -6 -13  105.13   10.95
   1   6  14   94.39   12.12
   1   6  14   94.61   11.73
  -1  -6 -14   61.44    7.39
   1   6  15  366.07   33.16
   1   6  15  356.96   29.28
  -1  -6 -15  271.84   21.74
   1   6  16  253.81   28.37
   1   6  17   42.34   12.80
   1   7 -14  306.45   28.54
  -1  -7  14  252.97   27.21
   1   7 -13  519.47   39.56
  -1  -7  13  469.73   39.60
   1   7 -12  209.40   20.51
  -1  -7  12  183.22   18.88
   1   7 -11  305.88   25.14
  -1  -7  11  294.48   23.70
   1   7 -10  331.86   25.28
  -1  -7  10  305.34   23.27
   1   7  -9   90.91   11.52
  -1  -7   9   81.77    8.99
   1   7  -8   22.43    6.23
  -1  -7   8    4.65    4.35
   1   7  -7    8.13    4.00
  -1  -7   7   -1.08    3.12
   1   7  -6  127.12   12.44
  -1  -7   6  125.23    9.01
   1   7  -5  753.73   29.39
  -1  -7   5  827.31   37.25
   1   7  -4  244.31   11.46
  -1  -7   4  258.53   11.76
   1   7  -3  345.08   15.65
   1   7  -3  368.32   24.14
  -1  -7   3  384.60   15.19
   1   7  -2  747.38   42.91
   1   7  -2  730.44   33.07
  -1  -7   2  767.19   29.94
   1   7  -1  769.97   40.32
   1   7  -1  788.65   28.85
   1   7  -1  777.18   38.00
  -1  -7   1  773.01   27.75
   1   7   0  200.87   13.42
   1   7   0  200.59    7.06
   1   7   0  196.61   12.94
  -1  -7   0  201.82    6.86
   1   7   1  393.38   23.10
   1   7   1  407.07   25.84
  -1  -7  -1  417.50   13.84
   1   7   2   44.51    6.73
  -1  -7  -2   30.36    2.11
   1   7   3 6332.85  436.37
  -1  -7  -3 6054.21  367.09
  -1  -7  -3 6339.04  383.52
   1   7   4 4131.73  252.68
   1   7   4 3939.42  242.25
  -1  -7  -4 3632.91  197.49
   1   7   5  898.77   54.12
   1   7   5  883.19   48.10
  -1  -7  -5  879.69   38.02
   1   7   6  789.58   43.30
   1   7   6  774.57   45.24
  -1  -7  -6  748.80   34.45
   1   7   7  134.17   11.82
   1   7   7   79.64    7.60
  -1  -7  -7   79.59    5.46
   1   7   8  242.57   16.31
   1   7   8  218.45   14.21
  -1  -7  -8  201.29   13.88
   1   7   9 1310.34   73.45
   1   7   9 1426.43   86.68
  -1  -7  -9 1220.02   68.02
   1   7  10   21.96    6.25
   1   7  10    9.23    4.85
  -1  -7 -10   14.85    4.97
   1   7  11 1675.59  110.13
   1   7  11 1597.54   98.64
  -1  -7 -11 1517.32   90.12
   1   7  12  108.77   12.87
   1   7  12  144.62   15.12
  -1  -7 -12  114.86   10.02
   1   7  13  208.51   20.69
   1   7  13  193.48   18.61
  -1  -7 -13  142.61   12.83
   1   7  14   16.12    6.38
   1   7  14   13.43    6.81
  -1  -7 -14    7.65    3.74
   1   7  15   51.38   10.60
   1   7  15   68.91   11.96
   1   7  16   87.43   15.64
   1   8 -14  109.02   16.52
   1   8 -13   46.08   10.08
  -1  -8  13   33.82    9.75
   1   8 -12  171.50   19.42
  -1  -8  12  146.04   17.08
   1   8 -11   15.66    7.29
  -1  -8  11   15.35    5.75
   1   8 -10  654.19   47.26
  -1  -8  10  600.73   39.77
   1   8  -9 2211.85  144.97
  -1  -8   9 1903.62  119.92
   1   8  -8  305.22   23.84
  -1  -8   8  275.07   18.95
   1   8  -7  104.09    9.89
  -1  -8   7   94.04    7.86
   1   8  -6  104.26   11.09
   1   8  -6   68.71    3.47
  -1  -8   6   80.30    6.90
   1   8  -5  176.69    8.36
  -1  -8   5  175.66   10.25
   1   8  -4 2509.49  126.28
  -1  -8   4 2538.42  130.46
   1   8  -3 1693.85   83.78
   1   8  -3 1809.41  107.73
  -1  -8   3 1830.15   84.68
   1   8  -2 1039.11   50.54
   1   8  -2 1054.57   56.26
  -1  -8   2 1054.04   42.76
   1   8  -1 1047.13   51.77
   1   8  -1 1028.48   54.62
  -1  -8   1 1027.92   39.33
   1   8   0   10.64    3.23
   1   8   0    8.83    4.22
  -1  -8   0    3.91    0.86
   1   8   1 1068.95   59.86
   1   8   1 1052.52   55.19
  -1  -8  -1  998.33   36.51
   1   8   2  534.45   28.46
   1   8   2  546.47   31.60
  -1  -8  -2  552.53   19.50
   1   8   3   27.32    6.23
  -1  -8  -3   24.38    1.96
  -1  -8  -3   27.48    2.22
   1   8   4  426.92   28.21
  -1  -8  -4  417.91   17.54
   1   8   5 1262.26   70.70
   1   8   5 1256.04   70.58
  -1  -8  -5 1190.55   53.29
   1   8   6  148.01   13.85
   1   8   6  138.04   12.35
  -1  -8  -6  126.22    7.35
   1   8   7  529.38   32.65
   1   8   7  574.18   38.40
  -1  -8  -7  570.28   27.73
   1   8   8  721.26   41.63
   1   8   8  799.56   52.68
  -1  -8  -8  758.37   39.23
   1   8   9  193.25   15.52
   1   8   9   94.83   10.49
  -1  -8  -9  111.77   10.20
   1   8  10   79.38    8.31
   1   8  10  172.86   14.32
  -1  -8 -10   83.40    7.54
   1   8  11  273.85   25.98
   1   8  12  116.12   12.71
   1   8  12   83.47    9.65
  -1  -8 -12   57.82    7.75
   1   8  13  239.45   21.31
   1   8  13  272.96   26.09
  -1  -8 -13  170.25   15.95
   1   8  14   43.97    9.30
   1   8  14   50.12   10.32
  -1  -8 -14   25.70    6.35
   1   8  15   13.29    8.10
   1   8  15   23.39    8.31
   1   8  16    2.19    5.50
   1   9 -13  552.84   48.00
   1   9 -12   31.62    7.64
   1   9 -11  333.11   30.43
   1   9 -10  729.87   53.65
   1   9  -9  168.77   15.37
   1   9  -8  243.00   21.51
   1   9  -7  332.84   25.73
  -1  -9   7  303.61   18.13
   1   9  -6  838.21   34.70
  -1  -9   6  956.18   47.58
   1   9  -5  204.22   10.30
  -1  -9   5  218.90   11.62
   1   9  -4   57.44    8.87
   1   9  -4   50.53    3.90
  -1  -9   4   42.93    4.46
   1   9  -3 1199.38   59.95
   1   9  -3 1334.82   79.20
  -1  -9   3 1222.85   53.47
   1   9  -2 1353.86   80.13
   1   9  -2 1268.69   65.11
  -1  -9   2 1243.27   52.60
   1   9  -1  688.58   37.67
   1   9  -1  706.74   40.46
  -1  -9   1  660.09   24.74
   1   9   0   33.74    5.25
   1   9   0   30.76    7.66
   1   9   1  311.77   20.17
   1   9   1  325.15   22.14
  -1  -9  -1  291.59   10.13
   1   9   2  640.64   37.96
   1   9   2  646.58   37.39
  -1  -9  -2  578.41   21.45
   1   9   3  485.01   30.88
   1   9   3  503.43   31.44
  -1  -9  -3  456.74   17.74
   1   9   4  805.22   48.55
  -1  -9  -4  719.69   30.39
   1   9   5 1912.89  116.56
  -1  -9  -5 1867.82   91.19
   1   9   6  100.13    9.35
   1   9   6   93.83    9.72
  -1  -9  -6   67.28    5.07
   1   9   7  400.16   25.81
   1   9   7  436.99   33.00
  -1  -9  -7  418.39   21.38
   1   9   8  172.38   15.12
   1   9   8  110.65   11.71
  -1  -9  -8  111.25    8.52
   1   9   9  263.26   19.26
   1   9   9  337.97   25.72
  -1  -9  -9  295.79   18.40
   1   9  10  246.02   20.21
   1   9  10  302.54   28.85
  -1  -9 -10  281.65   19.21
   1   9  11  165.06   19.95
  -1  -9 -11  158.11   12.86
   1   9  12  836.08   66.40
  -1  -9 -12  756.77   49.79
   1   9  13  213.94   25.22
  -1  -9 -13  236.37   20.75
   1   9  14   27.38    9.53
  -1  -9 -14   14.60    7.48
   1   9  15   23.16    8.78
  -1  -9 -15   11.70    7.47
   1  10 -12    3.00    6.19
   1  10 -11  119.57   16.43
   1  10 -10 2198.63  161.50
   1  10  -9  493.10   40.51
   1  10  -8   27.33    8.75
   1  10  -7  467.22   35.59
   1  10  -6  108.91    6.00
   1  10  -5    4.88    2.13
   1  10  -4  777.50   38.13
   1  10  -4  911.07   59.13
   1  10  -3   37.05    8.38
   1  10  -3   19.85    3.40
   1  10  -2  218.32   19.55
   1  10  -2  186.76   12.25
   1  10  -1  141.65   11.07
   1  10  -1  165.60   13.56
   1  10   0  127.28   13.48
   1  10   0  107.14   10.41
   1  10   1  197.06   16.29
   1  10   1  198.07   18.48
   1  10   2  238.05   17.97
   1  10   2  252.45   20.36
   1  10   3   15.78    4.80
   1  10   3   15.15    5.95
   1  10   4   85.53   10.90
   1  10   4   88.40   11.67
   1  10   5  193.95   18.07
   1  10   6   29.43    7.65
   1  10   6   15.92    6.09
   1  10   7   36.07    7.71
   1  10   7   41.41    7.36
   1  10   8   67.21   12.80
   1  10   8   51.04    8.53
   1  10   9  417.03   35.96
   1  10   9  324.60   25.77
   1  10  10   80.16   10.58
   1  10  10   51.01    8.23
   1  10  11   62.07   12.06
   1  10  12  235.25   26.48
   1  10  13 1491.49  119.55
   1  10  14   31.64   11.46
   1  10  15   29.79   11.30
   1  11 -11   -4.21    6.57
   1  11 -10   11.59    8.02
   1  11  -9  258.76   28.75
   1  11  -8   88.80   14.33
   1  11  -7   36.32   10.42
   1  11  -5   55.10    4.61
   1  11  -5  102.53   12.90
   1  11  -4  644.51   46.74
   1  11  -4  550.51   28.49
   1  11  -3   25.08    7.66
   1  11  -3   15.04    3.30
   1  11  -2  429.89   25.29
   1  11  -2  465.09   32.84
   1  11  -1  124.02   12.47
   1  11  -1  112.82   10.27
   1  11   0  108.17   11.99
   1  11   0  160.13   12.80
   1  11   1  600.77   39.98
   1  11   1  573.21   39.93
   1  11   2   54.70    7.75
   1  11   2   24.35    6.84
   1  11   3   33.28    8.72
   1  11   3   44.25    9.08
   1  11   4    9.06    6.30
   1  11   4   13.95    6.11
   1  11   5 2303.92  158.86
   1  11   5 2247.39  150.35
   1  11   6 1678.33  110.86
   1  11   7  210.68   23.78
   1  11   7  176.47   17.90
   1  11   8  138.63   16.13
   1  11   8  180.18   18.12
   1  11   9  163.27   17.75
   1  11   9  260.14   26.88
   1  11  10  363.23   36.13
   1  11  11  483.01   45.41
   1  11  12  572.02   54.15
   1  11  13  236.17   30.87
   1  11  14  225.91   28.36
   1  12 -10   20.02    9.53
   1  12  -9   22.66   10.11
   1  12  -8    1.52    4.56
   1  12  -5   27.07    9.47
   1  12  -4   30.47    3.64
   1  12  -4   35.31    9.53
   1  12  -3  268.23   17.52
   1  12  -3  334.13   29.96
   1  12  -2  231.68   16.73
   1  12  -2  273.30   27.49
   1  12  -1  639.09   41.24
   1  12  -1  725.93   50.22
   1  12   0  357.41   32.04
   1  12   0  315.31   24.67
   1  12   1  219.54   23.33
   1  12   1  196.12   18.08
   1  12   2   75.11    9.77
   1  12   2   59.81   10.22
   1  12   3 1155.95   81.75
   1  12   3 1180.56   77.76
   1  12   4 2021.15  140.92
   1  12   4 1934.38  135.12
   1  12   5  180.45   20.74
   1  12   5  225.01   23.65
   1  12   6    3.19    5.20
   1  12   7 1991.10  140.11
   1  12   8  637.86   49.15
   1  12   8  519.01   41.49
   1  12   9  322.96   32.12
   1  12   9  223.57   22.52
   1  12  10  212.97   26.51
   1  12  11  360.08   39.67
   1  12  12  714.23   65.32
   1  12  13  375.84   42.58
   1  13  -8  156.14   21.97
   1  13  -5   75.36   12.02
   1  13  -4  274.76   25.28
   1  13  -3   19.73    8.46
   1  13  -3   15.37    3.89
   1  13  -2   25.33    4.87
   1  13  -2   25.99    9.62
   1  13  -1  310.88   26.31
   1  13  -1  263.28   21.31
   1  13   0  165.91   17.35
   1  13   0   70.57   12.34
   1  13   1  416.54   33.17
   1  13   1  453.89   35.96
   1  13   2    2.32    7.06
   1  13   2    9.33    5.70
   1  13   3  685.25   53.94
   1  13   3  742.90   58.64
   1  13   4  488.39   43.28
   1  13   4  515.85   39.12
   1  13   5  706.02   55.99
   1  13   5  740.50   59.03
   1  13   6   56.06   11.59
   1  13   6   44.36    9.90
   1  13   7   94.83   13.44
   1  13   8    1.55    4.71
   1  13   9   85.69   15.92
   1  13  10  193.89   23.93
   1  13  11  144.05   21.87
   1  14  -6   -1.10    4.59
   1  14  -5    8.55    8.43
   1  14  -4  168.51   23.29
   1  14  -3  622.77   51.47
   1  14  -2  413.85   39.16
   1  14  -2  296.30   23.73
   1  14  -1  603.06   49.36
   1  14  -1  488.07   37.04
   1  14   0    3.39    4.81
   1  14   0    7.64    7.14
   1  14   1   50.05   11.43
   1  14   1  126.28   15.61
   1  14   2   64.48   10.88
   1  14   2   57.34   12.62
   1  14   3  101.62   14.46
   1  14   3  103.25   17.27
   1  14   4  212.22   25.35
   1  14   4  207.64   24.97
   1  14   5   18.57    8.74
   1  14   5   19.03    9.54
   1  14   6   84.51   12.05
   1  14   6   67.20   13.94
   1  14   7  710.61   58.99
   1  14   7  609.45   52.35
   1  14   8   59.45   11.23
   1  14  10    4.25    7.67
   1  15  -3   77.31   17.00
   1  15  -2  228.24   23.13
   1  15  -2  121.02   13.47
   1  15  -1  101.21   12.58
   1  15  -1  126.42   18.97
   1  15   0  406.39   36.20
   1  15   0  434.67   39.16
   1  15   1   72.41   10.40
   1  15   1   27.95   10.52
   1  15   2   62.12   12.28
   1  15   2   69.34   11.74
   1  15   3    1.79    4.99
   1  15   3   -0.89    5.50
   1  15   4  219.03   27.61
   1  15   4  253.10   29.19
   1  15   5  408.28   40.76
   1  15   5  409.71   42.90
   1  15   6  675.43   61.13
   1  15   6  719.62   63.91
   1  15   7   30.36    9.77
   1  15   7   22.65   11.66
  -2  15   5  239.29   30.07
  -2  15   4 1440.65  112.44
  -2  15   3  459.14   40.56
  -2  15   3  406.63   40.32
  -2  15   2   21.96    9.84
  -2  15   2   16.53    9.42
  -2  15   1  161.59   20.80
  -2  15   1  158.56   20.44
  -2  15   0  323.04   32.65
  -2  15   0  353.53   36.49
  -2  15  -1   82.03   13.36
  -2  15  -1   98.47   17.25
  -2  14   7  606.78   57.96
  -2  14   6  437.51   47.04
  -2  14   5   38.84   11.71
  -2  14   4  173.16   17.74
  -2  14   4  184.23   20.99
  -2  14   3   96.37   15.45
  -2  14   3  124.37   13.74
  -2  14   2   83.82   13.65
  -2  14   2   84.76   14.33
  -2  14   1   23.17    8.17
  -2  14   1   16.94    9.42
  -2  14   0   64.31   13.42
  -2  14   0   58.00   10.81
  -2  14  -1  100.35   16.67
  -2  14  -1   97.26   12.31
  -2  14  -2  437.22   40.45
  -2  14  -2  344.55   29.14
  -2  14  -3  448.47   34.91
  -2  14  -3  567.18   50.04
  -2  14  -4   22.68   10.91
  -2  14  -5   33.37    9.31
  -2  13  10  910.53   83.22
  -2  13   9  581.38   58.70
  -2  13   8   16.34    7.93
  -2  13   6   31.62   10.64
  -2  13   5  348.36   30.10
  -2  13   5  409.13   39.16
  -2  13   4  778.82   57.35
  -2  13   4  806.53   63.99
  -2  13   3  167.46   19.61
  -2  13   3  180.02   21.06
  -2  13   2   47.34    9.63
  -2  13   2   34.85    9.50
  -2  13   1  179.39   20.46
  -2  13   1  178.24   19.93
  -2  13   0  240.88   23.17
  -2  13   0  243.87   25.72
  -2  13  -1  177.27   22.09
  -2  13  -2    7.66    6.23
  -2  13  -2    2.18    4.22
  -2  13  -3  553.97   46.27
  -2  13  -3  426.46   29.62
  -2  13  -4   62.80   12.95
  -2  13  -4   38.01    6.56
  -2  13  -5   27.18    8.22
  -2  13  -6  830.10   71.02
  -2  13  -7   41.88   11.76
  -2  12  11   63.07   14.93
  -2  12  10  294.29   36.35
  -2  12   9   18.56    7.50
  -2  12   8  153.22   20.62
  -2  12   5  114.92   12.43
  -2  12   5  161.38   14.97
  -2  12   4  380.19   34.01
  -2  12   4  361.79   29.19
  -2  12   3   14.38    7.53
  -2  12   3   16.56    7.08
  -2  12   2  175.71   15.68
  -2  12   2  127.23   14.28
  -2  12   1  684.02   49.43
  -2  12   1  685.23   49.16
  -2  12   0  106.61   12.78
  -2  12   0   63.57   11.95
  -2  12  -1   41.20    7.39
  -2  12  -1   33.25    7.97
  -2  12  -2   54.59    8.68
  -2  12  -2   74.54   12.03
  -2  12  -3  213.73   21.65
  -2  12  -3  172.31   15.25
  -2  12  -4  129.83   13.41
  -2  12  -4  108.74   10.62
  -2  12  -5  181.14   20.91
  -2  12  -6   16.78    8.37
  -2  12  -7  193.90   22.38
  -2  12  -8  582.54   50.80
  -2  11  13    9.83    9.19
  -2  11  12   99.59   17.31
  -2  11  11  385.27   40.00
  -2  11  10  476.80   46.77
  -2  11   9  522.77   46.83
  -2  11   8  182.59   22.65
  -2  11   7  551.74   46.88
  -2  11   6   66.21    8.30
  -2  11   5  167.44   15.70
  -2  11   4  317.28   25.30
  -2  11   4  344.86   29.68
  -2  11   3  110.17   13.35
  -2  11   3  144.92   15.54
  -2  11   2   24.60    6.94
  -2  11   2    6.45    6.43
  -2  11   1  724.39   47.77
  -2  11   1  723.46   48.01
  -2  11   0  529.07   37.96
  -2  11   0  490.45   33.78
  -2  11  -1   21.92    6.03
  -2  11  -1   14.47    5.87
  -2  11  -2  382.00   24.86
  -2  11  -2  399.14   30.76
  -2  11  -3  837.16   48.78
  -2  11  -3  981.65   65.08
  -2  11  -4  992.91   68.85
  -2  11  -4  870.89   49.71
  -2  11  -5   30.45    3.87
  -2  11  -5   39.28    9.97
  -2  11  -6  182.36   20.32
  -2  11  -7  215.89   20.98
  -2  11  -8  146.50   20.00
   2 -10 -14   13.84    6.83
  -2  10  14   -0.58    8.59
   2 -10 -13   95.29   13.82
  -2  10  13   95.69   16.44
   2 -10 -12   38.06    8.97
  -2  10  12   46.51   12.02
   2 -10 -11  137.66   15.47
  -2  10  11  166.77   21.40
   2 -10 -10   62.35    9.47
  -2  10  10   57.21   12.64
   2 -10  -9  531.11   36.50
  -2  10   9  613.86   50.57
   2 -10  -8 1153.97   70.76
  -2  10   8 1393.83   97.29
   2 -10  -7    2.28    4.06
  -2  10   7    4.65    3.04
  -2  10   7   15.11    4.80
   2 -10  -6   65.33    8.37
  -2  10   6   62.78    8.01
  -2  10   6  107.47   10.72
   2 -10  -5  161.25   11.24
  -2  10   5  156.97   14.34
   2 -10  -4  912.87   47.48
  -2  10   4  962.35   57.31
  -2  10   4  979.02   60.71
   2 -10  -3  337.25   18.70
  -2  10   3  364.55   27.84
  -2  10   3  356.15   25.47
   2 -10  -2  146.15   10.15
  -2  10   2  163.08   15.00
  -2  10   2  154.41   15.61
   2 -10  -1   47.46    5.66
  -2  10   1   60.74    8.85
  -2  10   1   65.80    7.86
   2 -10   0  426.31   23.24
  -2  10   0  422.69   29.67
  -2  10   0  416.73   27.49
   2 -10   1  144.57   10.12
  -2  10  -1  146.82   11.53
  -2  10  -1  155.19   13.21
   2 -10   2   68.02    6.10
  -2  10  -2   81.94   11.03
  -2  10  -2   77.97    8.21
   2 -10   3   45.19    5.55
  -2  10  -3   54.29    8.92
  -2  10  -3   32.37    5.18
   2 -10   4  263.59   17.18
  -2  10  -4  257.90   15.50
  -2  10  -4  288.25   20.46
   2 -10   5  242.37   16.59
  -2  10  -5  244.98   14.08
  -2  10  -5  305.13   25.02
   2 -10   6   37.45    7.17
  -2  10  -6   76.83   11.82
  -2  10  -6   51.18    3.81
   2 -10   7   64.46    8.48
  -2  10  -7  116.86   11.54
  -2  10  -8  199.61   22.08
  -2  10 -10  566.46   47.08
  -2  10 -11  163.92   22.77
  -2  10 -12   25.39    8.33
   2  -9 -14   12.06    7.26
  -2   9  14    8.37    8.40
   2  -9 -13    9.59    6.99
  -2   9  13   16.59    8.49
   2  -9 -12  161.43   18.20
  -2   9  12  183.48   19.15
   2  -9 -11   54.59    8.70
  -2   9  11   44.81   11.34
   2  -9 -10   59.16    8.40
  -2   9  10   49.90   11.98
   2  -9  -9   15.68    5.92
  -2   9   9   25.54    6.43
   2  -9  -8  814.02   48.91
  -2   9   8  854.79   63.00
   2  -9  -7 2383.56  141.33
  -2   9   7 2466.17  141.83
  -2   9   7 2620.90  169.92
   2  -9  -6 1030.15   56.33
  -2   9   6 1043.21   56.75
  -2   9   6 1076.19   66.74
   2  -9  -5  316.11   18.50
  -2   9   5  310.03   19.01
  -2   9   5  346.30   26.87
   2  -9  -4  718.11   36.78
  -2   9   4  692.73   39.70
   2  -9  -3  983.20   50.17
  -2   9   3  989.86   61.09
  -2   9   3  964.97   55.12
   2  -9  -2  156.90   10.81
  -2   9   2  165.70   13.76
  -2   9   2  166.62   13.02
   2  -9  -1  539.91   26.42
  -2   9   1  560.69   33.40
  -2   9   1  552.78   34.39
   2  -9   0  236.45   13.21
  -2   9   0  220.25   17.38
  -2   9   0  226.02   16.76
   2  -9   1  492.11   24.69
  -2   9  -1  516.86   32.00
  -2   9  -1  505.50   29.44
   2  -9   2  391.39   20.76
  -2   9  -2  391.59   22.43
  -2   9  -2  397.70   27.27
   2  -9   3 1793.44   95.29
  -2   9  -3 1866.39  107.28
  -2   9  -3 1800.74   98.57
   2  -9   4  609.41   33.87
  -2   9  -4  655.38   37.88
  -2   9  -4  616.73   30.35
   2  -9   5   21.51    4.97
  -2   9  -5   33.76    8.00
  -2   9  -5   25.62    3.02
   2  -9   6  458.50   28.56
  -2   9  -6  568.13   38.13
  -2   9  -6  489.12   22.52
   2  -9   7    8.27    4.24
  -2   9  -7    8.53    1.44
  -2   9  -7   15.05    6.24
   2  -9   8  847.00   52.89
   2  -9   9  135.59   14.66
   2  -9  10   63.54   11.07
  -2   9 -10   90.05   11.69
   2  -9  11  281.19   27.10
  -2   9 -11  326.23   28.59
   2  -9  12   13.30    7.80
  -2   9 -12   18.40    8.40
   2  -9  13   39.64   12.07
  -2   9 -13  115.11   16.65
   2  -8 -15  178.62   20.71
  -2   8  15  142.29   19.84
   2  -8 -14  202.75   20.00
  -2   8  14  201.02   23.50
   2  -8 -13   12.96    7.52
  -2   8  13   19.01    8.06
   2  -8 -12  482.48   37.80
  -2   8  12  494.35   42.90
   2  -8 -11  394.68   30.88
  -2   8  11  437.73   38.01
   2  -8 -10  885.90   55.85
  -2   8  10  940.53   67.16
   2  -8  -9  516.92   33.73
  -2   8   9  555.64   40.96
   2  -8  -8  473.34   29.70
  -2   8   8  487.28   36.74
   2  -8  -7    9.94    3.92
  -2   8   7    8.15    5.39
  -2   8   7    5.37    2.31
   2  -8  -6 2594.63  149.23
  -2   8   6 2553.85  143.46
  -2   8   6 2739.66  173.50
   2  -8  -5  545.18   28.88
  -2   8   5  558.05   30.10
  -2   8   5  550.78   36.68
   2  -8  -4 6003.21  403.87
  -2   8   4 6024.54  410.38
   2  -8  -3   47.36    4.38
  -2   8   3   39.70    5.38
   2  -8  -2 1948.43  100.60
  -2   8   2 1959.01  108.80
  -2   8   2 1995.01  114.24
   2  -8  -1  978.99   45.94
  -2   8   1  927.47   51.96
  -2   8   1  967.57   52.60
   2  -8   0   16.51    3.28
  -2   8   0   13.10    4.94
  -2   8   0   16.48    3.85
   2  -8   1  981.08   47.47
  -2   8  -1  989.00   51.60
  -2   8  -1  966.91   50.59
   2  -8   2  238.80   13.23
  -2   8  -2  220.99   13.81
  -2   8  -2  217.33   14.79
   2  -8   3  538.77   27.16
  -2   8  -3  505.98   24.68
  -2   8  -3  523.95   31.25
   2  -8   4  817.75   41.71
  -2   8  -4  827.64   48.55
  -2   8  -4  780.56   36.45
   2  -8   5  426.97   24.23
  -2   8  -5  413.35   18.89
  -2   8  -5  457.75   28.87
   2  -8   6 1251.77   69.19
  -2   8  -6 1383.28   82.74
  -2   8  -6 1186.87   53.98
   2  -8   7  375.17   25.29
  -2   8  -7  353.32   14.65
  -2   8  -7  436.17   30.53
   2  -8   8   30.86    6.63
   2  -8   9  718.72   47.81
   2  -8  10  280.67   25.84
  -2   8 -10  322.11   26.26
   2  -8  11  168.17   19.80
  -2   8 -11  194.23   19.01
   2  -8  12   14.50    7.49
  -2   8 -12   18.17    6.71
   2  -8  13    6.42    6.13
  -2   8 -13    1.58    4.82
   2  -8  14   37.69   10.57
  -2   8 -14   29.20    8.64
   2  -7 -16   71.84   14.67
   2  -7 -15    6.62    7.67
  -2   7  15    9.67    6.72
   2  -7 -14   76.43   13.70
  -2   7  14   67.77   12.21
   2  -7 -13  102.12   13.35
  -2   7  13  110.21   14.51
   2  -7 -12   41.81    8.29
  -2   7  12   31.28    9.44
   2  -7 -11  172.42   16.50
  -2   7  11  152.07   17.23
   2  -7 -10  296.29   23.88
  -2   7  10  306.85   26.53
   2  -7  -9  303.03   22.15
  -2   7   9  325.41   25.59
   2  -7  -8 1553.75   82.70
  -2   7   8 1347.83   66.67
  -2   7   8 1533.63   92.77
   2  -7  -7 3026.43  180.59
  -2   7   7 3045.54  186.45
  -2   7   7 2823.49  156.24
   2  -7  -6  108.98    8.04
  -2   7   6   62.90    5.44
  -2   7   6   81.83   10.55
   2  -7  -5   99.69    8.28
  -2   7   5   96.36    6.87
  -2   7   5  102.27    8.98
   2  -7  -4   16.40    3.84
  -2   7   4   20.79    5.71
  -2   7   4   20.07    3.34
   2  -7  -3 4051.18  239.94
  -2   7   3 4051.37  243.90
   2  -7  -2 2543.10  132.95
  -2   7   2 2573.72  142.25
   2  -7  -1 1788.59   88.53
  -2   7   1 1812.68   96.34
  -2   7   1 1805.38   98.99
   2  -7   0  259.08   13.10
  -2   7   0  249.88   16.50
  -2   7   0  256.57   16.01
   2  -7   1  221.16   12.37
  -2   7  -1  213.21   15.04
  -2   7  -1  227.55   14.07
   2  -7   2 2393.47  125.07
  -2   7  -2 2389.38  136.97
  -2   7  -2 2316.17  122.39
   2  -7   3  911.25   44.56
  -2   7  -3  905.23   41.28
  -2   7  -3  949.70   50.17
   2  -7   4  538.57   27.69
  -2   7  -4  515.19   22.60
  -2   7  -4  537.59   28.47
   2  -7   5  203.16   12.85
  -2   7  -5  194.45    9.15
  -2   7  -5  210.68   16.77
   2  -7   6 1984.47  112.13
  -2   7  -6 2051.63  121.33
  -2   7  -6 1906.25   88.70
   2  -7   7  337.65   22.24
  -2   7  -7  312.10   12.07
  -2   7  -7  348.01   25.17
   2  -7   8  349.79   25.06
   2  -7   9  598.18   41.29
  -2   7  -9  662.32   46.77
   2  -7  10  286.17   24.80
  -2   7 -10  321.31   27.72
   2  -7  11   14.57    7.02
  -2   7 -11   12.48    7.89
   2  -7  12   78.22    9.88
  -2   7 -12   89.26   13.98
   2  -7  13  258.23   25.36
  -2   7 -13  292.35   30.60
   2  -7  14    1.79    4.43
  -2   7 -14    1.86    5.78
   2  -6 -16  434.74   42.46
   2  -6 -15 1060.56   89.06
   2  -6 -14  112.64   12.84
  -2   6  14  118.38   13.24
   2  -6 -13   20.46    8.14
  -2   6  13   22.93    7.42
   2  -6 -12 1343.33   94.50
  -2   6  12 1407.98   92.71
   2  -6 -11 1472.50   95.24
  -2   6  11 1449.86   95.35
   2  -6 -10 1226.31   78.20
  -2   6  10 1365.08   85.14
   2  -6  -9   91.87    9.30
  -2   6   9  135.80   12.32
   2  -6  -8  690.95   38.82
  -2   6   8  678.76   40.99
  -2   6   8  516.53   22.75
   2  -6  -7  842.98   41.94
  -2   6   7  785.22   35.11
  -2   6   7  840.57   44.45
   2  -6  -6 2043.46  110.83
  -2   6   6 2044.36  118.83
  -2   6   6 1983.97   97.33
   2  -6  -5  256.09   15.34
  -2   6   5  247.66   17.49
  -2   6   5  245.31   12.23
   2  -6  -4  483.85   24.39
  -2   6   4  515.97   23.14
  -2   6   4  506.10   29.77
   2  -6  -3  529.12   24.86
  -2   6   3  503.28   23.40
  -2   6   3  532.40   30.38
   2  -6  -2 3109.06  169.58
  -2   6   2 3105.12  172.35
   2  -6  -1 2589.58  132.57
  -2   6   1 2536.42  136.85
  -2   6   1 2549.89  136.81
   2  -6   0 1125.18   51.44
  -2   6   0 1096.87   51.92
  -2   6   0 1093.47   54.43
   2  -6   1  142.59    9.22
  -2   6  -1  150.47   11.39
  -2   6  -1  146.38   10.23
   2  -6   2  505.94   24.15
  -2   6  -2  498.04   23.12
  -2   6  -2  510.20   28.58
   2  -6   3  185.75   11.70
  -2   6  -3  180.87    8.99
  -2   6  -3  182.56   11.28
   2  -6   4   28.46    5.38
  -2   6  -4   42.32    2.95
  -2   6  -4   42.49    6.55
   2  -6   5  434.38   25.26
  -2   6  -5  448.96   26.90
  -2   6  -5  416.89   17.44
   2  -6   6  274.72   18.19
  -2   6  -6  295.34   16.96
  -2   6  -6  277.81   10.98
   2  -6   7  113.65   11.54
   2  -6   8  963.51   58.52
   2  -6   9  839.89   55.46
  -2   6  -9  924.23   58.53
   2  -6  10  324.24   26.60
  -2   6 -10  327.59   28.01
   2  -6  11  824.05   57.74
  -2   6 -11  856.03   61.85
   2  -6  12  547.97   45.38
  -2   6 -12  567.63   46.62
   2  -6  13  189.57   22.37
  -2   6 -13  188.10   23.10
   2  -6  14   61.79   14.50
  -2   6 -14   87.33   13.97
   2  -6  15   32.38   10.95
  -2   6 -15   17.32    9.33
   2  -5 -16   27.32   10.36
   2  -5 -15  109.53   16.47
   2  -5 -14  475.04   36.18
  -2   5  14  470.87   34.68
   2  -5 -13 1808.02  121.31
  -2   5  13 1725.60  112.65
   2  -5 -12    8.68    4.12
  -2   5  12    2.32    4.45
   2  -5 -11   17.08    6.55
  -2   5  11   15.90    5.91
   2  -5 -10    4.16    4.25
  -2   5  10    0.95    4.27
   2  -5  -9 1386.63   81.89
  -2   5   9 1431.34   79.16
   2  -5  -8   30.88    5.92
  -2   5   8   22.51    2.58
  -2   5   8   31.13    4.90
   2  -5  -7  357.32   18.67
  -2   5   7  310.49   12.92
  -2   5   7  362.55   22.10
   2  -5  -6   19.23    4.72
  -2   5   6   30.86    4.54
  -2   5   6   22.07    2.08
   2  -5  -5  158.17    9.14
  -2   5   5  143.29   10.09
  -2   5   5  149.72    7.45
   2  -5  -4 4745.04  288.31
  -2   5   4 4642.84  295.75
  -2   5   4 4660.13  267.29
   2  -5  -3   95.03    6.78
  -2   5   3   96.38    9.31
  -2   5   3   70.01    5.17
   2  -5  -2  495.39   22.95
  -2   5   2  503.96   28.98
  -2   5   2  478.87   22.10
   2  -5  -1 2208.67  109.03
  -2   5   1 2165.10  109.75
   2  -5   0  321.13   14.97
  -2   5   0  295.75   16.78
  -2   5   0  303.12   17.02
   2  -5   1 1820.55   87.19
  -2   5  -1 1775.36   86.44
  -2   5  -1 1759.65   89.40
   2  -5   2 3252.56  176.30
  -2   5  -2 3075.64  175.36
  -2   5  -2 3087.03  163.30
   2  -5   3   74.59    7.16
  -2   5  -3  103.22    8.69
  -2   5  -3   69.65    4.99
   2  -5   4   73.96    6.25
  -2   5  -4   58.04    3.87
  -2   5  -4   83.14    8.58
   2  -5   5  627.03   33.24
  -2   5  -5  598.15   32.73
  -2   5  -5  582.79   22.96
   2  -5   6 1093.23   43.17
   2  -5   6 1365.59   71.06
  -2   5  -6 1315.19   53.24
  -2   5  -6 1383.88   75.14
   2  -5   7  641.71   21.48
   2  -5   7 1130.28   52.83
   2  -5   8   23.69    5.96
   2  -5   9  139.43   12.30
  -2   5  -9  113.81   11.24
   2  -5  10  178.54   18.60
  -2   5 -10  182.19   15.49
   2  -5  11  270.44   24.77
  -2   5 -11  277.79   22.09
   2  -5  12   75.17   10.12
  -2   5 -12   91.71   10.62
   2  -5  13   13.15    5.54
  -2   5 -13    2.75    4.85
   2  -5  14  198.52   24.81
  -2   5 -14  189.54   23.90
   2  -5  15   10.93    7.59
  -2   5 -15    6.05    7.27
   2  -5  16   23.36   10.35
  -2   5 -16   14.07    9.19
   2  -4 -17  230.69   19.24
  -2   4  13   92.85    9.36
   2  -4 -12  646.19   30.72
  -2   4  12  997.47   53.05
   2  -4 -11   95.62    6.01
  -2   4  11  124.74   11.46
   2  -4 -10  447.33   19.24
  -2   4  10  524.70   30.42
   2  -4  -9    6.38    1.52
  -2   4   9   12.08    4.05
   2  -4  -8  135.67    9.75
  -2   4   8  144.21   11.36
  -2   4   8  122.81    5.85
   2  -4  -7  866.72   42.12
  -2   4   7  836.45   31.83
  -2   4   7  866.94   45.10
  -2   4   7  788.49   30.46
   2  -4  -6 1018.79   50.99
  -2   4   6 1063.37   41.75
  -2   4   6 1020.58   50.37
  -2   4   6 1001.01   39.82
   2  -4  -5  152.19   11.02
  -2   4   5  140.98    6.59
  -2   4   5  152.13    6.70
  -2   4   5  150.96   10.49
   2  -4  -4  937.92   45.14
  -2   4   4  963.38   39.15
  -2   4   4 1047.52   41.56
  -2   4   4  929.76   49.78
   2  -4  -3  153.35    5.97
   2  -4  -3  155.03    9.77
  -2   4   3  155.71    9.78
  -2   4   3  162.38    7.59
   2  -4  -2   13.49    3.71
  -2   4   2   16.66    4.63
  -2   4   2    9.76    2.51
   2  -4  -1  384.84   17.68
  -2   4   1  379.71   17.72
   2  -4   0 2928.19  149.23
  -2   4   0 2920.02  150.62
   2  -4   1   95.81    7.69
  -2   4  -1   94.88    7.32
  -2   4  -1   93.09    7.75
   2  -4   2  780.89   35.57
  -2   4  -2  753.15   36.27
  -2   4  -2  741.10   30.65
   2  -4   3   91.05    8.67
  -2   4  -3   99.43    5.92
  -2   4  -3  106.71   10.20
   2  -4   4 3603.49  207.47
   2  -4   4 3682.09  188.38
  -2   4  -4 3467.34  181.34
  -2   4  -4 3582.35  209.42
   2  -4   5  426.08   15.56
   2  -4   5  410.63   23.36
  -2   4  -5  385.89   23.48
  -2   4  -5  385.84   14.84
   2  -4   6 3139.98  153.15
   2  -4   6 3200.10  191.24
   2  -4   6 3263.37  157.44
   2  -4   7  453.48   14.99
   2  -4   7  463.35   27.49
   2  -4   8  592.73   35.46
  -2   4  -8  591.23   35.46
   2  -4   9  123.40   11.96
  -2   4  -9  141.07   11.87
   2  -4  10  234.45   19.53
  -2   4 -10  213.42   19.20
   2  -4  11 3651.04  258.76
  -2   4 -11 3650.28  252.88
   2  -4  12 1953.60  133.11
  -2   4 -12 1888.28  128.60
   2  -4  13  229.65   26.04
  -2   4 -13  240.81   24.18
   2  -4  14  696.91   59.90
  -2   4 -14  675.33   56.99
   2  -4  15   13.15    7.17
  -2   4 -15   12.41    7.68
   2  -4  16  145.66   19.19
  -2   4 -16   49.77   13.15
  -2   3  13    0.77    2.64
   2  -3 -12  539.54   25.86
  -2   3  12  678.62   37.28
   2  -3 -11  712.90   31.12
  -2   3  11  881.08   46.31
   2  -3 -10 1662.99   77.93
  -2   3  10 1808.64  100.43
   2  -3  -9   32.22    2.84
  -2   3   9   57.80    6.19
   2  -3  -8  321.97   12.41
  -2   3   8  337.80   18.37
   2  -3  -7 1248.74   49.77
  -2   3   7 1371.23   68.36
  -2   3   7 1142.27   44.33
   2  -3  -6 1630.08   81.22
  -2   3   6 1607.63   82.53
  -2   3   6 1584.54   63.43
   2  -3  -5  647.36   32.90
  -2   3   5  637.65   29.75
  -2   3   5  627.48   22.17
   2  -3  -4  732.89   33.82
  -2   3   4  918.66   31.55
  -2   3   4  785.82   38.87
  -2   3   3 4987.85  276.38
   2  -3  -2   53.16    3.06
   2  -3  -2   64.89    5.67
  -2   3   2   72.38    6.82
  -2   3   2   50.11    3.18
   2  -3   0 2120.35  103.09
   2  -3   0 2414.33  110.57
  -2   3   0 2206.58  104.12
   2  -3   1  612.58   26.93
  -2   3  -1  615.43   26.51
   2  -3   2 2048.01   99.75
   2  -3   2 2153.07   96.70
  -2   3  -2 2024.19  100.85
  -2   3  -2 2016.74   93.76
   2  -3   3  641.49   30.72
   2  -3   3  662.92   24.75
  -2   3  -3  615.09   23.55
  -2   3  -3  622.70   29.91
   2  -3   4  397.47   14.28
   2  -3   4  377.52   20.86
  -2   3  -4  370.79   14.76
  -2   3  -4  375.39   18.53
   2  -3   5  390.69   14.80
   2  -3   5  400.86   14.67
   2  -3   5  396.35   22.72
  -2   3  -5  394.28   23.25
   2  -3   6  958.01   49.42
   2  -3   6 1042.18   39.30
   2  -3   7  247.08    8.51
   2  -3   7  256.50   15.38
   2  -3   8  993.53   36.22
   2  -3   8 1048.00   59.05
  -2   3  -8 1021.31   56.86
   2  -3   9  880.21   53.73
  -2   3  -9  875.94   51.31
   2  -3  10  328.39   22.64
  -2   3 -10  334.41   24.54
   2  -3  11   61.02   10.46
  -2   3 -11   51.21    9.56
   2  -3  12  205.87   22.36
  -2   3 -12  194.52   17.21
   2  -3  13  381.32   35.84
  -2   3 -13  398.69   33.80
   2  -3  14 1019.46   73.32
  -2   3 -14  868.49   64.46
   2  -3  15  225.12   26.04
  -2   3 -15  172.18   21.80
   2  -3  16   14.56    6.01
  -2   3 -16    2.07    6.34
  -2   2  17  120.35   16.04
  -2   2  16  199.80   24.04
  -2   2  15  120.61   14.59
  -2   2  14  919.09   66.79
   2  -2 -13   66.20    5.13
  -2   2  13  149.06   13.59
   2  -2 -12  469.24   23.11
  -2   2  12  537.88   39.86
  -2   2  12  513.23   27.37
   2  -2 -11   66.38    5.42
  -2   2  11   89.46    7.68
  -2   2  11  113.90   11.29
   2  -2 -10    9.01    1.81
  -2   2  10    6.71    4.92
  -2   2  10    2.97    2.59
   2  -2  -9    3.71    1.47
  -2   2   9    8.82    2.80
  -2   2   9    5.45    4.08
   2  -2  -8 3087.22  151.05
  -2   2   8 3068.65  183.96
  -2   2   8 2831.05  136.73
  -2   2   8 2885.07  160.65
  -2   2   7  805.87   28.33
  -2   2   7  858.77   43.08
  -2   2   7  847.43   39.21
   2  -2  -6  961.63   33.53
  -2   2   6  888.17   43.81
  -2   2   6  880.20   41.74
  -2   2   6  865.75   29.74
   2  -2  -5 1516.62   55.98
  -2   2   5 1370.33   49.50
  -2   2   5 1481.80   71.53
   2  -2  -4   20.47    3.46
  -2   2   4   17.86    4.41
   2  -2  -2  906.92   30.04
   2  -2  -2  888.46   39.99
  -2   2   2  802.85   26.89
  -2   2   2  824.85   39.32
   2  -2  -1   43.04    4.66
   2  -2  -1   58.47    4.15
   2  -2  -1   42.82    2.75
  -2   2   1   39.94    2.85
  -2   2   1   61.30    4.79
   2  -2   2   84.86    5.02
   2  -2   2   85.32    5.82
  -2   2  -2   82.62    5.69
  -2   2  -2   78.33    5.61
   2  -2   3 1603.38   64.51
   2  -2   3 1668.70   76.40
  -2   2  -3 1654.84   79.01
  -2   2  -3 1560.00   64.61
   2  -2   4    8.39    3.67
   2  -2   4    3.74    1.55
   2  -2   4    5.89    1.50
  -2   2  -4    6.07    3.51
   2  -2   6  443.68   15.63
   2  -2   6  494.56   26.88
   2  -2   6  507.68   18.06
   2  -2   7 2107.59  119.43
   2  -2   7 2052.31   89.57
   2  -2   7 2099.64   91.38
   2  -2   8  182.34   12.06
   2  -2   8  161.24    6.42
   2  -2   8  167.11    6.23
  -2   2  -8  173.26   11.28
   2  -2   9    4.45    1.04
   2  -2   9    3.20    3.08
  -2   2  -9    4.33    3.96
   2  -2  10   83.34   11.75
  -2   2 -10  102.78   10.51
   2  -2  11   54.93   10.11
  -2   2 -11   56.21    9.55
   2  -2  12  151.72   16.68
  -2   2 -12  150.41   14.34
   2  -2  13   31.58    9.24
  -2   2 -13   29.06    7.71
   2  -2  14   12.29    5.86
  -2   2 -14   10.05    6.25
   2  -2  15   16.05    9.97
  -2   2 -15   27.72    7.67
   2  -2  16   60.56   10.16
  -2   2 -16   57.22   12.01
   2  -2  17   10.50    8.55
  -2   2 -17    8.82    6.90
  -2   1  17   15.03    9.28
  -2   1  16    3.38    4.90
  -2   1  15   13.66    6.05
  -2   1  14   95.83   11.78
   2  -1 -13    9.66    2.28
  -2   1  13   11.90    4.86
   2  -1 -12  307.12   16.56
  -2   1  12  330.45   27.05
   2  -1 -11  150.99    9.02
  -2   1  11  164.07   16.07
  -2   1  11  138.21    8.68
   2  -1 -10 1627.98   76.76
  -2   1  10 1617.38   97.34
  -2   1  10 1472.09   73.39
   2  -1  -9  384.28   17.01
  -2   1   9  341.76   23.79
  -2   1   9  370.66   16.73
   2  -1  -8 4363.60  235.01
  -2   1   8 3828.54  204.87
  -2   1   8 3977.06  247.31
  -2   1   8 3832.47  222.35
  -2   1   7 4617.25  298.21
  -2   1   7 4617.74  251.05
  -2   1   7 4831.09  285.49
  -2   1   6  489.60   16.34
  -2   1   6  536.55   23.76
  -2   1   6  490.41   27.95
   2  -1  -5 1520.34   54.71
  -2   1   5 1376.83   60.82
  -2   1   5 1230.72   43.94
  -2   1   5 1314.87   63.37
   2  -1  -4  228.65    5.84
  -2   1   4  230.68   11.56
  -2   1   4  209.42   13.75
   2  -1  -3  645.37   28.58
  -2   1   3  648.76   27.82
  -2   1   2 2247.18  103.59
  -2   1   2 2382.53  113.98
   2  -1  -1 2540.93  120.80
   2  -1  -1 2588.43  110.57
  -2   1   1 2654.23  123.55
   2  -1   0  440.75   17.31
   2  -1   0  431.86   18.93
  -2   1   0  420.26   18.21
  -2   1   0  415.19   14.96
  -2   1   0  361.26   15.33
   2  -1   1 1484.35   59.07
   2  -1   1 1453.35   61.11
  -2   1  -1 1456.82   62.22
  -2   1  -1 1593.52   69.40
   2  -1   2  691.37   26.84
   2  -1   2  655.90   25.35
   2  -1   2  620.39   26.22
  -2   1  -2  620.78   26.76
   2  -1   4  289.23   10.86
   2  -1   4  273.07   11.24
   2  -1   4  280.36   16.69
  -2   1  -4  270.02   13.56
   2  -1   5  227.58   15.04
   2  -1   5  239.45    9.64
   2  -1   6  133.34   12.11
   2  -1   6  124.57    5.80
  -2   1  -6  120.27    5.24
   2  -1   7 1712.78   74.57
   2  -1   7 1713.04   92.17
  -2   1  -7 1465.01   62.57
  -2   1  -7 1769.55   93.57
   2  -1   8 1349.72   76.01
   2  -1   8 1347.42   56.85
  -2   1  -8 1417.10   77.48
   2  -1   9  104.68    4.97
   2  -1   9  117.87    9.90
  -2   1  -9  115.78   11.45
   2  -1  10   66.76    8.09
   2  -1  10   45.17    3.28
  -2   1 -10   57.56    6.26
   2  -1  11    2.83    5.68
  -2   1 -11   12.64    4.95
   2  -1  12  122.68   12.55
  -2   1 -12  159.07   14.29
   2  -1  13   88.68   13.22
  -2   1 -13   77.08   12.09
   2  -1  14   18.61    8.11
  -2   1 -14   12.92    6.28
   2  -1  15   11.32    7.89
  -2   1 -15   15.02    6.61
   2  -1  16    5.47    4.89
  -2   1 -16    1.15    4.78
   2  -1  17   14.70    9.19
  -2   1 -17   13.68    7.63
  -2   0  17   28.57   11.80
  -2   0  16    1.68    5.83
  -2   0  15  861.19   70.12
   2   0 -14  667.39   36.74
  -2   0  14  809.00   57.18
   2   0 -13    6.40    2.45
  -2   0  13    9.34    4.72
   2   0 -12   83.12    6.64
  -2   0  12  114.81   11.62
   2   0 -11 1770.95   91.97
  -2   0  11 1944.14  121.31
   2   0 -10  984.54   45.58
  -2   0  10  911.96   52.18
  -2   0  10  940.09   41.18
   2   0  -9   17.07    2.24
  -2   0   9   18.19    5.57
  -2   0   9   17.42    2.16
   2   0  -8  663.53   27.71
  -2   0   8  637.47   25.92
  -2   0   8  627.42   37.84
   2   0  -7 1360.08   56.62
  -2   0   7 1337.84   56.31
  -2   0   7 1331.73   67.14
  -2   0   7 1124.36   44.83
   2   0  -5  323.15   11.95
  -2   0   5  275.33   16.69
  -2   0   5  288.54   12.55
  -2   0   5  272.51    9.28
   2   0  -4 4482.82  241.67
  -2   0   4 4297.78  251.64
   2   0  -3  416.70   12.11
   2   0  -3  486.75   17.50
  -2   0   3  425.97   11.75
  -2   0   3  458.39   22.03
  -2   0   3  462.58   18.51
   2   0  -2 1747.90   72.69
   2   0  -2 1621.95   73.92
  -2   0   2 1651.94   69.02
   2   0  -1 1245.68   51.72
   2   0  -1 1250.48   50.41
  -2   0   1 1198.18   50.58
  -2   0   1 1298.48   53.03
   2   0   0 1557.72   67.39
   2   0   0 1494.04   60.42
  -2   0   0 1542.15   66.39
  -2   0   0 1626.60   64.45
  -2   0   0 1556.50   64.44
   2   0   1  590.59   24.33
   2   0   1  644.34   26.13
   2   0   1  605.55   24.61
  -2   0  -1  630.95   25.53
  -2   0  -1  641.48   22.72
   2   0   2 2701.06  133.59
   2   0   2 3054.00  150.78
  -2   0  -2 2935.65  143.47
  -2   0  -2 2535.84  122.65
   2   0   3 1386.36   64.77
   2   0   3 1343.78   58.99
  -2   0  -3 1443.95   59.95
  -2   0  -3 1539.93   69.79
  -2   0  -3 1384.53   64.22
   2   0   4  726.83   34.28
   2   0   4  695.60   28.59
  -2   0  -4  762.99   36.70
  -2   0  -4  727.02   26.53
   2   0   5 1774.86   76.53
   2   0   5 1775.06   86.59
  -2   0  -5 1483.90   63.34
   2   0   6  293.00   15.88
   2   0   6  286.10   12.32
   2   0   7 2105.72  117.01
   2   0   7 2080.75   97.56
  -2   0  -7 2126.63  116.20
   2   0   8  543.58   22.84
   2   0   8  573.17   33.14
  -2   0  -8  553.75   30.95
   2   0   9   57.57    4.09
   2   0   9   91.86    9.92
  -2   0  -9   70.14    6.53
   2   0  10  149.14   15.47
   2   0  10  141.69    7.56
  -2   0 -10  155.83   14.14
   2   0  11 1483.25   92.62
   2   0  11 1339.98   65.44
  -2   0 -11 1420.14   83.74
   2   0  12  397.23   28.28
  -2   0 -12  382.20   28.90
   2   0  13  618.82   46.98
  -2   0 -13  535.41   37.60
   2   0  14 1164.37   84.65
  -2   0 -14  958.39   67.49
   2   0  15    4.42    5.35
  -2   0 -15   13.08    6.01
   2   0  16    0.64    5.83
  -2   0 -16    3.08    4.81
   2   0  17   33.61    9.47
  -2   0 -17    3.67    5.99
  -2  -1  17   91.91   17.09
  -2  -1  16   -1.06    4.29
  -2  -1  15   -0.08    4.45
   2   1 -14  724.74   43.25
  -2  -1  14  858.29   63.65
   2   1 -13 1079.80   60.15
  -2  -1  13 1235.83   84.76
   2   1 -12  261.55   15.77
  -2  -1  12  294.63   24.68
   2   1 -11 1364.72   70.86
  -2  -1  11 1358.26   85.01
   2   1 -10  123.17    7.91
  -2  -1  10  125.30    5.43
  -2  -1  10  138.69   13.78
   2   1  -9   15.88    2.12
  -2  -1   9    9.26    1.70
  -2  -1   9   15.27    3.78
   2   1  -8  293.03   13.39
   2   1  -8  328.24   12.69
  -2  -1   8  276.69   10.25
  -2  -1   8  293.40   19.71
   2   1  -7 2798.31  132.49
   2   1  -7 2307.38  115.40
  -2  -1   7 2640.07  148.77
  -2  -1   7 2576.66  120.91
   2   1  -6 2120.03   97.91
   2   1  -6 2281.80  101.27
  -2  -1   6 2153.39  117.40
  -2  -1   6 2146.55   95.62
   2   1  -5   21.03    2.07
   2   1  -5   26.83    2.14
  -2  -1   5   19.00    1.81
  -2  -1   5   26.47    4.98
  -2  -1   5   17.01    1.89
   2   1  -4  434.89   15.48
   2   1  -4  447.37   14.44
  -2  -1   4  464.64   22.40
  -2  -1   4  446.90   15.33
  -2  -1   4  441.25   16.16
   2   1  -3  470.37   16.15
   2   1  -3  472.19   16.29
  -2  -1   3  562.01   19.40
  -2  -1   3  565.08   18.76
  -2  -1   3  518.07   23.55
   2   1  -2 2641.47  122.15
  -2  -1   1  187.09    8.48
  -2  -1   1  194.43    7.72
   2   1   0  366.60   17.67
  -2  -1   0  408.25   13.90
  -2  -1   0  436.63   17.51
  -2  -1   0  398.68   15.83
   2   1   2 1566.75   72.31
   2   1   2 1407.43   62.08
  -2  -1  -2 1734.81   82.82
  -2  -1  -2 1584.82   63.97
  -2  -1  -2 1612.59   67.82
   2   1   3 2834.56  142.95
  -2  -1  -3 3455.84  168.09
   2   1   4  292.10   15.26
  -2  -1  -4  338.43   14.46
   2   1   5   61.57    4.99
   2   1   7 1829.13   88.29
  -2  -1  -7 1925.66  101.37
   2   1   8  309.07   20.82
   2   1   8  302.42   14.46
  -2  -1  -8  310.41   19.69
   2   1   9  112.56    9.89
   2   1   9   75.64    6.26
  -2  -1  -9   96.07    9.49
   2   1  10 1026.17   49.37
   2   1  10 1101.77   66.23
  -2  -1 -10 1050.15   58.50
   2   1  11  750.88   36.23
   2   1  11  790.04   51.49
  -2  -1 -11  721.90   44.96
   2   1  12  135.79   13.58
  -2  -1 -12  122.02   12.46
   2   1  13  654.63   48.82
  -2  -1 -13  577.96   41.13
   2   1  14  296.33   28.76
  -2  -1 -14  277.34   24.82
   2   1  15  151.49   17.20
  -2  -1 -15  141.63   16.45
   2   1  16  110.70   10.87
  -2  -1 -16   15.71    8.90
   2   1  17   26.30    9.40
  -2  -1 -17    7.25    6.78
  -2  -2  16    9.24    6.62
  -2  -2  15  442.23   41.84
   2   2 -14   51.59    6.86
  -2  -2  14   57.57   11.73
   2   2 -13   10.02    3.36
  -2  -2  13    9.37    6.29
   2   2 -12 1108.16   60.63
  -2  -2  12 1239.04   83.77
   2   2 -11  700.52   36.84
  -2  -2  11  719.79   49.09
   2   2 -10  193.90   11.55
  -2  -2  10  196.77   17.54
   2   2  -9  522.55   18.29
   2   2  -9  529.69   24.92
  -2  -2   9  583.97   19.32
  -2  -2   9  580.57   33.55
   2   2  -8  351.32   12.10
   2   2  -8  345.39   15.20
  -2  -2   8  349.90   11.34
  -2  -2   8  348.45   21.12
   2   2  -7  109.68    4.18
   2   2  -7  101.17    6.13
  -2  -2   7  113.58    4.26
  -2  -2   7  103.17    7.95
   2   2  -6 2658.47  138.16
   2   2  -6 3066.77  139.85
  -2  -2   6 2951.61  159.04
  -2  -2   6 2861.73  131.66
   2   2  -5 1682.12   66.39
   2   2  -5 1558.27   70.12
  -2  -2   5 1582.17   78.90
  -2  -2   5 1621.15   64.31
   2   2  -4 2737.64  123.51
   2   2  -4 2652.81  132.92
  -2  -2   4 2886.08  150.61
  -2  -2   4 3245.87  157.57
   2   2  -3 1524.25   66.40
   2   2  -3 1389.34   60.60
   2   2  -3 1487.02   58.00
   2   2  -3 1534.23   60.86
  -2  -2   3 1557.19   65.05
  -2  -2   3 1294.72   59.78
   2   2   0 1255.52   51.26
   2   2   0 1061.95   38.07
  -2  -2   0 1167.17   40.70
  -2  -2   0 1177.57   54.48
  -2  -2   0 1147.72   46.59
   2   2   1 3046.90  154.57
  -2  -2  -1 3353.95  174.98
  -2  -2  -1 3077.86  140.23
  -2  -2  -1 3204.41  159.00
   2   2   2 6031.60  364.39
  -2  -2  -2 6548.71  388.12
   2   2   3 1369.34   66.50
  -2  -2  -3 1630.06   79.27
  -2  -2  -3 1470.85   60.12
   2   2   4   51.95    5.77
   2   2   5   48.60    5.45
   2   2   6  296.85   16.93
  -2  -2  -6  329.93   17.60
   2   2   7  716.09   34.91
  -2  -2  -7  799.91   42.19
   2   2   8  661.87   32.56
  -2  -2  -8  706.67   37.83
   2   2   9   12.92    2.87
  -2  -2  -9   18.16    4.23
   2   2  10 1008.22   51.30
  -2  -2 -10 1041.44   58.65
   2   2  11  297.18   18.06
  -2  -2 -11  293.55   21.94
   2   2  12   76.46    6.79
  -2  -2 -12  134.62   10.76
  -2  -2 -13  127.42   14.07
  -2  -2 -14  934.05   61.14
  -2  -2 -15  163.48   17.73
  -2  -2 -16   33.79    7.95
  -2  -2 -17   17.07    7.00
  -2  -3  16   71.03   14.93
   2   3 -15   98.83   10.37
  -2  -3  15  156.66   17.81
   2   3 -14  237.63   18.98
  -2  -3  14  265.22   27.19
   2   3 -13   63.84    7.80
  -2  -3  13  118.41   12.72
   2   3 -12  152.08   12.30
  -2  -3  12  171.72   17.63
   2   3 -11   57.95    6.24
  -2  -3  11   75.15    9.83
   2   3 -10   34.52    4.00
  -2  -3  10   22.65    5.06
   2   3  -9   94.05    7.02
  -2  -3   9  100.81    9.16
   2   3  -8  281.79   15.04
  -2  -3   8  318.13   19.73
   2   3  -7   22.20    3.90
  -2  -3   7   24.51    5.26
   2   3  -6 1643.75   78.86
   2   3  -6 1359.66   50.03
   2   3  -6 1813.50   66.19
  -2  -3   6 1967.41   96.49
   2   3  -5 5614.96  309.77
   2   3  -5 5378.97  335.18
   2   3  -4   68.60    3.06
   2   3  -4   87.48    6.96
   2   3  -4   70.55    3.26
  -2  -3   4   68.39    5.94
   2   3  -3  994.03   45.28
   2   3  -3  911.76   34.61
   2   3  -3 1001.51   37.07
   2   3  -3 1116.18   43.89
  -2  -3   3  956.31   39.53
   2   3  -2   16.41    1.72
   2   3  -2   10.39    1.95
  -2  -3   2   15.32    1.93
  -2  -3   2   15.30    1.71
   2   3   1  659.90   31.42
   2   3   1  567.36   16.30
  -2  -3  -1  725.15   36.12
   2   3   3  104.02    7.48
  -2  -3  -3  117.69   10.73
  -2  -3  -3  116.72    5.77
   2   3   4   30.99    5.18
   2   3   4   27.54    4.04
  -2  -3  -5 5681.30  367.20
   2   3   6 2068.78  108.93
   2   3   6 2118.79  108.28
  -2  -3  -6 2281.07  121.14
   2   3   7  272.96   16.79
   2   3   7  274.64   17.55
  -2  -3  -7  336.51   21.26
   2   3   8  292.03   17.57
   2   3   8  294.80   20.10
  -2  -3  -8  338.60   21.52
   2   3   9  297.81   18.44
   2   3   9  323.40   22.16
  -2  -3  -9  344.96   21.39
   2   3  10  933.31   54.86
   2   3  10  868.56   46.70
  -2  -3 -10  846.15   46.07
   2   3  11 2216.01  133.58
   2   3  11 2163.76  124.22
  -2  -3 -11 2095.33  127.83
   2   3  12   85.80    9.55
   2   3  12   78.59    7.36
  -2  -3 -12   85.26   10.23
   2   3  13   14.74    3.75
   2   3  13   15.31    7.10
  -2  -3 -13   16.77    5.38
   2   3  14  843.37   63.17
  -2  -3 -14  710.56   51.98
   2   3  15  527.03   44.96
  -2  -3 -15  420.61   31.20
   2   3  16  830.34   64.36
  -2  -3 -16  534.30   41.62
   2   3  17  299.42   28.07
  -2  -3 -17  200.70   21.67
  -2  -4  16   84.72   16.04
   2   4 -15    8.66    4.98
  -2  -4  15   15.31    6.13
   2   4 -14  495.61   35.39
  -2  -4  14  518.51   44.47
   2   4 -13   28.57    5.78
  -2  -4  13   65.59    9.86
   2   4 -12  476.67   30.03
  -2  -4  12  486.64   37.81
   2   4 -11  191.39   13.90
  -2  -4  11  210.88   18.53
   2   4 -10  170.00   12.44
  -2  -4  10  193.52   16.62
   2   4  -9   83.95    7.41
  -2  -4   9   75.01    8.51
   2   4  -8   50.55    6.37
  -2  -4   8   56.97    6.86
   2   4  -7 3477.59  201.51
  -2  -4   7 3497.07  209.62
   2   4  -6  194.02   11.41
  -2  -4   6  169.95   10.69
   2   4  -5   22.08    1.40
   2   4  -5   30.33    4.84
  -2  -4   5   30.50    4.05
   2   4  -4   87.94    8.44
   2   4  -4   80.95    3.61
   2   4  -4   79.34    3.34
  -2  -4   4   76.95    5.48
   2   4  -3  338.36   12.77
   2   4  -3  302.43   10.32
  -2  -4   3  328.34   11.93
  -2  -4   3  315.16   12.57
   2   4  -2 1847.79   81.67
   2   4  -2 1999.16   82.90
  -2  -4   2 1989.96   86.69
  -2  -4   2 1841.82   77.29
   2   4  -1 1328.09   64.99
   2   4  -1 1387.00   49.48
   2   4  -1 1325.57   58.32
  -2  -4   1 1323.85   48.02
  -2  -4   1 1401.47   59.57
   2   4   0 3933.60  217.48
   2   4   1   -6.17    4.69
   2   4   2  963.20   32.71
   2   4   2  967.08   45.45
  -2  -4  -2  818.16   26.69
  -2  -4  -2 1076.42   51.78
   2   4   3 4157.83  239.52
  -2  -4  -3 4401.13  228.25
   2   4   4 2197.46  103.49
   2   4   4 2168.79  117.07
  -2  -4  -4 2350.75  107.43
   2   4   5   47.13    4.31
   2   4   5   47.92    7.46
  -2  -4  -5   63.27    7.60
   2   4   6  426.87   22.78
   2   4   6  453.28   23.62
  -2  -4  -6  480.94   27.59
   2   4   7  861.15   44.76
   2   4   7  829.04   46.33
  -2  -4  -7  946.24   50.39
   2   4   8  894.22   48.81
   2   4   8  912.29   50.00
  -2  -4  -8  999.93   52.95
   2   4   9   28.19    6.07
   2   4   9   36.18    5.25
  -2  -4  -9   23.42    5.74
   2   4  10   62.59    8.18
   2   4  10   60.67    7.09
  -2  -4 -10   56.97    7.41
   2   4  11   21.31    6.28
   2   4  11   26.32    5.14
  -2  -4 -11   27.58    5.68
   2   4  12  604.84   37.53
   2   4  12  617.05   43.25
  -2  -4 -12  544.88   35.03
   2   4  13 1666.40   98.57
   2   4  13 1705.56  107.05
  -2  -4 -13 1376.02   88.13
   2   4  14   20.61    5.56
   2   4  14   21.68    8.56
  -2  -4 -14   19.47    6.31
   2   4  15  117.35   11.76
  -2  -4 -15   57.48    9.86
   2   4  16 1503.02  107.60
  -2  -4 -16 1038.16   72.04
   2   4  17  593.82   56.47
   2   5 -15   15.72    5.99
  -2  -5  15   34.84    9.67
   2   5 -14   13.85    5.40
  -2  -5  14   10.83    5.77
   2   5 -13   56.36    9.14
  -2  -5  13   84.04   11.96
   2   5 -12  147.93   12.85
  -2  -5  12  144.48   16.27
   2   5 -11  687.13   41.10
  -2  -5  11  635.98   44.77
   2   5 -10  150.68   12.10
  -2  -5  10  153.99   12.68
   2   5  -9  135.98   11.24
  -2  -5   9  144.88   12.87
   2   5  -8  752.76   40.30
  -2  -5   8  736.34   41.21
   2   5  -7  711.22   37.07
  -2  -5   7  689.57   36.52
   2   5  -6 2135.01  118.21
  -2  -5   6 2163.74  114.90
   2   5  -5  372.78   12.44
   2   5  -5  370.23   21.77
  -2  -5   5  405.52   18.20
   2   5  -4  292.95   10.64
   2   5  -4  312.23   17.98
  -2  -5   4  302.82   12.72
  -2  -5   4  263.61    8.70
   2   5  -3   39.77    2.44
   2   5  -3   36.72    3.47
  -2  -5   3   35.91    3.41
  -2  -5   3   42.78    2.95
   2   5  -2 2647.21  129.94
   2   5  -2 2504.72  111.82
  -2  -5   2 2809.99  126.88
   2   5  -1 4333.79  213.15
   2   5  -1 4111.33  250.11
   2   5  -1 4178.39  238.77
   2   5   1 3775.33  219.55
   2   5   2   53.62    7.45
  -2  -5  -2   49.55    2.17
   2   5   3 2948.21  166.90
   2   5   3 2521.69  117.00
  -2  -5  -3 3195.35  147.00
   2   5   4  878.31   35.93
   2   5   4  934.98   50.30
  -2  -5  -4  950.93   37.92
   2   5   5 4392.03  280.32
   2   5   5 4237.80  244.54
  -2  -5  -5 4785.54  295.09
   2   5   6  581.90   34.32
   2   5   6  542.09   25.67
  -2  -5  -6  591.93   32.15
   2   5   7  697.60   41.59
   2   5   7  693.94   35.62
  -2  -5  -7  751.88   39.80
   2   5   8  316.12   21.26
   2   5   8  263.63   17.18
  -2  -5  -8  281.56   17.45
   2   5   9 2488.70  150.31
   2   5   9 2466.52  143.76
  -2  -5  -9 2492.71  144.79
   2   5  10 2576.19  160.00
   2   5  10 2641.98  158.99
  -2  -5 -10 2515.75  149.38
   2   5  11 2338.54  145.44
   2   5  11 2292.28  142.66
  -2  -5 -11 2142.01  131.43
   2   5  12  131.87   12.44
   2   5  12  142.64   14.66
  -2  -5 -12  122.17   11.54
   2   5  13   40.71    8.36
   2   5  13   27.56    6.68
  -2  -5 -13   30.21    5.78
   2   5  14 1203.96   84.21
   2   5  14 1095.76   71.02
  -2  -5 -14  920.14   61.38
   2   5  15  202.73   21.91
  -2  -5 -15  143.17   15.77
   2   5  16   77.00   12.98
  -2  -5 -16   40.24    8.50
   2   5  17   -1.31    4.77
   2   6 -15    2.63    5.12
  -2  -6  15    8.55    6.75
   2   6 -14   13.02    5.85
  -2  -6  14   17.50    7.72
   2   6 -13   20.71    6.07
  -2  -6  13   19.66    7.63
   2   6 -12   68.00    9.76
  -2  -6  12   70.00   10.85
   2   6 -11   70.29    8.65
  -2  -6  11   73.54    9.99
   2   6 -10   25.85    5.89
  -2  -6  10   18.41    6.14
   2   6  -9  292.10   19.99
  -2  -6   9  299.72   20.87
   2   6  -8  234.07   16.32
  -2  -6   8  231.90   16.00
   2   6  -7  129.07   11.29
  -2  -6   7  121.91    9.04
   2   6  -6  263.41   17.61
  -2  -6   6  250.00   13.81
   2   6  -5   10.52    1.16
   2   6  -5   16.48    4.73
  -2  -6   5   13.00    2.58
  -2  -6   5    7.78    1.00
   2   6  -4 1870.70  103.57
   2   6  -4 1875.25   83.73
  -2  -6   4 1790.41   83.58
  -2  -6   4 1897.93   84.22
   2   6  -3 5097.22  282.43
   2   6  -3 3693.60  202.39
  -2  -6   3 5102.78  278.21
   2   6  -2   14.51    2.41
   2   6  -2   18.94    5.40
   2   6  -2   12.87    1.40
  -2  -6   2    8.03    1.40
   2   6  -1 1284.69   60.48
   2   6  -1 1354.47   72.03
  -2  -6   1 1256.01   44.20
   2   6   0 1257.30   62.27
   2   6   0 1247.22   66.61
   2   6   1  111.13   11.96
   2   6   1  106.21    9.49
   2   6   2 2748.14  146.31
  -2  -6  -2 2517.84  101.88
  -2  -6  -2 2277.09   93.19
   2   6   3 3528.98  204.50
  -2  -6  -3 3471.71  162.48
  -2  -6  -3 2609.79  122.98
   2   6   4  777.43   31.81
   2   6   4  809.87   45.21
  -2  -6  -4  900.79   35.14
  -2  -6  -4  870.40   47.96
   2   6   5 1036.33   57.52
   2   6   5  948.61   41.38
  -2  -6  -5 1056.42   57.53
   2   6   6 2227.00  125.45
   2   6   6 2215.88  111.64
  -2  -6  -6 2206.04  125.11
   2   6   7 2204.25  116.73
   2   6   7 2331.67  138.74
  -2  -6  -7 2297.17  132.59
   2   6   8  610.98   37.82
   2   6   8  550.70   29.27
  -2  -6  -8  600.79   34.17
   2   6   9  209.18   14.60
   2   6   9  219.87   15.53
  -2  -6  -9  213.89   15.31
   2   6  10 1251.42   70.58
   2   6  10 1302.90   79.46
  -2  -6 -10 1184.35   68.29
   2   6  11  806.57   53.36
   2   6  11  787.23   50.22
  -2  -6 -11  704.42   42.81
   2   6  12  229.00   20.65
   2   6  12  229.84   19.90
  -2  -6 -12  197.11   17.25
   2   6  13   48.47   10.24
   2   6  13   72.58    9.61
  -2  -6 -13   48.59    8.89
   2   6  14  309.22   25.76
   2   6  14  300.91   26.99
  -2  -6 -14  258.04   21.73
   2   6  15  281.12   25.47
   2   6  15  297.98   27.91
  -2  -6 -15  222.92   19.49
   2   6  16   50.39   10.45
  -2  -6 -16   20.26    5.84
   2   6  17  210.03   22.94
   2   7 -14   23.27    6.44
  -2  -7  14   24.34    8.59
   2   7 -13    7.64    4.81
  -2  -7  13   -0.94    5.27
   2   7 -12   25.29    6.71
  -2  -7  12   18.43    6.95
   2   7 -11  811.26   53.31
  -2  -7  11  712.90   49.07
   2   7 -10 1278.19   78.23
  -2  -7  10 1142.84   71.39
   2   7  -9   64.19    9.42
  -2  -7   9   68.74    7.34
   2   7  -8  247.34   18.52
  -2  -7   8  208.95   14.34
   2   7  -7  229.99   17.84
  -2  -7   7  199.98   13.39
   2   7  -6 1458.28   56.34
   2   7  -6 1359.31   53.02
   2   7  -6 1762.38   95.86
  -2  -7   6 1721.51   81.77
   2   7  -5    4.69    1.29
   2   7  -5    8.81    4.40
  -2  -7   5    8.61    1.96
   2   7  -4  104.80    5.48
  -2  -7   4  105.86    6.34
   2   7  -3  769.08   33.90
   2   7  -3  799.76   31.31
  -2  -7   3  763.45   30.47
   2   7  -2 1539.17   85.51
   2   7  -2 1482.81   71.56
   2   7  -1  716.05   33.10
   2   7  -1  708.54   36.24
  -2  -7   1  609.12   18.75
   2   7   0 3790.03  229.97
   2   7   0 3661.33  214.44
   2   7   1 1960.06  108.05
   2   7   1 2068.20  113.62
   2   7   2 2731.36  159.51
   2   7   2 2660.52  154.29
   2   7   3 1501.16   78.24
  -2  -7  -3 1477.88   54.79
  -2  -7  -3 1089.74   40.44
   2   7   4   84.84    8.83
   2   7   4  106.10    9.42
  -2  -7  -4   62.98    3.76
  -2  -7  -4   65.55    3.64
   2   7   5 2609.33  151.95
   2   7   5 2716.11  163.04
  -2  -7  -5 2543.03  127.61
   2   7   6   40.81    3.62
   2   7   6   37.69    5.58
  -2  -7  -6   44.96    6.97
   2   7   7   16.79    3.12
   2   7   7   15.41    5.65
  -2  -7  -7   12.73    5.36
   2   7   8  118.85    9.54
   2   7   8  138.56   13.83
  -2  -7  -8  124.94   12.56
   2   7   9 1179.03   64.11
   2   7   9 1326.33   76.88
  -2  -7  -9 1038.21   63.82
   2   7  10  133.12   12.17
   2   7  10  121.09   11.17
  -2  -7 -10  137.18   12.09
   2   7  11    3.42    5.11
   2   7  11    1.91    4.11
  -2  -7 -11    4.19    3.66
   2   7  12 2421.63  164.12
   2   7  12 2356.84  150.94
  -2  -7 -12 2101.83  136.83
   2   7  13  163.95   16.30
   2   7  13  131.21   14.68
  -2  -7 -13  119.11   12.95
   2   7  14   72.10   11.75
   2   7  14   68.34   11.70
  -2  -7 -14   60.20    9.07
   2   7  15   79.94   12.06
   2   7  15   78.01   12.51
  -2  -7 -15   56.78    9.34
   2   7  16   17.04    8.52
   2   8 -14  338.94   32.35
   2   8 -13    3.41    5.36
   2   8 -12  100.03   13.91
   2   8 -11  138.18   13.25
  -2  -8  11   93.20   12.15
   2   8 -10   29.09    6.13
  -2  -8  10   19.83    5.00
   2   8  -9  362.77   27.99
  -2  -8   9  334.90   22.47
   2   8  -8 1013.16   64.39
  -2  -8   8  950.40   51.68
   2   8  -7  690.41   44.47
  -2  -8   7  626.71   34.20
   2   8  -6  281.34   10.52
   2   8  -6  328.93   20.39
  -2  -8   6  314.50   16.67
   2   8  -5  662.59   27.74
   2   8  -5  742.17   44.11
  -2  -8   5  681.95   30.69
   2   8  -4 1323.00   60.85
  -2  -8   4 1335.58   58.87
   2   8  -3  221.08   11.24
  -2  -8   3  226.11    9.32
   2   8  -2  571.95   27.68
   2   8  -2  611.64   37.29
   2   8  -2  549.97   19.68
   2   8  -1  258.17   14.61
   2   8  -1  266.76   20.47
   2   8   0   74.04    9.82
   2   8   0   79.20    6.92
   2   8   1  123.69   11.76
   2   8   1  123.17   10.75
   2   8   2  195.40   16.22
   2   8   2  191.87   14.63
   2   8   3  171.46   14.57
  -2  -8  -3  151.87    5.08
  -2  -8  -3  154.49    5.48
   2   8   4  320.48   19.48
  -2  -8  -4  298.47   11.50
   2   8   5   44.44    5.91
   2   8   5   47.02    7.16
   2   8   6 1457.00   84.54
   2   8   6 1476.55   87.07
  -2  -8  -6 1388.78   65.86
   2   8   7   53.64    6.73
   2   8   7   74.19    9.63
  -2  -8  -7   47.82    4.58
   2   8   8  342.03   27.16
   2   8   8  319.08   17.86
  -2  -8  -8  320.27   23.42
   2   8   9  190.22   13.38
   2   8   9  222.06   20.73
  -2  -8  -9  185.92   16.84
   2   8  10   36.53    6.31
   2   8  10   17.89    4.78
  -2  -8 -10   24.45    6.47
   2   8  11  373.10   31.69
   2   8  11  342.38   24.00
  -2  -8 -11  313.62   25.07
   2   8  12  276.92   26.07
   2   8  12  250.58   19.59
  -2  -8 -12  212.04   18.01
   2   8  13   21.20    5.80
   2   8  13   22.76    6.68
  -2  -8 -13   16.33    5.91
   2   8  14   61.88   11.08
   2   8  14   70.19   12.71
  -2  -8 -14   57.91    9.12
   2   8  15   88.33   13.87
   2   8  15   80.58   11.71
  -2  -8 -15   56.20    8.43
   2   8  16   54.36   12.00
   2   8  16   61.06   12.07
   2   9 -13   56.15   12.67
   2   9 -12   29.76    6.93
   2   9 -11   58.63   10.68
   2   9 -10  692.20   52.15
   2   9  -9   41.17   10.21
   2   9  -8  735.47   51.67
   2   9  -7   36.10    8.51
   2   9  -6  128.04    6.07
   2   9  -6  181.07   16.55
   2   9  -5   59.76    3.91
   2   9  -4   23.30    2.81
   2   9  -3   44.09    4.27
   2   9  -3   51.87    8.43
   2   9  -2 1580.04   84.42
   2   9  -2 1721.77  104.45
   2   9  -1 1329.59   70.46
   2   9  -1 1346.55   79.29
   2   9   0   21.21    4.54
   2   9   0   22.68    6.55
   2   9   1  423.31   28.51
   2   9   1  399.24   25.65
   2   9   2  430.81   29.66
   2   9   2  411.40   27.43
   2   9   3  229.01   19.65
   2   9   3  246.76   19.86
   2   9   4  789.46   49.45
   2   9   5  492.06   32.57
  -2  -9  -5  470.56   19.60
   2   9   6  409.97   28.77
   2   9   6  447.53   28.39
  -2  -9  -6  382.16   16.89
   2   9   7  125.96   15.16
   2   9   7  125.49   12.87
  -2  -9  -7  103.34    6.68
   2   9   8   81.57    9.78
   2   9   8   82.67    9.96
  -2  -9  -8   79.46    5.97
   2   9   9  129.78   14.49
   2   9   9  192.73   15.96
  -2  -9  -9  108.70    9.39
   2   9  10  165.07   16.50
   2   9  10  170.64   19.98
  -2  -9 -10  167.37   12.86
   2   9  11  503.45   37.22
   2   9  11  272.92   19.57
  -2  -9 -11  301.27   18.65
   2   9  12   22.14    8.47
   2   9  13  480.11   41.64
  -2  -9 -13  326.29   28.38
   2   9  14   48.26   11.71
  -2  -9 -14   36.61    7.84
   2   9  15  291.65   32.19
   2  10 -12  120.47   16.52
   2  10 -11   46.50   10.42
   2  10 -10  551.81   39.99
   2  10  -9  330.52   30.15
   2  10  -8  301.08   27.55
   2  10  -7    3.44    5.92
   2  10  -6  116.04   11.69
   2  10  -5   18.95    2.71
   2  10  -4  175.85   10.07
   2  10  -3   18.82    5.31
   2  10  -3   19.06    3.14
   2  10  -2   32.81    9.27
   2  10  -2   30.75    4.15
   2  10  -1  216.44   20.78
   2  10  -1  205.57   15.12
   2  10   0  532.00   32.89
   2  10   0  592.32   37.11
   2  10   1   67.55    8.67
   2  10   1   63.36   10.53
   2  10   2  299.42   22.70
   2  10   2  331.94   26.94
   2  10   3   80.77   10.43
   2  10   3   62.83    8.03
   2  10   4  310.60   23.06
   2  10   4  298.16   24.33
   2  10   5 1392.95   89.25
   2  10   6  278.63   20.75
   2  10   7 2070.95  140.61
   2  10   7 1899.88  124.80
   2  10   8  369.99   28.52
   2  10   8  436.50   36.68
   2  10   9   33.73    7.55
   2  10   9   42.01   10.26
   2  10  10   39.36    8.78
   2  10  10   40.25    7.53
   2  10  11   14.91    8.13
   2  10  11   16.74    5.57
   2  10  12  456.00   37.36
   2  10  13  648.90   57.23
   2  10  14  142.91   21.87
   2  10  15   15.42    9.87
   2  11 -11  118.70   17.38
   2  11 -10   28.40    8.26
   2  11  -9  312.68   32.02
   2  11  -8  182.62   21.82
   2  11  -7  118.27   17.47
   2  11  -6   27.83    9.40
   2  11  -5   26.88    3.19
   2  11  -4   43.15    4.20
   2  11  -3  383.96   21.58
   2  11  -3  451.19   35.94
   2  11  -2    7.33    3.52
   2  11  -2    5.79    6.17
   2  11  -1   25.02    6.26
   2  11  -1   19.44    4.78
   2  11   0 1116.99   76.47
   2  11   0 1073.24   65.30
   2  11   1    9.02    5.86
   2  11   1   23.85    7.26
   2  11   2  182.54   19.11
   2  11   2  221.56   22.29
   2  11   3   85.64   11.89
   2  11   3   73.09   10.58
   2  11   4   29.03    8.91
   2  11   4   47.28    7.09
   2  11   5  644.00   44.45
   2  11   5  613.63   45.92
   2  11   6  633.68   45.76
   2  11   7  246.46   22.84
   2  11   7  243.17   23.53
   2  11   8  119.02   16.86
   2  11   8  130.73   15.24
   2  11   9  278.00   29.50
   2  11   9  223.15   22.55
   2  11  10 1534.74  106.11
   2  11  10 1217.62   85.08
   2  11  11 1298.00  103.82
   2  11  12  374.91   40.18
   2  11  13  270.57   29.41
   2  11  14  180.63   18.88
   2  12  -9   68.37   14.89
   2  12  -8  130.67   18.59
   2  12  -7  206.31   24.47
   2  12  -4  131.53   10.42
   2  12  -4  198.54   21.16
   2  12  -3 1697.20   98.40
   2  12  -3 2034.54  142.08
   2  12  -2  467.81   30.52
   2  12  -2  572.77   44.55
   2  12  -1  324.56   24.59
   2  12  -1  376.49   34.14
   2  12   0   88.80   11.20
   2  12   0  123.38   15.09
   2  12   1  941.02   64.10
   2  12   1  997.69   74.32
   2  12   2  358.28   29.92
   2  12   2  385.72   34.98
   2  12   3  658.27   49.22
   2  12   3  675.94   52.26
   2  12   4  759.67   53.25
   2  12   4  739.79   58.65
   2  12   5   10.09    7.46
   2  12   5   19.75    5.93
   2  12   6    8.66    7.10
   2  12   6   25.69    8.00
   2  12   7   64.09   11.53
   2  12   8  420.10   36.21
   2  12   8  491.42   45.16
   2  12   9   19.55    7.11
   2  12   9   16.65    7.15
   2  12  10  389.49   36.17
   2  12  10  520.12   42.89
   2  12  11  178.21   23.99
   2  12  12  891.09   79.92
   2  12  13  488.76   45.73
   2  13  -8   67.76   15.16
   2  13  -7   11.30    8.59
   2  13  -4   36.69    8.17
   2  13  -3   40.14    8.39
   2  13  -3   28.77    5.42
   2  13  -2   92.76    8.78
   2  13  -2  109.58   16.09
   2  13  -1   70.23    9.06
   2  13  -1   78.97   13.99
   2  13   0  383.33   30.11
   2  13   0  463.65   42.71
   2  13   1  610.02   51.31
   2  13   1  567.60   42.55
   2  13   2  158.19   18.28
   2  13   2  188.07   21.40
   2  13   3  185.17   21.84
   2  13   3  214.72   24.75
   2  13   4  290.71   31.17
   2  13   4  274.97   25.25
   2  13   5 1235.90   92.21
   2  13   5 1172.97   89.43
   2  13   6  940.29   74.40
   2  13   6 1015.66   76.21
   2  13   7  372.95   34.48
   2  13   8  149.69   18.40
   2  13   9   56.41   11.30
   2  13   9   80.82   14.70
   2  13  10   22.93   10.19
   2  13  11  787.88   74.95
   2  14  -5   -9.39    8.84
   2  14  -4  241.95   29.90
   2  14  -3  925.91   75.45
   2  14  -2  407.92   30.52
   2  14  -2  595.80   51.44
   2  14  -1 1000.54   69.21
   2  14  -1 1299.12  100.49
   2  14   0  392.85   32.96
   2  14   0  459.83   43.76
   2  14   1    1.31    5.12
   2  14   1    6.08    5.38
   2  14   2  702.06   60.10
   2  14   2  599.97   49.23
   2  14   3   72.60   13.05
   2  14   3   74.84   15.44
   2  14   4   57.78   11.92
   2  14   5   10.89    8.37
   2  14   5   20.90    8.75
   2  14   6  456.38   42.89
   2  14   6  383.13   34.20
   2  14   7  785.73   65.86
   2  14   7  870.71   77.20
   2  14   8  178.19   23.56
   2  14   9   41.35   11.20
   2  14  10   65.08   15.55
   2  15  -3   62.43   12.37
   2  15  -2   64.64   14.98
   2  15  -1  347.53   28.00
   2  15  -1  490.32   43.05
   2  15   0  876.03   68.37
   2  15   0 1113.86   94.84
   2  15   1  246.32   27.85
   2  15   1  173.79   21.18
   2  15   2    1.12    5.22
   2  15   2   -5.65    6.36
   2  15   3    9.85    6.62
   2  15   3   -0.72    7.10
   2  15   4   14.99    7.01
   2  15   4   14.72    9.37
   2  15   5  716.90   63.14
   2  15   5  695.44   57.25
   2  15   6   82.37   15.87
   2  15   6   83.09   14.98
   2  15   7  187.46   24.62
   2  15   7  241.84   27.96
  -3  14   7  736.77   66.85
  -3  14   6  343.31   40.33
  -3  14   5   74.20   13.18
  -3  14   4   38.09   11.71
  -3  14   3   21.71    8.58
  -3  14   3   35.83   10.19
  -3  14   2   17.34    7.83
  -3  14   2   12.13    7.67
  -3  14   1  243.82   26.66
  -3  14   1  254.96   27.16
  -3  14   0  264.30   27.07
  -3  14   0  240.95   24.64
  -3  14  -1   30.06    8.02
  -3  14  -1   29.35    8.25
  -3  14  -2  336.63   29.97
  -3  14  -2  388.21   37.62
  -3  14  -3  155.60   15.95
  -3  14  -3  226.60   24.48
  -3  14  -4  335.93   36.75
  -3  13   9  150.12   23.85
  -3  13   8  583.84   57.69
  -3  13   6  159.71   19.09
  -3  13   5 1402.67  111.62
  -3  13   4  122.19   16.71
  -3  13   4   85.65   11.84
  -3  13   3  465.07   41.89
  -3  13   3  407.82   33.58
  -3  13   2   70.89    9.78
  -3  13   2   82.85   13.27
  -3  13   1   80.53   12.88
  -3  13   1   75.40   12.59
  -3  13   0  115.72   15.98
  -3  13   0  115.59   15.02
  -3  13  -1    9.09    5.67
  -3  13  -1    6.41    6.83
  -3  13  -2  354.10   28.48
  -3  13  -2  393.83   35.27
  -3  13  -3  510.86   42.51
  -3  13  -3  392.64   28.10
  -3  13  -4    9.65    4.43
  -3  13  -4   17.42    8.73
  -3  13  -5  709.61   58.38
  -3  13  -6  172.21   23.28
  -3  13  -7   41.24   10.48
  -3  12  11  333.50   40.91
  -3  12  10   42.09   10.29
  -3  12   9   29.58   10.86
  -3  12   8  233.00   26.40
  -3  12   5   11.48    7.93
  -3  12   4  908.95   62.79
  -3  12   4  853.75   56.48
  -3  12   3  112.92   13.21
  -3  12   3  119.65   12.93
  -3  12   2  280.52   26.25
  -3  12   2  252.78   23.10
  -3  12   1  203.36   20.81
  -3  12   1  219.02   20.72
  -3  12   0   34.76    7.84
  -3  12   0   29.76    6.25
  -3  12  -1  475.43   36.99
  -3  12  -1  434.24   33.04
  -3  12  -2   65.61    9.07
  -3  12  -2   70.50   11.89
  -3  12  -3  111.38   17.05
  -3  12  -3  124.83    9.76
  -3  12  -4 1508.33   98.16
  -3  12  -4 1268.30   78.91
  -3  12  -5    7.15    7.65
  -3  12  -6   41.05   11.75
  -3  12  -7  221.96   24.29
  -3  12  -8   39.81   10.22
  -3  12  -9   12.63    8.92
  -3  11  12   70.67   16.96
  -3  11  11  138.51   16.79
   3 -11 -10   -0.18    4.57
  -3  11  10   23.17    7.75
   3 -11  -9   25.86    6.92
  -3  11   9   31.76   10.29
   3 -11  -8   52.09    7.07
  -3  11   8   57.93   13.35
   3 -11  -7  327.00   25.09
  -3  11   7  392.71   36.35
   3 -11  -6   20.10    4.84
   3 -11  -5   12.74    4.40
  -3  11   5   23.15    4.90
   3 -11  -4   49.71    7.59
  -3  11   4   66.79   11.66
  -3  11   4   47.76    7.91
   3 -11  -3   61.37    8.32
  -3  11   3   77.19   12.67
  -3  11   3   73.38    9.40
   3 -11  -2  405.26   25.10
  -3  11   2  463.95   32.47
  -3  11   2  469.57   35.37
  -3  11   1  914.93   60.03
  -3  11   1  907.75   56.45
  -3  11   0  482.26   34.08
  -3  11   0  507.35   36.19
  -3  11  -1   39.00    7.84
  -3  11  -1   18.96    6.58
  -3  11  -2  461.63   30.88
  -3  11  -2  494.81   35.22
  -3  11  -3  802.36   48.17
  -3  11  -3  901.56   61.78
  -3  11  -4  305.93   19.42
  -3  11  -4  340.12   29.67
  -3  11  -5  260.17   16.88
  -3  11  -5  376.32   30.83
  -3  11  -6   88.36   13.56
  -3  11  -7  220.44   23.10
  -3  11  -8  103.35   12.54
  -3  11  -9  147.71   20.08
   3 -10 -13   70.36   13.38
  -3  10  13   77.45   16.20
   3 -10 -12  384.23   35.17
  -3  10  12  410.57   42.68
   3 -10 -11  155.63   18.09
  -3  10  11  236.09   24.64
   3 -10 -10    8.61    5.10
  -3  10  10    1.99    7.07
   3 -10  -9  129.44   13.06
  -3  10   9  157.46   14.69
   3 -10  -8 1027.46   63.79
  -3  10   8 1165.73   83.72
   3 -10  -7  167.75   15.68
  -3  10   7  190.77   20.33
   3 -10  -6  375.78   25.33
  -3  10   6  395.61   33.22
   3 -10  -5  410.27   25.85
  -3  10   5  407.09   27.24
   3 -10  -4  167.35   13.10
  -3  10   4  157.33   13.77
   3 -10  -3   89.18    9.44
  -3  10   3  110.72   13.42
  -3  10   3  100.97   10.08
   3 -10  -2  144.96   11.52
  -3  10   2  160.85   14.42
  -3  10   2  158.30   15.87
   3 -10  -1   44.39    6.40
  -3  10   1   58.68    8.34
  -3  10   1   53.68    9.30
   3 -10   0   23.00    4.46
  -3  10   0   20.08    6.41
  -3  10   0   21.71    6.85
   3 -10   1  701.16   38.48
  -3  10  -1  700.50   44.74
  -3  10  -1  713.08   42.94
   3 -10   2  313.97   20.57
  -3  10  -2  356.44   26.43
  -3  10  -2  336.70   22.27
   3 -10   3   74.61    7.02
  -3  10  -3   95.98    9.09
  -3  10  -3   61.64    6.70
   3 -10   4  713.16   41.69
  -3  10  -4  734.32   40.17
  -3  10  -4  830.59   54.16
   3 -10   5    2.70    3.73
  -3  10  -5    6.31    2.58
  -3  10  -5    9.07    5.93
   3 -10   6  443.14   28.98
  -3  10  -6  455.44   23.50
  -3  10  -6  564.53   39.65
   3 -10   7  748.22   50.04
  -3  10  -7 1100.46   73.95
   3 -10   8  286.78   26.15
  -3  10  -8  430.33   35.85
   3 -10   9  121.81   14.34
  -3  10  -9  124.36   20.42
  -3  10 -11  187.33   22.56
   3  -9 -14   15.84    8.47
  -3   9  14   18.18    9.63
   3  -9 -13   20.55    8.30
  -3   9  13   18.22    9.59
   3  -9 -12  601.44   48.10
  -3   9  12  628.92   50.30
   3  -9 -11  225.38   22.21
  -3   9  11  228.60   21.69
   3  -9 -10  369.69   28.95
  -3   9  10  363.56   34.78
   3  -9  -9   53.85    8.49
  -3   9   9   47.28   11.20
   3  -9  -8 1590.40   97.71
  -3   9   8 1764.32  114.11
   3  -9  -7  512.19   33.72
  -3   9   7  538.57   36.49
   3  -9  -6  261.65   18.80
  -3   9   6  261.06   16.37
  -3   9   6  270.62   20.25
   3  -9  -5   93.12    9.33
  -3   9   5  113.60   11.42
  -3   9   5   71.24    6.95
   3  -9  -4  900.98   48.93
  -3   9   4  888.56   49.53
   3  -9  -3 1987.66  111.23
  -3   9   3 2010.78  125.52
  -3   9   3 1930.69  110.46
   3  -9  -2 1903.26  102.64
  -3   9   2 1865.76  107.94
  -3   9   2 1861.99  113.46
   3  -9  -1 2860.18  166.23
  -3   9   1 2941.19  186.83
  -3   9   1 2922.71  178.52
   3  -9   0  199.13   13.34
  -3   9   0  199.70   13.40
  -3   9   0  214.15   14.02
   3  -9   1   69.34    6.42
  -3   9  -1   60.48    8.38
  -3   9  -1   60.06    7.84
   3  -9   2  709.64   39.79
  -3   9  -2  707.67   39.72
  -3   9  -2  713.77   43.75
   3  -9   3 1689.96   93.22
  -3   9  -3 1772.56  106.86
  -3   9  -3 1617.42   89.45
   3  -9   4  217.83   15.89
  -3   9  -4  216.40   13.73
  -3   9  -4  231.12   21.08
   3  -9   5   38.99    6.16
  -3   9  -5   31.88    3.96
  -3   9  -5   42.78    8.81
   3  -9   6   72.63    8.76
  -3   9  -6   54.04    4.87
  -3   9  -6   93.52   11.58
   3  -9   7   58.84    8.49
  -3   9  -7   96.27   12.32
  -3   9  -7   65.06    5.40
   3  -9   8  146.75   15.71
  -3   9  -8  163.77   18.83
   3  -9   9  979.19   68.33
  -3   9  -9 1337.08   97.47
   3  -9  10  422.35   35.31
   3  -9  11   14.63    7.17
  -3   9 -11   13.26    8.48
   3  -9  12   90.46   15.46
  -3   9 -12  116.09   18.54
   3  -8 -15  669.46   55.75
  -3   8  15  633.55   55.13
   3  -8 -14  464.88   37.11
  -3   8  14  464.07   37.81
   3  -8 -13   60.89   11.75
  -3   8  13   57.95   12.65
   3  -8 -12  278.45   26.02
  -3   8  12  307.08   30.96
   3  -8 -11   62.53   10.28
  -3   8  11   53.20    9.96
   3  -8 -10  267.18   22.43
  -3   8  10  291.81   23.43
   3  -8  -9 1710.50  109.17
  -3   8   9 1752.44  119.02
   3  -8  -8 2643.67  170.72
  -3   8   8 2796.55  183.61
   3  -8  -7  604.13   36.84
  -3   8   7  610.05   42.82
   3  -8  -6  260.76   17.53
  -3   8   6  261.87   22.18
  -3   8   6  247.81   13.60
   3  -8  -5  168.00   13.34
  -3   8   5  158.48   10.57
  -3   8   5  178.47   14.11
   3  -8  -4   94.09    8.48
  -3   8   4   75.85    7.63
   3  -8  -3  592.36   31.90
  -3   8   3  581.20   29.38
   3  -8  -2  202.60   13.02
  -3   8   2  199.35   15.83
  -3   8   2  188.00   13.30
   3  -8  -1 1168.76   58.88
  -3   8   1 1191.03   66.90
  -3   8   1 1152.76   61.87
   3  -8   0  928.82   47.19
  -3   8   0  924.84   49.80
  -3   8   0  913.31   50.52
   3  -8   1  104.44    8.14
  -3   8  -1   83.28    8.80
  -3   8  -1  102.76    9.78
   3  -8   2   98.16    7.95
  -3   8  -2  110.74   10.75
  -3   8  -2  101.02    7.83
   3  -8   3  309.27   18.64
  -3   8  -3  304.41   17.37
  -3   8  -3  319.26   21.13
   3  -8   4  218.94   15.70
  -3   8  -4  216.94   12.72
  -3   8  -4  216.39   17.79
   3  -8   5 1122.17   61.08
  -3   8  -5 1102.78   62.61
  -3   8  -5 1046.96   50.43
   3  -8   6  485.94   30.93
  -3   8  -6  566.25   37.11
  -3   8  -6  473.26   22.05
   3  -8   7  104.86   11.46
  -3   8  -7   90.90    6.24
  -3   8  -7  149.42   13.72
   3  -8   8   49.30    8.41
  -3   8  -8   49.02   10.03
   3  -8   9   40.31    8.47
   3  -8  10  173.26   17.76
   3  -8  11  766.59   60.64
  -3   8 -11  992.02   76.63
   3  -8  12   81.51   13.99
  -3   8 -12   82.57   16.75
   3  -8  13   47.67   11.76
  -3   8 -13   66.26   15.23
   3  -7 -15    5.33    7.52
  -3   7  15    4.96    6.53
   3  -7 -14    7.85    6.57
  -3   7  14    5.81    6.67
   3  -7 -13  687.43   48.93
  -3   7  13  672.03   49.06
   3  -7 -12 1454.74  101.37
  -3   7  12 1471.18  102.64
   3  -7 -11   47.23    8.98
  -3   7  11   41.57    9.55
   3  -7 -10   63.17    9.39
  -3   7  10   54.68   10.62
   3  -7  -9 1596.08   99.67
  -3   7   9 1701.19  110.98
   3  -7  -8 5094.09  354.06
  -3   7   8 5007.85  357.03
   3  -7  -7 3881.81  245.89
  -3   7   7 3863.52  263.24
   3  -7  -6 2034.00  115.06
  -3   7   6 2008.03   99.65
  -3   7   6 2049.10  125.31
   3  -7  -5    5.80    3.59
  -3   7   5   10.06    3.54
  -3   7   5    5.30    2.04
   3  -7  -4  388.53   22.09
  -3   7   4  372.29   17.63
  -3   7   4  381.77   25.57
   3  -7  -3 1005.22   50.96
  -3   7   3 1017.29   49.00
   3  -7  -2 3734.26  221.48
  -3   7   2 3665.97  216.20
   3  -7  -1   35.12    4.84
  -3   7   1   41.77    7.30
  -3   7   1   42.62    5.50
   3  -7   0  211.23   12.98
  -3   7   0  205.94   13.26
  -3   7   0  216.24   14.22
   3  -7   1  319.54   17.37
  -3   7  -1  313.51   18.52
  -3   7  -1  312.63   18.34
   3  -7   2   20.70    4.32
  -3   7  -2   26.96    4.09
  -3   7  -2   20.90    3.85
   3  -7   3  100.69    9.56
  -3   7  -3  104.94    7.79
  -3   7  -3  107.70   10.88
   3  -7   4  173.37   13.16
  -3   7  -4  169.85   14.35
  -3   7  -4  160.95    9.34
   3  -7   5   97.58    9.76
  -3   7  -5   89.20    5.42
  -3   7  -5  133.09   11.06
   3  -7   6  927.31   52.75
  -3   7  -6  875.13   39.65
  -3   7  -6  914.96   51.99
   3  -7   7    8.30    4.92
  -3   7  -7    7.31    5.85
  -3   7  -7   11.39    2.15
   3  -7   8   13.83    6.50
  -3   7  -8   33.38    7.57
   3  -7   9   47.67    9.33
   3  -7  10  311.78   28.09
   3  -7  11   15.67    8.41
  -3   7 -11   33.50    9.32
   3  -7  12   16.42    9.04
  -3   7 -12   35.44    8.23
   3  -7  13  124.54   22.58
  -3   7 -13  242.33   26.26
   3  -7  14   -4.41    5.58
  -3   7 -14   -8.96    7.78
   3  -6 -16  218.01   26.69
   3  -6 -15  352.93   37.14
   3  -6 -14  422.08   37.54
  -3   6  14  379.54   33.35
   3  -6 -13    7.02    6.65
  -3   6  13   11.19    6.04
   3  -6 -12   17.57    7.41
  -3   6  12   14.69    6.98
   3  -6 -11  856.20   53.78
  -3   6  11  900.73   56.42
   3  -6 -10  981.17   63.20
  -3   6  10  954.04   61.34
   3  -6  -9   25.35    6.80
  -3   6   9   26.73    6.26
   3  -6  -8   78.32   10.93
  -3   6   8  169.53   14.94
   3  -6  -7 2463.23  142.03
  -3   6   7 2124.98  104.27
  -3   6   7 2493.98  143.59
   3  -6  -6 2239.88  124.89
  -3   6   6 2076.10   99.93
  -3   6   6 2260.33  128.29
   3  -6  -5   13.27    3.80
  -3   6   5    9.39    4.84
  -3   6   5   12.44    2.55
   3  -6  -4    1.72    3.29
  -3   6   4    7.82    4.30
  -3   6   4    6.13    1.83
   3  -6  -3  918.07   44.73
  -3   6   3  890.54   39.40
  -3   6   3  912.67   49.44
   3  -6  -2  279.01   16.47
  -3   6   2  256.75   12.79
   3  -6  -1 1902.79   98.18
  -3   6   1 1955.16   98.40
   3  -6   0 3470.10  197.52
  -3   6   0 3458.25  198.62
  -3   6   0 3448.38  201.71
   3  -6   1  381.98   20.64
  -3   6  -1  358.14   20.08
  -3   6  -1  358.28   19.53
   3  -6   2   44.75    6.41
  -3   6  -2   45.45    4.76
  -3   6  -2   56.49    6.70
   3  -6   3  319.04   18.77
  -3   6  -3  304.08   15.70
  -3   6  -3  328.60   20.25
   3  -6   4  859.08   44.69
  -3   6  -4  842.86   45.13
  -3   6  -4  796.75   35.49
   3  -6   5 1194.87   64.72
  -3   6  -5 1111.81   50.09
  -3   6  -5 1201.05   62.10
   3  -6   6    7.26    4.05
  -3   6  -6   11.99    4.74
  -3   6  -6    7.22    1.69
   3  -6   7  389.04   25.83
  -3   6  -7  391.57   26.42
   3  -6   8   61.95    7.85
   3  -6   9 3889.81  271.26
   3  -6  10   35.66    8.98
  -3   6 -10   49.14    9.41
   3  -6  11  158.08   17.02
  -3   6 -11  167.29   19.87
   3  -6  12  992.38   75.69
  -3   6 -12 1010.50   71.85
   3  -6  13  326.06   32.88
  -3   6 -13  364.17   37.50
   3  -6  14  225.54   21.81
  -3   6 -14   65.01   15.97
   3  -6  15   10.89    7.52
  -3   6 -15    2.48    7.99
   3  -5 -16   24.22    8.31
   3  -5 -15  188.76   21.29
   3  -5 -14  708.52   55.53
  -3   5  14  589.28   44.25
   3  -5 -13 1574.67  112.67
  -3   5  13 1546.49  102.37
   3  -5 -12  683.74   46.44
  -3   5  12  686.76   46.24
   3  -5 -11   21.69    6.93
  -3   5  11   12.66    5.87
   3  -5 -10   36.25    7.12
  -3   5  10   19.36    5.26
   3  -5  -9   43.73    7.64
  -3   5   9   34.22    6.16
   3  -5  -8 2218.76  133.06
  -3   5   8 2212.08  133.26
   3  -5  -7  656.52   33.72
  -3   5   7  668.29   34.40
  -3   5   7  582.19   21.48
   3  -5  -6  859.50   44.78
  -3   5   6  846.60   32.60
  -3   5   6  876.55   43.93
  -3   5   6  797.48   31.08
   3  -5  -5 2162.28  119.89
  -3   5   5 2105.25   97.50
  -3   5   5 2332.07  106.92
  -3   5   5 2139.04  122.40
   3  -5  -4   39.32    5.94
  -3   5   4   44.89    7.74
  -3   5   4   49.51    3.34
   3  -5  -3  349.49   19.21
  -3   5   3  346.76   21.66
  -3   5   3  337.65   14.51
   3  -5  -2  386.65   21.50
  -3   5   2  408.41   17.85
  -3   5   2  394.95   23.18
   3  -5  -1 4348.46  259.41
  -3   5   1 4314.68  250.98
   3  -5   0  705.90   34.85
  -3   5   0  703.87   36.70
  -3   5   0  704.63   33.42
   3  -5   1  241.82   14.52
  -3   5  -1  241.21   14.34
  -3   5  -1  237.27   14.56
   3  -5   2 1766.49   90.47
  -3   5  -2 1754.35   91.02
  -3   5  -2 1702.85   82.82
   3  -5   3  487.12   25.58
  -3   5  -3  465.96   21.47
  -3   5  -3  470.70   23.26
   3  -5   4  152.20   12.00
  -3   5  -4  143.09    7.54
  -3   5  -4  149.98    9.88
   3  -5   5 2642.67  150.53
  -3   5  -5 2619.64  131.89
  -3   5  -5 2719.98  159.65
   3  -5   6 1475.26   81.27
  -3   5  -6 1349.63   61.24
  -3   5  -6 1399.21   79.38
   3  -5   7  699.28   40.03
   3  -5   7  678.34   27.13
  -3   5  -7  683.90   37.18
   3  -5   8   63.81    6.95
   3  -5   9 1282.41   80.87
   3  -5  10  306.01   26.12
  -3   5 -10  308.38   26.75
   3  -5  11  347.95   27.62
  -3   5 -11  349.41   30.57
   3  -5  12   21.76   10.29
  -3   5 -12   42.54    9.69
   3  -5  13  245.72   26.85
  -3   5 -13  236.96   27.47
   3  -5  14  307.95   34.13
  -3   5 -14  314.65   31.30
   3  -5  15  102.76   15.76
  -3   5 -15   26.60   11.91
   3  -4 -16  138.05   19.97
   3  -4 -15   50.20    9.89
   3  -4 -14   83.86   13.91
   3  -4 -13 1005.86   74.18
  -3   4  13  997.60   62.19
   3  -4 -12  237.12   22.58
  -3   4  12  240.52   19.93
   3  -4 -11  194.80   18.70
  -3   4  11  207.61   16.74
   3  -4 -10  259.53   18.68
  -3   4  10  246.97   17.89
   3  -4  -9   19.82    6.12
  -3   4   9   14.92    5.25
   3  -4  -8  203.63   15.79
  -3   4   8  190.95   14.12
   3  -4  -7 1208.00   66.63
  -3   4   7 1277.80   68.29
   3  -4  -6 1149.18   56.78
  -3   4   6 1153.96   41.98
  -3   4   6 1205.33   62.65
  -3   4   6 1053.59   38.01
   3  -4  -5  269.15   16.72
  -3   4   5  270.93   17.77
  -3   4   5  254.15    8.94
  -3   4   5  262.43    9.20
   3  -4  -4   47.38    6.10
  -3   4   4   35.37    2.61
  -3   4   4   45.84    5.07
   3  -4  -3 1560.04   62.76
   3  -4  -3 1368.85   69.19
  -3   4   3 1439.53   76.94
  -3   4   3 1425.08   59.24
   3  -4  -2 1132.95   56.01
  -3   4   2 1240.81   51.28
  -3   4   2 1214.40   57.46
   3  -4  -1 2354.19  121.94
  -3   4   1 2344.63  113.25
   3  -4   0  573.80   27.86
  -3   4   0  559.73   25.53
   3  -4   1 3033.63  163.65
  -3   4  -1 3076.55  163.85
  -3   4  -1 2987.60  161.34
   3  -4   2 1434.88   70.22
  -3   4  -2 1405.62   67.97
  -3   4  -2 1383.66   64.70
   3  -4   3 3534.20  201.90
  -3   4  -3 3372.29  182.68
  -3   4  -3 3541.36  200.08
   3  -4   4 3698.11  216.73
  -3   4  -4 3535.20  191.28
  -3   4  -4 3718.01  221.12
   3  -4   5   58.41    7.74
  -3   4  -5   50.35    3.69
  -3   4  -5   62.03    7.53
   3  -4   6   17.87    2.05
   3  -4   6   23.48    4.10
  -3   4  -6   16.75    3.92
   3  -4   7 7615.67  560.80
   3  -4   7 7585.44  496.54
  -3   4  -7 7909.79  587.20
   3  -4   8 1102.26   62.89
   3  -4   8 1044.82   42.77
   3  -4   9  205.29   19.32
   3  -4  10   37.75    8.44
  -3   4 -10   41.12    8.51
   3  -4  11  192.70   17.56
  -3   4 -11  123.08   14.65
   3  -4  12   36.29    9.68
  -3   4 -12   49.58   10.25
   3  -4  13  568.47   44.56
  -3   4 -13  564.73   47.11
   3  -4  14  182.90   19.70
  -3   4 -14  213.48   25.97
   3  -4  15   40.53    9.47
  -3   4 -15   34.26   11.08
   3  -4  16   11.89    7.63
  -3   4 -16   13.50    8.40
   3  -3 -16   -3.36    7.05
   3  -3 -15  146.38   16.65
   3  -3 -14  619.29   43.23
   3  -3 -13    3.66    2.84
   3  -3 -12   39.41    4.80
  -3   3  12   60.60    6.98
   3  -3 -11   21.30    5.88
  -3   3  11   25.97    5.02
   3  -3 -10   16.93    5.00
  -3   3  10   24.59    5.18
   3  -3  -9    3.08    3.48
  -3   3   9    6.43    3.54
   3  -3  -8   94.50    9.43
  -3   3   8   90.48    7.93
   3  -3  -7 1931.56  107.85
  -3   3   7 1990.96  106.32
   3  -3  -6  640.17   34.89
  -3   3   6  647.89   33.35
   3  -3  -5   11.78    4.76
  -3   3   5   14.88    3.92
   3  -3  -4 3255.29  190.74
  -3   3   4 3526.29  199.75
  -3   3   4 3742.76  175.15
   3  -3  -3  539.71   17.56
   3  -3  -3  486.24   25.27
  -3   3   3  481.36   22.64
  -3   3   3  461.75   15.01
   3  -3  -2 1055.85   39.38
   3  -3  -2 1122.33   51.79
  -3   3   2 1075.95   52.98
  -3   3   2 1085.78   40.14
   3  -3  -1 2520.47  114.79
   3  -3  -1 2330.83  117.73
  -3   3   1 2291.75  114.60
  -3   3   1 2275.08  103.89
   3  -3   0 2219.69  111.94
  -3   3   0 2221.32  104.45
   3  -3   1   50.73    5.95
  -3   3  -1   53.13    5.67
   3  -3   2  965.82   46.14
  -3   3  -2  923.82   41.12
  -3   3  -2  918.59   43.20
   3  -3   3 4463.48  263.28
  -3   3  -3 4344.73  244.89
  -3   3  -3 4349.52  259.27
   3  -3   4   50.83    5.67
  -3   3  -4   52.38    7.45
  -3   3  -4   60.13    4.06
   3  -3   5  596.76   24.68
   3  -3   5  638.07   33.72
  -3   3  -5  617.75   34.15
   3  -3   6  553.78   28.26
   3  -3   6  516.84   20.81
  -3   3  -6  566.25   32.77
   3  -3   7 2722.39  160.51
   3  -3   7 2727.52  134.68
   3  -3   8  796.55   46.48
   3  -3   8  740.25   29.38
   3  -3   9  591.33   37.94
   3  -3   9  542.11   21.22
  -3   3  -9  597.18   37.21
   3  -3  10  197.12   19.17
  -3   3 -10  187.33   18.57
   3  -3  11  373.34   32.83
  -3   3 -11  370.56   30.37
   3  -3  12   13.08    6.57
  -3   3 -12    6.90    4.45
   3  -3  13 1254.11   90.35
  -3   3 -13 1141.03   80.52
   3  -3  14  911.67   71.69
  -3   3 -14  829.07   65.62
   3  -3  15  429.10   42.02
  -3   3 -15  326.02   34.39
   3  -3  16   15.29    8.66
  -3   3 -16    2.80    7.20
  -3   2  15   24.17    9.76
  -3   2  14  462.38   36.84
  -3   2  13    1.23    4.75
  -3   2  12  230.44   22.75
  -3   2  12  227.24   14.92
  -3   2  11  764.33   40.15
  -3   2  11  794.68   53.06
  -3   2  10  468.10   24.97
  -3   2  10  463.42   32.49
  -3   2   9  248.85   19.30
  -3   2   9  255.54   14.63
   3  -2  -8  402.23   11.23
  -3   2   8  700.29   29.42
   3  -2  -7  444.02   26.87
  -3   2   7  463.31   22.70
   3  -2  -6  505.20   27.99
  -3   2   6  494.23   24.75
   3  -2  -5  809.16   38.32
  -3   2   5  809.99   39.13
   3  -2  -4 1497.63   70.10
  -3   2   4 1461.97   71.24
   3  -2  -3 3244.98  170.87
   3  -2  -2   38.90    5.13
  -3   2   2   43.12    4.19
  -3   2   2   29.11    2.12
   3  -2  -1   63.89    6.29
  -3   2   1   65.32    5.07
  -3   2   1   44.97    2.93
   3  -2   0  402.47   15.16
   3  -2   0  387.78   17.30
  -3   2   0  363.01   19.07
  -3   2   0  370.14   15.21
   3  -2   2 2323.74  117.19
  -3   2  -2 2237.24  109.79
  -3   2  -2 2254.69  114.95
   3  -2   3 1044.09   47.56
  -3   2  -3 1012.90   44.08
  -3   2  -3 1070.26   48.22
   3  -2   4  272.74   12.75
   3  -2   4  281.13   16.89
  -3   2  -4  268.43   17.11
   3  -2   5  358.06   15.05
   3  -2   5  375.63   19.90
  -3   2  -5  370.42   22.67
   3  -2   6  163.18    7.55
   3  -2   6  168.99   13.54
  -3   2  -6  164.59   13.52
   3  -2   7 5351.76  348.21
   3  -2   7 5389.71  319.08
   3  -2   8 1887.49   87.83
   3  -2   8 1975.03  111.98
   3  -2   9  105.42   10.17
   3  -2   9   91.57    4.78
  -3   2  -9  122.71   11.52
   3  -2  10    8.35    4.23
  -3   2 -10   14.78    5.70
   3  -2  11  108.97   13.09
  -3   2 -11   87.46   10.97
   3  -2  12  867.66   61.96
  -3   2 -12  836.86   57.82
   3  -2  13  219.40   22.94
  -3   2 -13  174.87   19.84
   3  -2  14   92.38   12.93
  -3   2 -14   29.31   11.92
   3  -2  15  105.01   17.61
  -3   2 -15  161.15   18.76
   3  -2  16   11.35    6.52
  -3   2 -16   -3.80    5.83
   3  -2  17    3.25    6.34
  -3   2 -17   -0.41    4.97
  -3   1  16   27.50   10.29
  -3   1  15   50.26   12.18
  -3   1  14  189.97   20.71
  -3   1  13   15.02    7.09
   3  -1 -12  186.89    9.79
  -3   1  12  239.68   19.16
   3  -1 -11   81.00    5.28
  -3   1  11  115.87   12.95
  -3   1  11  100.01    7.27
   3  -1 -10   87.75    4.92
  -3   1  10   99.69    7.19
  -3   1  10  103.49   10.01
   3  -1  -9  263.78   10.62
  -3   1   9  254.77   13.75
  -3   1   9  245.60   18.87
   3  -1  -8  886.45   32.50
  -3   1   8  817.96   47.80
  -3   1   8  814.78   37.90
   3  -1  -7   58.12    2.74
  -3   1   7   71.83    6.26
  -3   1   7   70.48    6.02
   3  -1  -6 2098.96  113.37
  -3   1   6 2767.03  135.91
   3  -1  -5 2695.54  146.72
  -3   1   5 2679.91  138.12
   3  -1  -4 1833.85   89.92
  -3   1   4 1789.43   85.16
   3  -1  -3  420.26   20.54
  -3   1   3  407.23   17.40
   3  -1  -2 1760.82   84.80
   3  -1  -2 1804.84   68.59
  -3   1   2 1740.16   84.83
   3  -1  -1 2101.24   98.59
   3  -1  -1 2169.82   91.63
  -3   1   1 2050.63   96.20
  -3   1   1 2065.41   85.71
   3  -1   0  568.36   21.14
   3  -1   0  547.36   26.30
  -3   1   0  518.08   20.58
  -3   1   0  532.31   26.20
   3  -1   1  420.20   21.48
  -3   1  -1  400.01   20.11
  -3   1  -1  487.34   22.74
   3  -1   2   72.18    5.85
  -3   1  -2  106.23    7.49
   3  -1   3   28.16    5.20
   3  -1   3   25.10    3.92
  -3   1  -3   28.78    4.16
   3  -1   4 1430.00   67.14
   3  -1   4 1379.47   62.10
  -3   1  -4 1441.61   71.13
   3  -1   5  576.67   27.74
   3  -1   5  541.79   23.94
  -3   1  -5  542.22   31.40
   3  -1   6   20.29    6.08
   3  -1   6   24.63    3.52
   3  -1   7 1061.89   53.30
   3  -1   7 1029.09   44.30
   3  -1   8  131.00    6.79
   3  -1   8  125.45   11.06
  -3   1  -8  146.32   12.38
   3  -1   9  557.45   23.91
   3  -1   9  594.23   36.87
  -3   1  -9  632.18   38.65
   3  -1  10   15.81    4.96
   3  -1  10    3.83    1.63
  -3   1 -10    9.13    3.55
   3  -1  11  280.43   21.13
  -3   1 -11  255.67   19.18
   3  -1  12  172.27   16.10
  -3   1 -12  181.02   16.61
   3  -1  13 1338.49   90.25
  -3   1 -13 1269.43   86.58
   3  -1  14   22.95    7.62
  -3   1 -14   38.41    7.91
   3  -1  15   10.68    9.13
  -3   1 -15   18.54    7.29
   3  -1  16    7.20    8.38
  -3   1 -16   14.11    7.48
   3  -1  17    0.41    8.02
  -3   1 -17   12.85    7.09
  -3   0  16   18.35    7.20
  -3   0  15  258.52   24.94
  -3   0  14 1044.24   76.53
  -3   0  13  706.12   52.37
   3   0 -12   89.31    6.38
  -3   0  12  146.42   13.97
   3   0 -11  123.25    7.65
  -3   0  11  149.50   16.13
   3   0 -10 1201.70   53.45
  -3   0  10 1087.16   50.80
  -3   0  10 1195.22   72.50
   3   0  -9   13.34    1.98
  -3   0   9   12.05    5.32
  -3   0   9   12.83    2.49
   3   0  -8  812.62   32.07
  -3   0   8  847.94   47.03
  -3   0   8  829.37   35.47
   3   0  -7  179.74    7.00
  -3   0   7  179.91    6.43
  -3   0   7  180.72    8.95
  -3   0   7  182.91   14.09
   3   0  -6  385.42   12.99
  -3   0   6  380.31   16.80
  -3   0   6  385.70   23.45
  -3   0   6  390.06   12.45
  -3   0   5   34.15    3.36
  -3   0   5   17.00    1.13
   3   0  -3  835.64   37.17
   3   0  -3  699.77   22.15
   3   0  -3  818.57   25.09
  -3   0   3  803.73   34.25
   3   0  -2   36.02    4.64
  -3   0   2   38.03    4.75
  -3   0   2   24.47    1.98
   3   0  -1  124.06    8.81
   3   0  -1  142.37    6.59
  -3   0   1  142.99    5.95
  -3   0   1  137.37    8.32
  -3   0   1  123.13    7.66
  -3   0   0 8636.51  584.94
   3   0   1 1080.23   48.21
   3   0   1 1008.82   45.41
  -3   0  -1 1007.45   43.04
  -3   0  -1 1048.72   48.97
  -3   0  -1 1125.16   47.70
   3   0   2   12.57    2.95
   3   0   2   13.51    3.99
  -3   0  -2   16.11    3.54
   3   0   3  232.28   14.46
   3   0   3  233.85   13.75
  -3   0  -3  251.13   15.27
   3   0   4 2846.89  149.36
   3   0   4 3013.96  162.04
  -3   0  -4 3087.62  167.72
   3   0   5  684.10   31.69
   3   0   5  691.94   31.79
  -3   0  -5  743.40   39.13
   3   0   6 1583.87   81.84
   3   0   6 1498.32   69.79
   3   0   7  401.57   24.39
   3   0   7  398.53   18.15
   3   0   8 1083.99   48.97
   3   0   8 1123.53   62.74
  -3   0  -8 1154.89   65.36
   3   0   9 1322.26   72.19
   3   0   9 1214.00   57.32
  -3   0  -9 1367.23   78.34
   3   0  10   46.95    8.08
   3   0  10   46.24    3.76
  -3   0 -10   65.73    8.53
   3   0  11 1330.52   66.35
   3   0  11 1409.00   86.16
  -3   0 -11 1444.56   88.62
   3   0  12 1006.95   65.49
  -3   0 -12 1020.50   68.25
   3   0  13   89.82   14.29
  -3   0 -13  100.97   12.48
   3   0  14  173.79   21.06
  -3   0 -14  172.74   18.83
   3   0  15  218.39   22.83
  -3   0 -15  205.38   23.51
   3   0  16    4.60    8.78
  -3   0 -16   26.46    8.33
   3   0  17    1.17    5.40
  -3   0 -17    7.12    6.12
  -3  -1  16  135.47   20.53
  -3  -1  15   60.78   13.10
  -3  -1  14  181.05   19.02
   3   1 -13  300.27   16.71
  -3  -1  13  354.78   31.63
   3   1 -12  518.89   26.10
  -3  -1  12  529.73   36.09
   3   1 -11 1425.01   71.09
  -3  -1  11 1606.86  101.38
   3   1 -10   38.56    3.85
  -3  -1  10   45.52    8.19
   3   1  -9  104.56    5.61
  -3  -1   9  115.50    5.72
  -3  -1   9  100.61   10.77
   3   1  -8   83.77    4.80
  -3  -1   8   93.94    5.13
  -3  -1   8   99.83    9.75
   3   1  -7 3373.86  179.63
  -3  -1   7 4155.63  250.16
  -3  -1   7 3915.88  207.90
   3   1  -6 4312.49  238.57
  -3  -1   6 4751.23  296.84
  -3  -1   6 4675.82  255.19
   3   1  -5  148.26    6.43
  -3  -1   5  164.97    7.58
  -3  -1   5  149.86    9.53
  -3  -1   5  142.08    5.20
   3   1  -4 1567.57   65.75
  -3  -1   4 1993.21   85.46
   3   1  -3   13.09    2.24
   3   1  -3   12.78    1.89
   3   1  -3   11.29    2.19
  -3  -1   3   15.92    3.06
   3   1  -2  369.21   15.65
   3   1  -2  320.82   11.25
   3   1  -2  359.13   11.76
  -3  -1   2  349.22   16.46
   3   1  -1 2659.87  118.03
  -3  -1   1 1915.65   85.35
  -3  -1   1 2059.37  100.27
  -3  -1   1 2216.01  101.95
   3   1   0 3616.31  197.75
   3   1   0 3956.49  213.74
  -3  -1   0 3861.62  202.34
  -3  -1  -1 2677.60  127.76
  -3  -1  -1 2763.19  145.75
   3   1   2   42.17    4.47
  -3  -1  -2   41.93    4.74
  -3  -1  -2   31.83    4.02
   3   1   3 5107.99  314.55
  -3  -1  -3 5814.35  362.42
   3   1   4 1479.24   72.20
  -3  -1  -4 1662.94   84.26
   3   1   5  970.12   44.98
  -3  -1  -5 1087.73   56.98
   3   1   6 3387.81  184.83
   3   1   7  368.24   19.13
   3   1   8 1601.67   79.07
  -3  -1  -8 1704.62   94.62
   3   1   9  158.80    9.17
  -3  -1  -9  161.25   12.41
   3   1  10  228.07   12.79
  -3  -1 -10  233.34   18.54
   3   1  11  395.86   21.81
  -3  -1 -11  407.37   28.31
   3   1  12 1144.81   59.62
  -3  -1 -12 1236.28   78.85
  -3  -1 -13    8.49    5.51
  -3  -1 -14  117.59   15.39
  -3  -1 -15  234.26   25.10
  -3  -1 -16  168.20   18.26
  -3  -1 -17  101.90   15.61
  -3  -2  16   45.85   13.22
  -3  -2  15   59.05   12.26
  -3  -2  14  181.08   21.98
   3   2 -13   24.96    3.62
  -3  -2  13   34.06    8.35
   3   2 -12  275.36   15.71
  -3  -2  12  291.54   25.29
   3   2 -11  106.26    7.51
  -3  -2  11  157.70   14.36
   3   2 -10  496.19   23.19
  -3  -2  10  549.32   35.92
   3   2  -9  482.35   20.95
  -3  -2   9  484.10   18.10
  -3  -2   9  513.73   31.40
   3   2  -8  196.39    9.41
  -3  -2   8  196.27    7.96
  -3  -2   8  212.41   15.10
   3   2  -7 1786.66   82.89
  -3  -2   7 2026.67  107.75
  -3  -2   7 1807.74   80.24
   3   2  -6  432.15   16.08
   3   2  -6  358.28   14.55
  -3  -2   6  411.71   22.93
  -3  -2   6  407.04   15.75
   3   2  -5  103.95    4.59
   3   2  -5   89.79    4.79
  -3  -2   5   97.72    8.89
  -3  -2   5   90.87    4.87
   3   2  -4  221.90    8.49
   3   2  -4  199.44    8.68
  -3  -2   4  207.04   12.02
  -3  -2   4  192.90    7.58
   3   2  -3 1818.47   80.55
   3   2  -3 1995.78   88.73
   3   2  -3 1876.84   84.61
   3   2  -3 1794.10   84.15
   3   2  -3 2038.68   89.76
   3   2  -1   12.51    2.10
   3   2  -1   10.33    2.65
   3   2  -1   15.88    2.73
  -3  -2   1   14.92    3.38
  -3  -2   1    8.44    1.70
   3   2   0  623.30   22.90
  -3  -2   0  654.13   23.70
  -3  -2   0  697.58   31.81
  -3  -2  -1 5188.16  311.05
  -3  -2  -1 4970.53  275.35
   3   2   2  169.99    7.96
   3   2   2  166.21   12.53
  -3  -2  -2  170.02    8.03
  -3  -2  -2  174.45   11.00
   3   2   3  167.75   12.25
   3   2   3  177.96    9.86
  -3  -2  -3  197.31   12.32
  -3  -2  -3  193.59    9.51
   3   2   4  129.79    8.75
   3   2   4  121.05    9.71
  -3  -2  -4  153.69   12.92
   3   2   5 1783.35   88.72
   3   2   5 1786.23   89.25
   3   2   6 1188.11   60.47
   3   2   6 1209.36   60.38
  -3  -2  -7 9344.67  708.62
   3   2   8 1060.73   52.52
  -3  -2  -8 1089.94   55.93
   3   2   9 1993.05  106.04
  -3  -2  -9 2009.53  115.96
   3   2  10  747.21   39.28
  -3  -2 -10  869.04   51.09
   3   2  11  151.61   11.63
  -3  -2 -11  142.43   15.75
   3   2  12   21.96    4.40
  -3  -2 -12   21.69    6.91
  -3  -2 -13   63.07   11.23
  -3  -2 -14  647.59   48.55
  -3  -2 -15  151.17   19.20
  -3  -2 -16   92.08   13.59
  -3  -2 -17   10.51    7.17
  -3  -3  16  104.73   17.56
  -3  -3  15  241.06   26.45
   3   3 -14  161.90   13.17
  -3  -3  14  179.22   20.03
   3   3 -13   68.00    6.42
  -3  -3  13   81.64   11.64
   3   3 -12  414.86   23.79
  -3  -3  12  491.59   37.18
   3   3 -11   40.18    4.99
  -3  -3  11   50.07    8.85
   3   3 -10   21.79    3.15
  -3  -3  10   14.77    4.68
   3   3  -9   73.08    5.42
  -3  -3   9  103.05    9.89
   3   3  -8   17.78    3.39
  -3  -3   8   43.43    5.56
   3   3  -7   43.85    1.98
   3   3  -7   54.08    4.20
   3   3  -7   47.23    2.26
  -3  -3   7   50.87    6.56
   3   3  -6   21.93    1.97
   3   3  -6   18.87    1.68
   3   3  -6   23.21    3.09
  -3  -3   6   28.08    4.79
   3   3  -5 7656.30  498.93
   3   3  -4 1584.69   67.14
   3   3  -4 1525.04   67.29
   3   3  -4 1549.69   73.67
  -3  -3   4 1512.43   71.96
   3   3  -3  638.92   24.51
   3   3  -3  597.84   23.26
   3   3  -3  611.44   27.75
  -3  -3   3  580.22   24.97
   3   3  -2 1117.53   44.35
   3   3  -2 1197.92   46.97
   3   3  -2 1337.94   59.41
   3   3  -2 1145.83   49.77
  -3  -3   2 1086.15   44.39
   3   3  -1   78.22    3.57
   3   3  -1   94.60    3.76
   3   3  -1   87.71    7.24
   3   3   1  695.21   23.95
   3   3   1  742.93   34.83
  -3  -3  -1  775.71   27.50
  -3  -3  -1  817.55   41.78
   3   3   2  119.78    8.81
  -3  -3  -2   85.58    7.40
  -3  -3  -2   83.28    4.22
   3   3   3  103.79    5.39
   3   3   3  103.33    9.67
  -3  -3  -3  107.28    5.77
  -3  -3  -3  121.84   11.36
   3   3   4  834.97   43.10
   3   3   4  879.34   37.76
  -3  -3  -4  914.87   48.65
   3   3   5    2.52    4.16
   3   3   5    6.56    2.96
   3   3   6 1826.38   94.00
   3   3   6 1886.52   95.74
   3   3   7   78.02    5.91
   3   3   7   75.84    8.31
  -3  -3  -7   76.37    8.03
   3   3   8   87.49    7.48
   3   3   8   75.75    8.56
  -3  -3  -8   75.71    9.91
   3   3   9 1504.88   81.75
   3   3   9 1593.71   91.50
  -3  -3  -9 1657.22   94.18
   3   3  10 3586.73  222.40
   3   3  10 3357.71  205.51
  -3  -3 -10 3440.03  221.91
   3   3  11 1007.83   57.73
   3   3  11 1089.61   67.70
  -3  -3 -11 1071.55   64.50
   3   3  12   57.90    7.06
   3   3  12   60.32   10.23
  -3  -3 -12   52.67   10.18
   3   3  13   81.35    9.09
   3   3  13   61.60    8.05
  -3  -3 -13   64.50   11.09
   3   3  14 1688.54  118.27
  -3  -3 -14 1483.44  102.46
   3   3  15 4389.54  330.17
  -3  -3 -15 3594.32  275.30
   3   3  16   45.71   11.94
  -3  -3 -16   33.07    9.32
   3   3  17    8.23    7.23
  -3  -3 -17    1.37    5.57
  -3  -4  15   20.88    9.55
   3   4 -14   10.59    3.69
  -3  -4  14   12.43    7.07
   3   4 -13    2.49    3.18
  -3  -4  13    8.00    5.39
   3   4 -12  281.05   18.58
  -3  -4  12  295.04   25.43
   3   4 -11  563.21   32.31
  -3  -4  11  652.48   43.25
   3   4 -10  251.25   14.86
  -3  -4  10  268.86   21.04
   3   4  -9  103.62    8.07
  -3  -4   9  103.16   10.36
   3   4  -8   82.02    6.93
  -3  -4   8  118.17    9.23
   3   4  -7   42.06    5.20
  -3  -4   7   43.29    5.54
   3   4  -6  117.36    4.60
   3   4  -6  124.26    4.82
   3   4  -6  131.80    8.06
  -3  -4   6  127.32    8.48
   3   4  -5  371.49   19.16
   3   4  -5  361.24   13.74
  -3  -4   5  375.46   19.12
   3   4  -4  103.82    5.04
   3   4  -4  113.30    5.72
   3   4  -4  107.84    8.63
  -3  -4   4  112.64    7.32
   3   4  -3  277.53   15.73
   3   4  -3  266.64   11.52
  -3  -4   3  250.24    9.33
  -3  -4   3  279.72   11.66
   3   4  -2 2073.64   88.59
   3   4  -2 1888.01   82.80
   3   4  -2 1917.99  100.05
   3   4  -2 1917.85   88.29
   3   4  -1   14.40    1.38
   3   4  -1   11.00    1.61
   3   4  -1   19.23    2.91
   3   4   0  624.99   18.99
   3   4   0  582.92   28.82
   3   4   0  569.48   17.04
   3   4   3 1448.25   76.32
   3   4   3 1506.63   62.79
  -3  -4  -3 1631.85   80.18
  -3  -4  -3 1600.10   66.65
   3   4   4 4168.30  227.15
   3   4   4 4133.73  250.53
   3   4   5    7.63    2.60
   3   4   5    5.53    4.31
   3   4   6   31.28    6.69
   3   4   6   43.40    4.71
  -3  -4  -6   39.66    7.63
   3   4   7 5426.46  365.52
   3   4   7 5373.49  351.29
  -3  -4  -7 6150.40  406.95
   3   4   8  361.58   22.38
   3   4   8  361.49   22.04
  -3  -4  -8  361.37   23.08
   3   4   9  460.34   27.80
   3   4   9  429.82   27.07
  -3  -4  -9  453.55   28.62
   3   4  10  219.59   16.88
   3   4  10  246.42   19.60
  -3  -4 -10  242.17   18.99
   3   4  11  286.99   21.07
   3   4  11  312.45   24.16
  -3  -4 -11  281.28   22.85
   3   4  12  386.17   28.96
   3   4  12  385.87   26.75
  -3  -4 -12  343.07   28.47
   3   4  13  117.76    9.49
   3   4  13  119.56   13.49
  -3  -4 -13   59.57   12.32
   3   4  14    8.32    4.32
   3   4  14    9.09    4.73
  -3  -4 -14    0.82    5.45
   3   4  15    4.63    5.55
  -3  -4 -15   14.48    5.71
   3   4  16   44.62    9.06
  -3  -4 -16    6.07    6.51
   3   4  17  673.70   56.86
  -3  -4 -17  409.26   37.37
  -3  -5  15    9.24    7.02
   3   5 -14    6.46    3.81
  -3  -5  14   10.68    6.58
   3   5 -13   37.54    5.57
  -3  -5  13   33.75    7.47
   3   5 -12   60.89    7.73
  -3  -5  12   62.00    9.92
   3   5 -11 2224.22  137.14
  -3  -5  11 2491.15  163.32
   3   5 -10  297.63   19.26
  -3  -5  10  304.47   22.54
   3   5  -9  227.77   15.37
  -3  -5   9  225.52   16.86
   3   5  -8   84.73    7.29
  -3  -5   8   71.77    8.44
   3   5  -7  422.56   23.22
  -3  -5   7  419.74   22.34
   3   5  -6   46.08    5.62
  -3  -5   6   43.74    5.03
   3   5  -5 3397.66  166.08
   3   5  -5 3153.88  157.01
   3   5  -5 3103.29  183.67
  -3  -5   5 3106.26  170.12
   3   5  -4 1749.71   78.71
   3   5  -4 1720.67   87.85
  -3  -5   4 1844.49   84.97
   3   5  -3  639.84   26.08
   3   5  -3  672.10   34.89
  -3  -5   3  674.35   26.17
   3   5  -2  133.37    5.29
   3   5  -2  126.20    7.75
   3   5  -2  108.62    4.42
   3   5  -1 3503.79  160.99
   3   5  -1 3364.84  183.65
   3   5  -1 3031.56  137.28
   3   5   0 2415.06  127.56
   3   5   0 2533.43  139.98
   3   5   1  434.69   23.95
   3   5   2  785.70   26.78
  -3  -5  -2  849.77   47.80
   3   5   3  514.47   18.75
   3   5   3  496.85   25.81
  -3  -5  -3  517.04   19.09
  -3  -5  -3  514.49   28.69
   3   5   4 1557.42   70.11
   3   5   4 1485.44   83.63
  -3  -5  -4 1650.59   71.32
   3   5   5  432.05   25.94
   3   5   5  416.14   18.26
   3   5   6  614.72   35.97
   3   5   6  635.22   29.90
  -3  -5  -6  609.88   35.58
   3   5   7  149.77   10.84
   3   5   7  165.56   11.64
  -3  -5  -7  162.44   14.41
   3   5   8   11.20    3.25
   3   5   8    5.27    4.25
  -3  -5  -8    9.95    4.92
   3   5   9   61.10    6.94
   3   5   9   75.87    8.42
  -3  -5  -9   69.49    9.12
   3   5  10  584.83   36.96
   3   5  10  574.67   34.49
  -3  -5 -10  587.64   35.84
   3   5  11  339.69   25.08
   3   5  11  334.08   24.31
  -3  -5 -11  297.86   23.36
   3   5  12  328.19   25.76
   3   5  12  302.57   24.13
  -3  -5 -12  294.89   24.54
   3   5  13  141.58   14.54
   3   5  13  159.57   15.78
  -3  -5 -13  137.09   15.08
   3   5  14  200.38   17.76
   3   5  14  211.26   21.86
  -3  -5 -14  161.40   17.30
   3   5  15   72.37    9.45
  -3  -5 -15   21.92    8.97
   3   5  16  103.63   12.08
  -3  -5 -16   16.65    8.05
   3   5  17   55.04   12.33
  -3  -5 -17   39.08    9.42
  -3  -6  15    2.55    6.18
   3   6 -14    1.23    4.19
  -3  -6  14    9.52    5.81
   3   6 -13   10.42    4.52
  -3  -6  13   11.23    6.81
   3   6 -12   50.13    7.48
  -3  -6  12   48.80    9.51
   3   6 -11    4.72    3.53
  -3  -6  11   -1.26    4.08
   3   6 -10  349.37   23.37
  -3  -6  10  347.67   24.79
   3   6  -9  267.91   18.74
  -3  -6   9  255.39   17.67
   3   6  -8 1216.06   68.51
  -3  -6   8 1241.59   70.05
   3   6  -7   63.52    8.34
  -3  -6   7   68.65    6.35
   3   6  -6   95.25    3.80
   3   6  -6  118.68    9.97
  -3  -6   6  101.01    7.53
   3   6  -5 1402.10   74.81
   3   6  -5 1311.91   54.90
   3   6  -5 1380.81   57.31
  -3  -6   5 1351.47   62.98
   3   6  -4 8229.96  603.87
   3   6  -4 7591.94  509.97
  -3  -6   4 8088.57  544.11
   3   6  -3 1178.98   47.14
   3   6  -3 1097.65   59.57
   3   6  -3 1106.46   49.25
  -3  -6   3 1094.45   45.37
   3   6  -2  600.58   27.80
   3   6  -2  613.77   20.97
   3   6  -1    9.21    2.84
   3   6  -1    4.52    0.45
   3   6  -1    4.26    0.49
   3   6   0    8.04    4.87
   3   6   0    8.90    3.62
   3   6   1 9999.00  775.25
   3   6   2 2735.61  162.61
   3   6   3  942.02   34.08
  -3  -6  -3  912.98   32.90
  -3  -6  -3  968.41   53.55
   3   6   4   62.88    3.95
   3   6   4  108.23    9.81
  -3  -6  -4   63.49    3.64
   3   6   5  303.94   13.02
   3   6   5  309.72   21.27
  -3  -6  -5  288.36   22.26
   3   6   6 1931.99   97.26
   3   6   6 2109.01  122.39
  -3  -6  -6 2059.94  118.57
   3   6   7 2223.62  116.90
   3   6   7 2226.95  133.17
  -3  -6  -7 2144.69  127.86
   3   6   8  168.22   11.83
   3   6   8  175.97   15.82
  -3  -6  -8  161.80   14.75
   3   6   9  372.43   22.77
   3   6   9  385.01   27.96
  -3  -6  -9  375.26   26.57
   3   6  10  290.58   19.87
   3   6  10  311.03   23.90
  -3  -6 -10  285.69   23.44
   3   6  11 1406.98   85.02
   3   6  11 1505.44   96.05
  -3  -6 -11 1365.69   86.48
   3   6  12  529.70   37.21
   3   6  12  551.21   41.59
  -3  -6 -12  507.89   36.58
   3   6  13  631.32   44.27
   3   6  13  602.85   45.56
  -3  -6 -13  571.41   41.22
   3   6  14  491.66   36.67
   3   6  14  486.45   36.09
  -3  -6 -14  398.90   33.48
   3   6  15  356.65   29.42
   3   6  15  382.58   33.60
  -3  -6 -15  293.04   25.72
   3   6  16  487.83   39.46
  -3  -6 -16  297.37   30.03
   3   6  17  221.52   27.46
   3   7 -14  287.80   23.85
  -3  -7  14  274.61   27.10
   3   7 -13   63.93    9.43
  -3  -7  13   56.53   10.78
  -3  -7  12  265.61   23.84
   3   7 -11  566.75   37.68
  -3  -7  11  501.01   35.86
   3   7 -10  516.25   34.15
  -3  -7  10  472.67   33.26
   3   7  -9  262.65   20.73
  -3  -7   9  227.86   16.10
   3   7  -8   21.50    6.87
  -3  -7   8   25.31    4.74
   3   7  -7   74.53    8.94
  -3  -7   7   60.93    5.52
   3   7  -6  813.99   30.87
   3   7  -6  910.21   51.99
   3   7  -6  804.83   30.53
  -3  -7   6  879.69   42.34
   3   7  -5  127.37    6.25
   3   7  -5  130.88   12.55
  -3  -7   5  128.60    7.20
   3   7  -4  157.40    7.62
   3   7  -4  153.67   11.43
  -3  -7   4  153.00    6.87
   3   7  -3  474.27   21.40
   3   7  -3  464.24   17.55
  -3  -7   3  465.37   17.90
   3   7  -2   80.71    3.10
   3   7  -2   73.87    5.83
   3   7  -1  243.68   15.10
   3   7  -1  232.39   14.32
   3   7   0   42.64    6.07
   3   7   0   50.86    7.21
   3   7   1 3090.42  182.50
   3   7   1 3256.55  200.13
   3   7   2    6.21    3.73
   3   7   2   13.13    3.75
   3   7   3  577.92   32.65
  -3  -7  -3  470.64   14.10
   3   7   4  151.03   11.53
  -3  -7  -4  138.40    5.63
   3   7   5  708.58   42.18
   3   7   5  666.77   27.85
  -3  -7  -5  690.94   41.28
   3   7   6    0.06    2.97
   3   7   6    5.11    1.54
  -3  -7  -6   -1.31    4.24
   3   7   7  141.84   13.74
   3   7   7  132.65    8.27
  -3  -7  -7  133.42   13.73
   3   7   8   40.46    4.51
   3   7   8   34.95    8.35
  -3  -7  -8   32.64    7.30
   3   7   9  570.53   38.08
   3   7   9  487.65   28.90
  -3  -7  -9  495.88   33.89
   3   7  10  100.62    8.83
   3   7  10  136.37   11.23
  -3  -7 -10  117.27   12.35
   3   7  11  276.50   20.44
   3   7  11  294.03   27.47
  -3  -7 -11  244.21   21.78
   3   7  12  310.37   23.73
   3   7  12  311.62   27.52
  -3  -7 -12  279.49   24.72
   3   7  13  471.34   36.72
   3   7  13  452.16   33.59
  -3  -7 -13  388.75   32.79
   3   7  14  316.70   27.73
   3   7  14  333.39   28.75
  -3  -7 -14  252.06   25.06
   3   7  15  122.95   13.87
   3   7  15   96.92   14.49
  -3  -7 -15   74.18   10.56
   3   7  16  287.42   26.59
  -3  -7 -16  163.70   20.37
   3   8 -13   52.65   10.24
   3   8 -12  138.14   15.52
   3   8 -11  356.87   27.69
   3   8 -10  309.23   25.19
   3   8  -9  694.08   46.36
  -3  -8   9  570.81   35.85
   3   8  -8  613.66   40.23
  -3  -8   8  529.61   29.66
   3   8  -7   64.15    9.75
  -3  -8   7   55.37    5.06
   3   8  -6  355.94   25.17
   3   8  -6  287.36   11.57
  -3  -8   6  318.00   15.40
   3   8  -5  328.51   15.13
   3   8  -5  383.10   25.44
  -3  -8   5  330.51   14.85
   3   8  -4  527.81   23.88
   3   8  -4  549.15   34.87
  -3  -8   4  528.63   21.77
   3   8  -3 1591.82   76.92
  -3  -8   3 1518.32   63.67
   3   8  -2  296.28    9.05
   3   8  -2  378.46   18.77
   3   8  -1 1181.59   60.73
   3   8  -1 1308.18   71.68
   3   8   0  205.76   14.61
   3   8   0  228.20   18.43
   3   8   1  877.82   47.67
   3   8   1  811.65   45.20
   3   8   2    0.69    2.90
   3   8   2    3.26    2.60
   3   8   3  132.40   10.76
   3   8   3  133.71   13.40
   3   8   4 1005.40   51.48
  -3  -8  -4  614.24   20.29
   3   8   5  126.39   13.75
   3   8   5  128.73   11.51
  -3  -8  -5  129.16    6.29
   3   8   6  565.89   38.23
   3   8   6  519.47   22.36
  -3  -8  -6  507.70   34.78
   3   8   7   27.13    4.85
   3   8   7   15.56    2.44
  -3  -8  -7   16.78    6.72
   3   8   8   47.03    9.00
   3   8   8   48.01    4.63
  -3  -8  -8   49.29    9.55
   3   8   9 1152.32   63.49
   3   8   9 1339.50   89.29
  -3  -8  -9 1186.61   76.20
   3   8  10 2190.64  147.17
   3   8  10 2008.58  118.27
  -3  -8 -10 1958.70  129.31
   3   8  11   41.08    5.95
   3   8  11   45.47    9.27
  -3  -8 -11   29.42    8.54
   3   8  12   12.10    6.93
   3   8  12   14.08    5.11
  -3  -8 -12   12.55    5.96
   3   8  13    3.07    4.39
   3   8  13    6.66    4.89
  -3  -8 -13    6.07    4.86
   3   8  14  210.16   20.01
   3   8  14  244.46   25.93
  -3  -8 -14  188.11   21.41
   3   8  15  360.09   29.34
   3   8  15  360.71   31.06
  -3  -8 -15  240.30   23.81
   3   8  16   13.49    8.25
   3   8  16   18.16    8.00
  -3  -8 -16    8.99    6.57
   3   9 -12  559.26   46.57
   3   9 -11  187.70   20.89
   3   9 -10   58.91    8.70
   3   9  -9  117.21   14.84
   3   9  -8  446.27   34.18
   3   9  -7   95.58   13.09
   3   9  -6   66.73    8.50
   3   9  -6   29.09    2.41
   3   9  -5   24.77    2.62
   3   9  -5   30.72    5.68
   3   9  -4  176.36    9.57
   3   9  -4  185.18   17.96
   3   9  -3    7.72    0.95
   3   9  -3   11.81    2.51
   3   9  -2  554.84   29.57
   3   9  -2  549.22   33.81
   3   9  -1  270.68   17.58
   3   9  -1  288.98   19.73
   3   9   0  282.37   19.01
   3   9   0  288.90   19.88
   3   9   1  105.56   11.00
   3   9   1  122.33   10.47
   3   9   2   67.37   10.59
   3   9   2   67.92    9.05
   3   9   3  209.00   18.26
   3   9   3  215.85   19.36
   3   9   4   19.24    6.42
   3   9   5  122.81   13.13
   3   9   6   17.11    6.15
   3   9   6   11.52    4.55
   3   9   7  655.06   40.99
   3   9   7  601.00   41.67
   3   9   8   48.71    8.19
   3   9   8   17.70    5.65
   3   9   9  783.84   50.71
   3   9   9  602.41   32.81
  -3  -9  -9  594.48   43.40
   3   9  10  353.43   30.79
   3   9  10  286.46   17.55
  -3  -9 -10  278.53   23.88
   3   9  11   27.08    9.01
   3   9  11   20.21    4.65
  -3  -9 -11   15.70    6.65
   3   9  12    9.65    6.26
   3   9  12    5.97    4.17
  -3  -9 -12    3.67    4.53
   3   9  13  545.75   44.38
   3   9  13  421.60   32.05
  -3  -9 -13  354.26   33.00
   3   9  14   65.01   14.25
   3   9  14   77.57   10.69
  -3  -9 -14   64.88   10.89
   3   9  15  265.08   28.71
   3   9  15  213.74   20.93
  -3  -9 -15  166.79   21.74
   3  10 -12   24.04    9.12
   3  10 -11   28.75    9.19
   3  10 -10  155.45   19.34
   3  10  -9  334.07   29.59
   3  10  -8  311.70   28.32
   3  10  -7  177.95   16.67
   3  10  -6  153.95   14.88
   3  10  -5  351.07   17.13
   3  10  -5  462.06   30.41
   3  10  -4  153.26    9.48
   3  10  -3   96.96    8.27
   3  10  -2  632.81   44.88
   3  10  -2  591.77   33.89
   3  10  -1  320.61   21.39
   3  10  -1  340.58   28.00
   3  10   0  132.13   10.61
   3  10   0   91.51   11.55
   3  10   1   85.72   10.79
   3  10   1   74.98    9.66
   3  10   2  528.95   34.88
   3  10   2  543.68   34.94
   3  10   3  751.58   48.19
   3  10   3  723.89   48.36
   3  10   4 1109.75   70.08
   3  10   4 1098.57   66.87
   3  10   5  144.88   15.59
   3  10   6   28.47    7.07
   3  10   7  297.10   24.42
   3  10   7  262.98   24.98
   3  10   8  503.94   40.60
   3  10   8  594.71   47.51
   3  10   9  558.60   45.73
   3  10   9  511.31   35.59
   3  10  10  149.47   17.36
   3  10  10  161.99   17.80
   3  10  11  444.70   39.89
   3  10  11  385.40   34.77
   3  10  12  127.51   17.10
   3  10  12  101.64   12.43
   3  10  13  131.36   17.31
   3  10  14  270.93   32.28
   3  10  15   81.97   16.33
   3  11 -10   61.58   12.90
   3  11  -9   88.88   15.09
   3  11  -8   69.90   14.12
   3  11  -7   21.58    9.12
   3  11  -5   71.57   11.74
   3  11  -5   40.01    3.76
   3  11  -4  190.89   12.79
   3  11  -3  202.79   13.80
   3  11  -2   35.41    5.46
   3  11  -2   47.47    9.38
   3  11  -1  266.99   19.62
   3  11  -1  293.87   26.89
   3  11   0    9.72    4.65
   3  11   0    2.68    3.98
   3  11   1    8.59    5.15
   3  11   1    9.36    6.24
   3  11   2  259.32   23.00
   3  11   2  253.18   24.70
   3  11   3   61.88   10.48
   3  11   3   60.93   11.80
   3  11   4   14.31    6.72
   3  11   4   15.43    5.90
   3  11   5   18.32    7.72
   3  11   5   23.46    7.90
   3  11   6  704.82   51.98
   3  11   7  219.85   22.60
   3  11   8    5.55    4.94
   3  11   8    9.50    5.85
   3  11   9   27.41    6.84
   3  11   9   23.79    5.70
   3  11  10  195.95   21.65
   3  11  10  163.17   17.30
   3  11  11  477.90   43.08
   3  11  11  375.53   35.17
   3  11  12 1120.33   94.81
   3  11  13   21.57    7.83
   3  11  14    6.10    6.06
   3  12  -9   14.28    8.13
   3  12  -8   77.31   15.16
   3  12  -7  412.05   40.90
   3  12  -6  204.16   24.08
   3  12  -5   72.55   14.75
   3  12  -4   60.09    5.50
   3  12  -3 1190.63   79.77
   3  12  -3  933.80   53.84
   3  12  -2  439.55   29.45
   3  12  -2  512.31   38.05
   3  12  -1  545.57   35.63
   3  12  -1  600.29   48.85
   3  12   0  416.84   30.36
   3  12   0  468.84   40.69
   3  12   1  303.69   25.32
   3  12   1  319.08   31.09
   3  12   2  130.91   14.67
   3  12   2  158.66   15.32
   3  12   3  806.34   53.89
   3  12   3  812.81   61.74
   3  12   4  909.48   62.75
   3  12   4  924.33   67.78
   3  12   5  689.80   49.64
   3  12   5  686.38   55.78
   3  12   6  170.31   18.38
   3  12   6  154.96   19.05
   3  12   7  159.58   19.14
   3  12   8  273.93   29.03
   3  12   8  241.72   22.19
   3  12   9   55.26   11.55
   3  12   9   80.07   13.68
   3  12  10    7.90    9.40
   3  12  10   32.40    8.31
   3  12  11    8.37    9.06
   3  12  11   43.41    8.62
   3  12  12 1878.37  156.35
   3  12  13   96.80   16.57
   3  13  -8   19.05    7.73
   3  13  -7   48.98   13.82
   3  13  -6  158.73   21.73
   3  13  -3   -2.64    4.40
   3  13  -3   -0.64    2.48
   3  13  -2  126.13   11.89
   3  13  -2  193.25   22.19
   3  13  -1  139.47   13.12
   3  13  -1  179.17   22.28
   3  13   0  319.92   27.33
   3  13   0  382.16   36.61
   3  13   1  583.34   44.15
   3  13   1  635.13   53.50
   3  13   2  155.92   16.36
   3  13   2  181.62   21.80
   3  13   3   24.33    9.26
   3  13   3   24.76    8.28
   3  13   4  213.50   23.89
   3  13   4  214.76   25.89
   3  13   5  528.75   47.93
   3  13   5  516.24   44.38
   3  13   6 1444.81  111.87
   3  13   6 1331.24  102.63
   3  13   7  195.66   24.29
   3  13   8  289.05   30.20
   3  13   9   35.63    9.60
   3  13   9   32.48    9.92
   3  13  10  103.95   19.25
   3  13  10  173.36   17.63
   3  13  11   21.04   11.19
   3  14  -6  293.26   31.76
   3  14  -3  192.16   23.77
   3  14  -2  402.10   39.77
   3  14  -2  282.09   21.33
   3  14  -1  109.51   16.57
   3  14  -1   81.49   10.70
   3  14   0   12.54    6.22
   3  14   0   16.11    7.30
   3  14   1   73.20   12.32
   3  14   1   67.42   14.07
   3  14   2   11.49    6.11
   3  14   2    1.88    8.00
   3  14   3   34.85   11.87
   3  14   3   62.14   10.35
   3  14   4    8.15    6.91
   3  14   4    5.12    5.75
   3  14   5   23.45    9.06
   3  14   5   20.22    7.74
   3  14   6  496.00   49.11
   3  14   6  505.58   48.69
   3  14   7  268.90   31.29
   3  14   7  309.35   35.03
   3  14   8   42.08   11.58
   3  14   9  161.56   20.44
   3  14  10    5.30    9.07
   3  14  10    6.91    6.92
   3  15  -3   11.64    9.80
   3  15  -2  199.08   27.51
   3  15  -1  310.91   26.27
   3  15  -1  398.68   37.44
   3  15   0  656.70   50.48
   3  15   0  773.01   71.11
   3  15   1  168.41   23.74
   3  15   1  171.57   18.72
   3  15   2   36.40    9.88
   3  15   2   30.30   12.07
   3  15   3    8.94    8.34
   3  15   3   26.97    9.93
   3  15   4  108.32   17.67
   3  15   4  106.08   17.11
   3  15   5   52.25   13.44
   3  15   5   43.16   12.87
   3  15   6   15.14   10.81
   3  15   6   23.70   10.22
   3  15   7  169.93   22.47
   3  15   7  137.33   22.33
  -4  14   5  254.98   29.54
  -4  14   4   89.54   17.21
  -4  14   3  102.42   16.57
  -4  14   2  119.79   15.64
  -4  14   2  118.09   18.89
  -4  14   1   50.50    9.07
  -4  14   1   45.18   11.80
  -4  14   0    3.89    6.81
  -4  14   0   10.67    6.92
  -4  14  -1   59.89   12.17
  -4  14  -1   79.96   13.30
  -4  14  -2  187.76   21.34
  -4  14  -2  169.53   17.76
  -4  14  -3   96.81   14.61
  -4  14  -3  167.60   19.53
  -4  13   8  110.46   14.80
  -4  13   6    5.29    7.69
  -4  13   5  619.09   55.29
  -4  13   4 1678.58  124.12
  -4  13   3   99.09   16.66
  -4  13   2  139.60   18.71
  -4  13   2  131.52   14.71
  -4  13   1   25.34    8.68
  -4  13   1   36.87    9.68
  -4  13   0  107.41   15.06
  -4  13   0  100.96   14.14
  -4  13  -1  144.37   16.88
  -4  13  -1  161.13   19.67
  -4  13  -2   -0.57    5.34
  -4  13  -2   11.20    6.49
  -4  13  -3  293.46   25.99
  -4  13  -3  324.93   27.37
  -4  13  -4  288.29   29.66
  -4  13  -4  214.53   17.21
  -4  13  -5   84.63   15.79
  -4  13  -6   17.12    9.72
  -4  12  10   62.83   16.31
  -4  12   9  210.67   26.23
  -4  12   8  258.55   31.95
  -4  12   5  203.85   22.16
  -4  12   4 1662.07  117.67
  -4  12   3  310.37   25.96
  -4  12   3  284.57   23.66
  -4  12   2  242.04   24.13
  -4  12   2  218.22   20.25
  -4  12   1  138.31   16.54
  -4  12   1  173.57   17.48
  -4  12   0   49.24    9.18
  -4  12   0   54.14    9.26
  -4  12  -1  127.16   14.85
  -4  12  -1  152.28   17.37
  -4  12  -2  388.01   32.73
  -4  12  -2  323.38   26.48
  -4  12  -3   21.31    6.30
  -4  12  -3   33.32    8.59
  -4  12  -4   17.81    8.47
  -4  12  -4   20.84    5.44
  -4  12  -5   52.16    7.43
  -4  12  -5   75.10   13.16
  -4  12  -6  197.52   23.79
  -4  12  -7 1222.23  100.08
  -4  12  -8   14.19    9.33
   4 -11 -11  400.35   35.32
  -4  11  11  468.41   47.77
   4 -11 -10   83.78   13.93
  -4  11  10  123.46   15.48
   4 -11  -9   38.78    9.61
  -4  11   9   64.94   13.00
   4 -11  -8  239.83   23.02
  -4  11   8  267.96   31.38
   4 -11  -7  166.06   15.66
  -4  11   7  187.48   24.02
   4 -11  -6  409.84   29.59
   4 -11  -5    8.47    4.74
   4 -11  -4   20.30    5.49
  -4  11   4   44.38    7.20
  -4  11   4   27.31    5.73
   4 -11  -3  558.07   36.56
  -4  11   3  588.99   44.92
  -4  11   3  501.62   33.34
   4 -11  -2   36.23    7.30
  -4  11   2   50.32   10.63
  -4  11   2   54.68    7.98
   4 -11  -1   11.80    4.67
  -4  11   1   16.15    6.25
  -4  11   1   26.48    7.18
   4 -11   0   77.24   10.71
  -4  11   0  121.19   12.31
  -4  11   0  122.90   12.45
   4 -11   1  128.96   12.12
  -4  11  -1  153.84   15.37
  -4  11  -1  164.42   16.40
   4 -11   2  501.66   32.99
  -4  11  -2  547.45   35.88
  -4  11  -2  565.52   39.46
   4 -11   3 1694.58  107.19
  -4  11  -3 2054.90  125.38
  -4  11  -3 2162.85  135.87
  -4  11  -4   34.70    6.52
  -4  11  -4   22.07    5.15
  -4  11  -5  199.47   17.31
  -4  11  -5  147.53   11.61
  -4  11  -6  262.81   23.50
  -4  11  -7  288.70   31.36
  -4  11  -8  272.58   30.31
  -4  11  -9  180.38   24.75
  -4  11 -10   51.22   13.27
   4 -10 -12   25.47    8.31
  -4  10  12   23.11    8.64
   4 -10 -11  261.29   25.72
  -4  10  11  297.89   34.42
   4 -10 -10 1064.89   75.35
  -4  10  10 1289.67   99.04
   4 -10  -9  328.95   27.87
  -4  10   9  365.26   31.83
   4 -10  -8   42.72    7.66
  -4  10   8   38.89    8.91
   4 -10  -7   14.81    5.88
  -4  10   7   16.60    6.38
   4 -10  -6  191.75   17.40
  -4  10   6  197.94   18.79
   4 -10  -5  851.86   53.63
   4 -10  -4 2595.46  164.19
  -4  10   4 2549.51  151.53
   4 -10  -3   60.99    9.42
  -4  10   3   93.19   12.15
  -4  10   3   68.06    7.51
   4 -10  -2   85.99    9.79
  -4  10   2   67.78    9.69
  -4  10   2  111.70   10.45
   4 -10  -1  644.32   38.08
  -4  10   1  633.39   38.70
  -4  10   1  633.09   38.63
   4 -10   0  417.67   27.49
  -4  10   0  418.53   28.02
  -4  10   0  430.53   30.80
   4 -10   1 1601.83   92.92
  -4  10  -1 1559.02   96.30
  -4  10  -1 1620.46   99.53
   4 -10   2   98.19   10.63
  -4  10  -2  130.85   12.80
  -4  10  -2  107.33   11.02
   4 -10   3 1019.68   61.56
  -4  10  -3 1066.23   63.76
  -4  10  -3 1036.58   59.34
   4 -10   4  474.13   32.22
  -4  10  -4  561.40   35.87
  -4  10  -4  495.51   29.17
   4 -10   5   61.53   10.08
  -4  10  -5   95.40   12.94
  -4  10  -5   86.11    7.41
   4 -10   6 1968.92  133.92
  -4  10  -6 2248.45  125.90
  -4  10  -6 2759.08  181.92
   4 -10   7  416.55   32.13
  -4  10  -7  625.43   45.78
   4 -10   8   13.74    5.81
  -4  10  -8    8.74    7.95
   4 -10   9   90.65   14.12
  -4  10  -9  157.05   16.06
   4 -10  10  250.95   27.48
  -4  10 -10  398.74   38.40
   4 -10  11  184.39   22.32
   4  -9 -13   26.78    7.73
  -4   9  13   23.49   10.76
   4  -9 -12   66.11   13.36
  -4   9  12   85.01   12.36
   4  -9 -11   13.02    7.20
  -4   9  11   15.94    8.64
   4  -9 -10   15.96    6.50
  -4   9  10   11.15    8.23
   4  -9  -9  135.43   14.19
  -4   9   9  104.71   14.21
   4  -9  -8   12.02    5.67
  -4   9   8   13.76    7.05
   4  -9  -7  797.17   50.30
  -4   9   7  817.92   59.42
   4  -9  -6   45.00    7.64
  -4   9   6   44.24   10.57
   4  -9  -5  257.90   18.87
  -4   9   5  287.15   24.60
  -4   9   5  242.38   15.94
   4  -9  -4  181.00   13.83
  -4   9   4  173.55   12.97
   4  -9  -3  240.96   17.68
  -4   9   3  251.29   21.98
  -4   9   3  234.47   15.77
   4  -9  -2 1064.92   60.35
  -4   9   2 1106.27   67.36
  -4   9   2 1013.76   55.59
   4  -9  -1 3689.77  232.81
  -4   9   1 3652.42  231.04
  -4   9   1 3769.23  248.83
   4  -9   0  327.59   21.77
  -4   9   0  311.50   23.21
  -4   9   0  325.79   21.25
   4  -9   1  238.05   17.44
  -4   9  -1  248.94   18.63
  -4   9  -1  243.13   18.38
   4  -9   2  359.18   22.92
  -4   9  -2  371.35   26.52
  -4   9  -2  359.26   22.91
   4  -9   3  165.50   14.24
  -4   9  -3  172.45   13.56
  -4   9  -3  183.83   15.86
   4  -9   4  109.56   11.15
  -4   9  -4  126.67   13.09
  -4   9  -4   89.18    9.00
   4  -9   5  336.80   24.95
  -4   9  -5  328.32   19.01
  -4   9  -5  366.12   28.27
   4  -9   6    6.86    4.68
  -4   9  -6    6.06    2.47
  -4   9  -6    9.84    4.72
   4  -9   7   13.17    5.38
  -4   9  -7   13.95    2.58
  -4   9  -7   18.62    7.23
   4  -9   8   77.15   11.97
  -4   9  -8  128.25   14.89
   4  -9   9    6.54    5.36
  -4   9  -9    4.51    6.63
   4  -9  10  127.28   17.62
  -4   9 -10  212.22   22.61
   4  -9  11   74.49   12.78
   4  -9  12   13.63    9.38
  -4   9 -12   29.20    8.65
   4  -8 -14 1022.43   81.75
  -4   8  14 1005.63   77.22
   4  -8 -13   33.41    9.49
  -4   8  13   30.45   10.41
   4  -8 -12   14.70    7.58
  -4   8  12    6.29    7.73
   4  -8 -11  521.86   41.36
  -4   8  11  507.30   45.10
   4  -8 -10 1649.61  114.71
  -4   8  10 1723.65  122.28
   4  -8  -9  188.32   18.21
  -4   8   9  178.68   17.45
   4  -8  -8  105.52   13.01
  -4   8   8  132.13   15.57
   4  -8  -7   74.58   10.56
  -4   8   7   81.95   11.71
   4  -8  -6   70.74    9.79
  -4   8   6   79.13   10.74
   4  -8  -5  542.33   33.42
  -4   8   5  493.99   24.53
  -4   8   5  564.36   38.22
   4  -8  -4  368.97   23.41
  -4   8   4  354.59   18.14
  -4   8   4  381.58   24.89
   4  -8  -3   36.09    5.64
  -4   8   3   30.39    4.34
   4  -8  -2    7.98    4.10
  -4   8   2    8.47    4.13
  -4   8   2    9.07    3.72
   4  -8  -1 1681.64   92.54
  -4   8   1 1675.02   93.03
  -4   8   1 1623.76   87.93
   4  -8   0 2865.37  168.05
  -4   8   0 2907.40  176.47
  -4   8   0 2848.30  167.57
   4  -8   1  388.37   23.95
  -4   8  -1  370.08   23.10
  -4   8  -1  391.54   23.62
   4  -8   2  763.81   43.18
  -4   8  -2  743.35   40.33
  -4   8  -2  784.44   44.56
   4  -8   3  400.08   25.82
  -4   8  -3  393.50   22.15
  -4   8  -3  395.92   26.71
   4  -8   4  128.08   10.92
  -4   8  -4  120.81   12.59
  -4   8  -4   93.14    7.88
   4  -8   5  119.25   12.73
  -4   8  -5  109.18    7.97
  -4   8  -5  123.51   13.56
   4  -8   6  302.58   23.91
  -4   8  -6  317.41   22.34
  -4   8  -6  296.68   16.52
   4  -8   7    3.61    4.97
  -4   8  -7    6.89    2.06
  -4   8  -7   10.53    5.93
   4  -8   8   37.90    8.17
  -4   8  -8   48.30   10.07
   4  -8   9  144.56   17.45
  -4   8  -9  201.27   18.86
   4  -8  10   73.23   11.67
   4  -8  11  185.10   21.06
   4  -8  12   18.86    8.84
  -4   8 -12   23.88   10.85
   4  -8  13  167.75   22.40
  -4   8 -13  202.06   27.40
   4  -7 -15  131.14   20.69
   4  -7 -14    8.42    6.97
  -4   7  14    9.60    6.87
   4  -7 -13 1296.39   97.21
  -4   7  13 1313.14   95.84
   4  -7 -12 1180.42   79.45
  -4   7  12 1219.18   81.50
   4  -7 -11    7.49    5.47
  -4   7  11   -1.71    5.60
   4  -7 -10  243.59   22.93
  -4   7  10  266.11   21.31
   4  -7  -9 2561.99  169.95
  -4   7   9 2732.60  185.84
   4  -7  -8 3343.49  226.14
  -4   7   8 3493.18  233.44
   4  -7  -7 2108.25  128.85
  -4   7   7 2235.69  137.99
   4  -7  -6 1415.61   78.24
  -4   7   6 1462.41   85.80
   4  -7  -5   24.84    5.82
  -4   7   5   21.51    2.62
  -4   7   5   35.78    6.94
   4  -7  -4 1344.10   74.42
  -4   7   4 1309.75   78.41
  -4   7   4 1354.16   63.82
   4  -7  -3   13.34    4.13
  -4   7   3    8.27    2.77
   4  -7  -2 1504.76   80.74
  -4   7   2 1417.27   69.93
   4  -7  -1   30.22    5.48
  -4   7   1   26.08    4.53
  -4   7   1   31.13    6.84
   4  -7   0  146.13   11.31
  -4   7   0  154.29   12.83
  -4   7   0  159.91   11.53
   4  -7   1 2263.11  127.45
  -4   7  -1 2277.84  127.50
  -4   7  -1 2200.61  123.55
   4  -7   2 1222.97   64.85
  -4   7  -2 1166.47   63.18
  -4   7  -2 1151.46   60.11
   4  -7   3  601.01   34.26
  -4   7  -3  609.46   34.96
  -4   7  -3  587.18   29.49
   4  -7   4  233.97   17.62
  -4   7  -4  232.04   15.04
  -4   7  -4  225.69   12.77
   4  -7   5  414.63   26.21
  -4   7  -5  407.34   24.63
  -4   7  -5  395.07   20.08
   4  -7   6  106.85   12.51
  -4   7  -6  125.84   12.29
  -4   7  -6   90.95    6.52
   4  -7   7  309.91   23.44
  -4   7  -7  319.01   25.44
  -4   7  -7  281.27   13.96
   4  -7   8   26.42    5.95
  -4   7  -8   46.34    6.87
   4  -7   9   41.48    9.09
  -4   7  -9   58.54   10.92
   4  -7  10  323.03   29.70
   4  -7  11  324.89   31.89
   4  -7  12   40.32   10.87
  -4   7 -12   34.75   12.07
   4  -7  13   16.08    8.32
  -4   7 -13    7.00    9.29
   4  -7  14   14.71    7.87
  -4   7 -14    3.88    8.67
   4  -6 -15  988.64   83.28
   4  -6 -14  184.14   21.13
  -4   6  14  152.67   17.97
   4  -6 -13   62.60    9.33
  -4   6  13   67.30   11.32
   4  -6 -12   39.45    9.98
  -4   6  12   38.08    9.43
   4  -6 -11   88.83   12.47
  -4   6  11   75.90   12.04
   4  -6 -10  625.62   42.85
  -4   6  10  599.53   38.32
   4  -6  -9  140.26   13.07
  -4   6   9  162.19   16.72
   4  -6  -8   67.46    9.89
  -4   6   8   63.79   10.05
   4  -6  -7  980.25   58.15
  -4   6   7 1052.41   62.69
   4  -6  -6  448.50   27.18
  -4   6   6  473.42   26.75
  -4   6   6  404.62   16.00
   4  -6  -5 1116.14   59.90
  -4   6   5 1157.45   66.87
  -4   6   5 1098.18   47.02
   4  -6  -4  375.39   22.76
  -4   6   4  370.00   23.66
  -4   6   4  365.35   15.18
   4  -6  -3  240.36   13.53
  -4   6   3  248.78   18.01
  -4   6   3  234.33   11.40
   4  -6  -2  202.39   14.61
  -4   6   2  212.90   10.55
   4  -6  -1  107.26    9.66
  -4   6   1  111.49    8.38
   4  -6   0  532.93   28.18
  -4   6   0  532.48   28.66
  -4   6   0  520.30   25.91
   4  -6   1  419.84   23.34
  -4   6  -1  407.12   22.47
  -4   6  -1  398.01   21.84
   4  -6   2  176.30   12.78
  -4   6  -2  175.02   12.56
  -4   6  -2  177.07   12.04
   4  -6   3  714.26   38.62
  -4   6  -3  707.07   37.76
  -4   6  -3  681.44   32.95
   4  -6   4  630.45   36.46
  -4   6  -4  664.87   33.72
  -4   6  -4  633.13   29.75
   4  -6   5  860.99   47.61
  -4   6  -5  816.42   47.86
  -4   6  -5  772.23   35.33
   4  -6   6  129.54   13.14
  -4   6  -6  121.96    7.09
  -4   6  -6  131.93   13.64
   4  -6   7  629.35   28.22
   4  -6   7  683.27   41.42
  -4   6  -7  644.83   43.25
   4  -6   8  358.82   28.39
  -4   6  -8  346.21   24.20
   4  -6   9 1040.45   71.60
  -4   6  -9 1166.97   79.82
   4  -6  10  172.09   16.91
   4  -6  11  822.83   64.02
  -4   6 -11  864.70   68.42
   4  -6  12  224.51   25.21
  -4   6 -12  233.65   27.11
   4  -6  13 1047.44   86.52
  -4   6 -13 1113.58   88.16
   4  -6  14  617.90   59.37
  -4   6 -14  649.81   61.22
   4  -5 -15  140.68   20.49
   4  -5 -14  217.79   23.89
   4  -5 -13  278.46   24.24
  -4   5  13  280.94   24.74
   4  -5 -12   86.25   12.84
  -4   5  12   81.96   11.75
   4  -5 -11   52.22   10.41
  -4   5  11   51.58    8.58
   4  -5 -10   69.13   10.52
  -4   5  10   62.52   10.20
   4  -5  -9  175.52   17.24
  -4   5   9  183.10   16.81
   4  -5  -8  118.96   12.59
  -4   5   8  130.59   12.98
   4  -5  -7   32.72    6.42
  -4   5   7   37.22    5.44
   4  -5  -6  601.71   34.96
  -4   5   6  570.29   33.94
   4  -5  -5  904.42   46.01
  -4   5   5  917.32   48.38
  -4   5   5  906.63   34.17
   4  -5  -4 1641.85   85.71
  -4   5   4 1719.19   92.34
  -4   5   4 1749.92   75.94
   4  -5  -3  329.71   17.40
  -4   5   3  317.24   12.75
  -4   5   3  324.08   20.52
   4  -5  -2  342.11   19.51
  -4   5   2  329.60   13.77
  -4   5   2  357.09   20.87
   4  -5  -1 1498.70   77.38
  -4   5   1 1431.87   66.26
   4  -5   0   33.87    5.74
  -4   5   0   30.08    4.14
  -4   5   0   40.89    6.27
   4  -5   1 2566.83  140.89
  -4   5  -1 2526.54  137.36
  -4   5  -1 2528.95  135.19
   4  -5   2   16.94    4.77
  -4   5  -2   13.83    4.50
  -4   5  -2   15.77    4.54
   4  -5   3  886.61   47.49
  -4   5  -3  812.18   37.71
  -4   5  -3  831.46   44.23
   4  -5   4  681.30   36.83
  -4   5  -4  662.44   32.97
  -4   5  -4  631.83   28.77
   4  -5   5  458.46   24.67
  -4   5  -5  468.01   21.22
  -4   5  -5  465.75   25.59
   4  -5   6 1143.71   61.66
  -4   5  -6 1088.60   49.94
  -4   5  -6 1130.08   64.27
   4  -5   7  973.37   43.68
   4  -5   7 1066.13   64.04
  -4   5  -7 1038.93   61.71
   4  -5   8  291.48   23.82
  -4   5  -8  286.60   24.18
   4  -5   9  588.83   40.87
   4  -5  10  722.62   49.25
   4  -5  11  214.56   23.59
  -4   5 -11  232.94   24.97
   4  -5  12  275.11   28.95
  -4   5 -12  294.11   27.81
   4  -5  13   12.85    8.17
  -4   5 -13   21.09    9.69
   4  -5  14  221.60   23.33
  -4   5 -14  171.35   22.37
   4  -5  15   44.74   11.15
  -4   5 -15    7.80   10.12
   4  -4 -16  107.38   19.08
   4  -4 -15  148.67   20.07
   4  -4 -14   18.82    9.37
   4  -4 -13  158.20   19.77
  -4   4  13  164.15   15.78
   4  -4 -12  453.32   36.90
  -4   4  12  455.02   30.82
   4  -4 -11  236.89   21.90
  -4   4  11  241.32   18.91
   4  -4 -10   58.95    9.50
  -4   4  10   40.03    7.79
   4  -4  -9  212.23   15.57
  -4   4   9  216.36   16.24
   4  -4  -8 1250.42   68.52
  -4   4   8 1215.49   69.47
   4  -4  -7 3069.08  187.65
  -4   4   7 3074.16  186.13
   4  -4  -6    9.55    4.74
  -4   4   6   11.30    4.72
   4  -4  -5  677.14   33.47
  -4   4   5  642.84   32.07
  -4   4   5  686.03   22.37
   4  -4  -4   31.05    2.13
   4  -4  -4   36.42    4.70
  -4   4   4   42.83    6.10
  -4   4   4   27.64    1.89
   4  -4  -3   69.35    5.34
   4  -4  -3   49.37    3.43
  -4   4   3   62.97    7.40
  -4   4   3   44.23    3.15
   4  -4  -2  721.89   38.01
  -4   4   2  763.46   36.98
  -4   4   2  725.41   28.09
   4  -4  -1 4153.27  248.90
  -4   4   1 4239.94  255.01
  -4   4   1 4382.94  242.85
   4  -4   0  783.87   39.56
  -4   4   0  737.38   33.30
   4  -4   1  495.78   27.15
  -4   4  -1  523.60   26.71
  -4   4  -1  534.17   26.19
   4  -4   2 4212.96  252.25
  -4   4  -2 3982.57  232.65
  -4   4  -2 4208.63  249.29
   4  -4   3 2521.60  138.22
  -4   4  -3 2337.76  121.88
  -4   4  -3 2384.31  127.62
   4  -4   4  715.49   37.93
  -4   4  -4  689.09   37.88
  -4   4  -4  693.40   31.29
   4  -4   5 3320.04  197.05
  -4   4  -5 3172.55  172.28
  -4   4  -5 3230.58  196.43
   4  -4   6 1296.43   58.99
   4  -4   6 1335.47   70.60
  -4   4  -6 1299.44   73.47
   4  -4   7 3779.19  243.33
  -4   4  -7 3787.52  244.62
   4  -4   8 3964.03  257.14
   4  -4   8 3768.13  212.14
  -4   4  -8 3910.90  247.97
   4  -4   9  467.46   30.27
   4  -4  10    2.24    4.62
   4  -4  11  535.31   39.55
  -4   4 -11  527.11   42.82
   4  -4  12  129.19   16.57
  -4   4 -12  101.95   14.52
   4  -4  13  673.18   58.48
  -4   4 -13  690.31   58.76
   4  -4  14  220.66   25.71
  -4   4 -14  179.64   24.61
   4  -4  15    1.73    6.64
  -4   4 -15    1.75    4.45
   4  -4  16   20.76    9.67
  -4   4 -16    3.97    9.34
   4  -3 -16  158.94   22.11
   4  -3 -15    5.65    5.53
   4  -3 -14   39.81   10.06
   4  -3 -13    5.21    6.07
   4  -3 -12 1199.56   78.33
  -4   3  12 1164.02   68.87
   4  -3 -11  438.66   34.92
  -4   3  11  440.53   26.88
   4  -3 -10 1324.79   82.57
  -4   3  10 1299.20   73.26
   4  -3  -9  218.35   18.88
  -4   3   9  207.76   15.10
   4  -3  -8 1169.11   67.45
  -4   3   8 1116.51   60.48
   4  -3  -7 3335.77  198.94
  -4   3   7 3262.97  190.90
   4  -3  -6 2270.39  123.94
  -4   3   6 2311.76  126.67
   4  -3  -5 2380.00  127.84
  -4   3   5 2408.23  132.15
   4  -3  -4 1847.79   92.31
  -4   3   4 1769.07   92.40
  -4   3   4 1540.15   57.58
   4  -3  -3  822.07   41.49
  -4   3   3  815.43   41.96
  -4   3   3  765.80   26.60
   4  -3   0 1218.50   59.66
  -4   3   0 1163.07   51.18
   4  -3   1 4573.35  281.76
  -4   3  -1 4656.22  272.86
   4  -3   2  472.38   23.07
  -4   3  -2  457.86   23.14
  -4   3  -2  454.73   23.98
   4  -3   3  134.84   12.13
  -4   3  -3  123.60   11.22
  -4   3  -3  129.46    9.25
   4  -3   4   37.75    6.94
  -4   3  -4   33.14    4.98
  -4   3  -4   33.94    4.94
   4  -3   5  571.16   25.74
   4  -3   5  579.80   29.43
  -4   3  -5  579.14   33.12
   4  -3   6  770.88   34.08
   4  -3   6  806.35   43.61
  -4   3  -6  805.43   44.33
   4  -3   7  493.22   27.04
   4  -3   7  496.31   21.88
  -4   3  -7  492.50   27.31
   4  -3   8 1407.67   78.90
   4  -3   8 1341.29   62.14
   4  -3   9  549.72   35.95
   4  -3   9  480.24   20.89
   4  -3  10   30.16    6.15
  -4   3 -10   30.55    6.58
   4  -3  11  170.71   18.65
  -4   3 -11  211.72   20.99
   4  -3  12   23.58    8.52
  -4   3 -12   20.96    8.58
   4  -3  13  588.87   50.17
  -4   3 -13  564.02   47.35
   4  -3  14   41.03    8.89
  -4   3 -14   38.91   11.11
   4  -3  15   44.82   11.54
  -4   3 -15   73.65   14.42
   4  -3  16    5.34    5.60
  -4   3 -16   -1.16    6.44
   4  -2 -16    5.63    7.64
   4  -2 -15   18.12    7.40
   4  -2 -14  781.98   61.64
   4  -2 -13 1159.22   83.56
   4  -2 -12    6.90    5.68
  -4   2  12    3.61    3.11
   4  -2 -11  288.04   21.61
  -4   2  11  263.88   16.95
   4  -2 -10  222.25   20.56
  -4   2  10  223.28   14.80
   4  -2  -9   65.63    9.13
  -4   2   9   85.39    7.30
   4  -2  -8  180.24   15.81
  -4   2   8  178.84   12.13
   4  -2  -7 3370.14  204.97
  -4   2   7 3345.61  194.36
   4  -2  -6 1676.88   90.50
  -4   2   6 1615.72   83.04
   4  -2  -5 1756.38   93.32
  -4   2   5 1768.87   91.16
   4  -2  -4  131.32   10.99
  -4   2   4  131.77    8.49
   4  -2  -3 1833.89   72.55
   4  -2  -3 1858.95   95.78
  -4   2   3 1848.40   96.17
   4  -2  -2   76.12    7.35
   4  -2  -2   64.39    3.60
  -4   2   2   54.08    3.46
  -4   2   2   71.98    5.53
   4  -2  -1  236.90    9.35
   4  -2  -1  223.15   11.68
  -4   2   1  229.61    9.58
  -4   2   1  236.26   14.96
   4  -2   0 4424.40  256.45
   4  -2   3 2445.93  126.25
  -4   2  -3 2352.39  120.79
  -4   2  -3 2378.13  128.93
   4  -2   4  578.39   32.34
  -4   2  -4  572.29   34.47
   4  -2   5 1089.19   50.52
   4  -2   5 1129.76   55.89
  -4   2  -5 1152.48   61.94
   4  -2   6 3296.65  180.37
   4  -2   6 3449.19  207.73
  -4   2  -6 3334.93  200.52
   4  -2   7 1831.12   99.66
   4  -2   7 1806.85   86.60
  -4   2  -7 1777.58  102.35
   4  -2   8  999.52   56.47
   4  -2   8  930.96   41.52
   4  -2   9  283.41   19.48
   4  -2   9  267.68   13.49
   4  -2  10    6.55    4.37
   4  -2  10    5.93    2.07
  -4   2 -10    6.86    5.30
   4  -2  11  287.53   25.32
  -4   2 -11  298.15   26.20
   4  -2  12  205.42   21.38
  -4   2 -12  159.55   19.58
   4  -2  13  224.84   24.57
  -4   2 -13  211.30   24.87
   4  -2  14   39.21   12.36
  -4   2 -14   60.09   12.43
   4  -2  15   81.33   15.77
  -4   2 -15   71.58   13.09
   4  -2  16   31.74   10.64
  -4   2 -16   23.15    9.60
   4  -1 -13  729.30   49.15
   4  -1 -12 2658.25  178.85
   4  -1 -11  338.97   22.94
  -4   1  11  317.88   17.79
   4  -1 -10 2438.23  150.91
  -4   1  10 2307.17  128.86
   4  -1  -9  282.78   18.16
  -4   1   9  268.87   14.93
   4  -1  -8 2064.21  116.43
  -4   1   8 1872.00   96.96
   4  -1  -7  523.52   28.89
  -4   1   7  558.75   26.68
   4  -1  -6 4933.03  307.43
  -4   1   6 4825.19  294.09
   4  -1  -5 1928.06  101.73
  -4   1   5 1903.07   95.05
   4  -1  -4 1443.55   72.71
  -4   1   4 1464.81   70.58
   4  -1  -3    3.57    2.55
   4  -1  -3    3.16    0.65
  -4   1   3    6.90    3.13
  -4   1   3    2.65    0.86
   4  -1  -2  836.82   36.36
   4  -1  -2  865.87   29.95
  -4   1   2  841.46   40.26
  -4   1   2  743.58   27.01
   4  -1  -1  409.31   15.05
   4  -1  -1  377.37   20.63
  -4   1   1  405.49   21.67
  -4   1   1  410.23   15.90
   4  -1   0   48.24    6.20
  -4   1   0   52.83    4.18
  -4   1   0   48.67    6.38
   4  -1   1 3002.78  165.55
  -4   1  -1 3128.97  164.14
  -4   1  -1 2965.63  157.04
   4  -1   2   35.97    6.18
  -4   1  -2   50.29    6.11
   4  -1   3   57.66    6.31
   4  -1   3   49.01    7.75
  -4   1  -3   47.24    7.41
   4  -1   4  245.00   16.90
   4  -1   4  237.42   13.79
  -4   1  -4  246.96   17.51
   4  -1   5  418.75   24.99
   4  -1   5  418.98   20.42
  -4   1  -5  420.29   26.93
   4  -1   6  177.14   10.34
   4  -1   6  193.29   13.18
  -4   1  -6  193.10   16.45
   4  -1   7  110.84    6.97
   4  -1   7  108.33   11.09
  -4   1  -7  112.75   11.82
   4  -1   8  138.45   10.83
   4  -1   8  126.55    7.00
   4  -1   9  612.12   38.83
   4  -1   9  574.44   26.30
   4  -1  10   37.77    8.06
   4  -1  10   27.09    3.05
  -4   1 -10   35.57    7.82
   4  -1  11  984.98   67.12
  -4   1 -11  969.88   66.74
   4  -1  12   39.61    9.50
  -4   1 -12   38.10   10.05
   4  -1  13  278.81   25.02
  -4   1 -13  274.81   27.24
   4  -1  14  406.69   33.50
  -4   1 -14  383.34   35.91
   4  -1  15    3.00    5.39
  -4   1 -15    4.41    5.98
   4  -1  16   70.50   15.11
  -4   1 -16   99.88   16.71
   4  -1  17   70.15   14.88
  -4   1 -17   39.86   13.73
  -4   0  14   63.47   10.59
  -4   0  13  198.38   21.85
  -4   0  12 1624.13  112.27
   4   0 -11 1192.54   52.24
  -4   0  11 1331.39   85.88
   4   0 -10   28.49    2.08
  -4   0  10   37.39    7.62
  -4   0  10   30.34    3.37
   4   0  -9  223.83    7.37
  -4   0   9  430.86   16.24
   4   0  -8  285.28    8.58
  -4   0   8  470.27   18.74
   4   0  -7   20.79    1.30
   4   0  -7   15.94    1.14
  -4   0   7   25.95    3.21
   4   0  -6   40.92    1.79
  -4   0   6   66.42    5.06
   4   0  -5   51.12    1.84
  -4   0   5   85.73    5.64
   4   0  -4 4058.23  200.25
   4   0  -3    6.94    1.38
  -4   0   3   12.07    3.42
   4   0  -2  113.51    4.69
  -4   0   2   86.45    4.52
  -4   0   2  106.73    8.83
   4   0  -1  201.21    8.26
  -4   0   1  192.72    9.39
  -4   0   1  165.71   12.06
   4   0   0 1958.76   87.92
  -4   0   0 1946.00   90.22
  -4   0   0 1648.04   81.63
  -4   0  -1 4079.89  224.00
  -4   0  -1 3424.96  191.58
   4   0   2 1747.08   90.00
  -4   0  -2 1969.39   94.83
   4   0   3  402.65   21.43
  -4   0  -3  413.64   23.37
   4   0   4 3334.14  188.74
   4   0   4 3471.52  192.54
  -4   0  -4 3567.50  209.16
   4   0   5  195.82   14.37
   4   0   5  198.36   13.81
  -4   0  -5  224.08   14.19
   4   0   6  795.51   42.82
   4   0   6  745.41   36.12
  -4   0  -6  786.35   42.64
   4   0   7    6.64    3.20
   4   0   7    5.99    2.67
   4   0   8 1360.89   71.41
   4   0   8 1255.40   61.63
   4   0   9   55.67    4.63
   4   0   9   70.15    8.95
  -4   0  -9   71.99    9.29
   4   0  10  527.64   25.89
   4   0  10  563.11   38.50
  -4   0 -10  563.57   38.90
   4   0  11   16.39    4.99
   4   0  11   11.18    2.66
  -4   0 -11   11.19    4.81
   4   0  12   77.16   11.88
  -4   0 -12   70.44   11.72
   4   0  13  188.29   19.45
  -4   0 -13  180.67   19.03
   4   0  14 1276.62   96.84
  -4   0 -14 1141.85   85.12
   4   0  15  649.40   59.05
  -4   0 -15  537.90   50.30
   4   0  16   12.29    6.45
  -4   0 -16   11.65    7.94
   4   0  17   12.14    9.67
  -4   0 -17   16.47    9.04
  -4  -1  15    1.18    6.00
  -4  -1  14  400.73   36.76
  -4  -1  13    7.90    4.80
   4   1 -12 1171.87   56.15
  -4  -1  12 1317.12   89.08
   4   1 -11  727.34   33.22
  -4  -1  11  729.69   50.75
   4   1 -10  892.73   39.00
  -4  -1  10  910.65   57.54
   4   1  -9   27.00    2.47
  -4  -1   9   35.33    2.98
  -4  -1   9   37.93    6.71
   4   1  -8 1083.31   43.94
  -4  -1   8 1176.72   52.25
  -4  -1   8 1201.52   66.72
   4   1  -7  433.84   15.43
  -4  -1   7  476.20   19.83
   4   1  -6  815.68   42.45
   4   1  -6  698.57   25.95
   4   1  -6  880.14   32.53
  -4  -1   6  802.73   34.15
   4   1  -5  238.83    9.29
   4   1  -5  243.89   15.75
   4   1  -5  289.90   10.58
  -4  -1   5  257.74   13.20
   4   1  -4 1244.79   47.12
   4   1  -4  925.69   36.17
  -4  -1   4 1035.23   47.88
   4   1  -3   12.29    1.48
   4   1  -3    6.61    1.43
  -4  -1   3   17.51    3.58
   4   1  -2 3420.21  172.23
  -4  -1   2 3171.85  160.97
   4   1  -1  165.58    8.47
  -4  -1   1  144.34    8.51
  -4  -1   1  166.83    8.79
   4   1   0  172.62   12.88
  -4  -1   0  200.01   12.26
   4   1   1   32.00    4.34
  -4  -1  -1   16.80    6.22
   4   1   2  339.74   19.68
  -4  -1  -2  372.70   19.93
   4   1   3  313.21   16.18
  -4  -1  -3  326.31   21.41
   4   1   4 3938.38  235.29
  -4  -1  -4 4363.97  258.62
   4   1   5  299.18   18.60
  -4  -1  -5  329.97   23.05
   4   1   6  297.62   18.55
  -4  -1  -6  343.81   24.41
   4   1   7  232.12   13.70
   4   1   8 1901.49   98.91
   4   1   9   75.54    6.83
  -4  -1  -9  125.14   12.67
   4   1  10    5.16    2.33
  -4  -1 -10    4.84    3.90
   4   1  11   87.19    8.25
  -4  -1 -11  110.19   13.50
   4   1  12   30.37    4.09
  -4  -1 -12   27.06    6.41
  -4  -1 -13    5.98    5.77
  -4  -1 -14  115.07   15.50
  -4  -1 -15  275.40   30.13
  -4  -1 -16  200.60   24.69
  -4  -1 -17  400.82   42.14
  -4  -2  16   28.80   10.80
  -4  -2  15  120.37   18.76
  -4  -2  14    8.02    7.13
  -4  -2  13  363.34   33.30
   4   2 -12   99.97    7.24
  -4  -2  12  174.67   14.83
   4   2 -11  125.60    7.47
  -4  -2  11  126.00   12.16
   4   2 -10  660.28   30.47
  -4  -2  10  717.01   45.41
   4   2  -9   76.42    4.49
  -4  -2   9  118.50    9.96
  -4  -2   9   84.33    5.19
   4   2  -8   15.82    2.54
  -4  -2   8   28.63    5.55
  -4  -2   8   21.28    2.20
   4   2  -7 1496.15   65.34
  -4  -2   7 1432.88   65.26
  -4  -2   7 1417.89   78.47
   4   2  -6  330.05   13.04
  -4  -2   6  365.16   15.04
   4   2  -5 1767.48   89.88
   4   2  -5 1621.51   72.27
  -4  -2   5 1756.84   81.59
   4   2  -4 2570.30  132.96
   4   2  -4 2488.87  119.14
   4   2  -3  902.89   35.63
   4   2  -3  848.88   37.21
   4   2  -3  822.06   36.86
   4   2  -2 2227.62  105.76
   4   2  -2 2084.01  104.02
   4   2  -2 2324.38  108.33
   4   2  -1  390.62   16.44
  -4  -2   1  465.60   21.13
   4   2   0   97.78    6.63
  -4  -2   0   94.04    5.55
  -4  -2   0  152.96   11.01
   4   2   1   65.60    4.80
   4   2   1   68.68    6.07
  -4  -2  -1   73.25    8.08
  -4  -2  -1   49.54    4.38
   4   2   2 1021.07   44.68
   4   2   2  994.21   47.63
  -4  -2  -2 1123.46   57.62
   4   2   3 2892.76  150.83
   4   2   3 2839.91  160.77
  -4  -2  -3 3266.60  185.62
   4   2   4  913.84   42.94
   4   2   4  859.97   45.57
  -4  -2  -4 1062.15   58.15
   4   2   5 1686.30   85.57
   4   2   5 1618.78   86.02
  -4  -2  -5 1941.25  103.07
   4   2   6  486.86   26.20
   4   2   6  469.37   25.69
   4   2   7 1092.86   53.66
   4   2   7 1037.72   53.82
   4   2   8 3921.56  243.79
   4   2   8 3902.89  235.56
  -4  -2  -8 3922.17  251.53
   4   2   9   43.10    5.89
   4   2   9   65.98    8.41
  -4  -2  -9   59.97    9.38
   4   2  10  561.83   31.45
   4   2  10  606.42   39.12
  -4  -2 -10  552.13   39.39
   4   2  11   34.29    4.92
   4   2  11   36.33    6.43
  -4  -2 -11   20.64    5.82
   4   2  12   14.34    4.13
   4   2  12   13.60    5.15
  -4  -2 -12   18.04    6.71
   4   2  13   54.01   10.74
  -4  -2 -13   40.75   10.15
   4   2  14  175.63   23.11
  -4  -2 -14  225.85   20.91
   4   2  15   44.33    8.73
  -4  -2 -15   35.40   10.40
   4   2  16   33.38   10.53
  -4  -2 -16   26.32   10.22
   4   2  17  156.44   18.50
  -4  -2 -17   86.16   17.72
  -4  -3  15   -9.94    7.79
  -4  -3  14  145.82   18.35
   4   3 -13  146.13    9.68
  -4  -3  13  204.71   19.78
   4   3 -12   89.45    7.38
  -4  -3  12  170.37   15.46
   4   3 -11  281.61   15.54
  -4  -3  11  319.65   25.82
   4   3 -10   36.19    3.65
  -4  -3  10   36.97    7.44
   4   3  -9    6.13    1.40
   4   3  -9    9.08    2.02
  -4  -3   9    8.54    3.62
   4   3  -8  101.24    5.99
   4   3  -8  106.31    5.31
  -4  -3   8  110.69   10.65
   4   3  -7  172.27    8.20
   4   3  -7  170.30    7.47
  -4  -3   7  186.19   12.94
   4   3  -6 1866.28   85.85
   4   3  -6 1740.13   83.83
  -4  -3   6 1844.14   98.08
   4   3  -5    8.39    1.81
   4   3  -5    6.30    2.39
   4   3  -5    6.31    2.10
   4   3  -4 1636.65   77.38
   4   3  -4 1704.12   78.16
   4   3  -4 1622.18   76.38
   4   3  -3  437.58   19.15
   4   3  -3  431.69   18.15
   4   3  -3  435.56   19.55
   4   3  -2 2309.45  108.80
   4   3  -2 2505.98  123.88
   4   3  -2 2317.29  117.19
   4   3  -1    6.32    1.67
   4   3  -1    9.73    3.23
  -4  -3   1    3.44    1.31
  -4  -3   1   10.36    3.61
   4   3   0 2218.16  103.42
  -4  -3   0 2681.13  141.71
  -4  -3   0 2535.07  116.46
   4   3   1 1712.80   73.89
  -4  -3  -1 1775.22   77.22
  -4  -3  -1 1806.61   94.02
   4   3   2  955.20   51.09
   4   3   2  948.43   38.70
  -4  -3  -2 1118.77   59.03
  -4  -3  -2 1121.17   45.25
   4   3   3  673.35   29.01
  -4  -3  -3  719.40   37.54
   4   3   4   56.09    4.40
   4   3   4   47.24    7.32
  -4  -3  -4   31.69    6.55
   4   3   5 2656.96  142.73
   4   3   5 2712.98  155.59
  -4  -3  -5 3058.90  176.67
   4   3   6 2660.12  151.23
   4   3   6 2644.82  144.34
   4   3   7  477.32   26.76
   4   3   7  450.76   23.86
   4   3   8  618.70   34.03
   4   3   8  642.95   34.96
  -4  -3  -8  668.64   41.70
   4   3   9 1120.46   64.32
   4   3   9 1113.87   60.69
  -4  -3  -9 1181.10   70.95
   4   3  10 2328.13  138.74
   4   3  10 2368.34  144.81
  -4  -3 -10 2505.68  158.45
   4   3  11 2217.85  131.70
   4   3  11 2243.83  144.98
  -4  -3 -11 2233.71  147.25
   4   3  12   94.29    7.96
   4   3  12  102.36   10.46
  -4  -3 -12   69.71   10.57
   4   3  13  707.81   44.72
   4   3  13  756.71   57.00
  -4  -3 -13  678.43   52.93
   4   3  14    8.61    5.16
  -4  -3 -14    0.23    5.84
   4   3  15  195.90   22.76
  -4  -3 -15  145.85   20.43
   4   3  16  915.75   75.66
  -4  -3 -16  777.11   65.62
   4   3  17    9.16    6.38
  -4  -3 -17    8.49    7.51
  -4  -4  15  190.55   21.15
  -4  -4  14  122.40   16.64
   4   4 -13   88.50    7.67
  -4  -4  13  121.86   12.44
   4   4 -12   14.30    3.74
  -4  -4  12   19.73    6.98
   4   4 -11  683.49   36.40
  -4  -4  11  721.54   49.80
   4   4 -10  477.96   24.62
  -4  -4  10  544.96   35.16
   4   4  -9   20.88    3.88
  -4  -4   9   18.76    5.52
   4   4  -8   50.69    2.67
   4   4  -8   48.95    2.70
   4   4  -8   52.04    4.79
  -4  -4   8   58.16    7.31
   4   4  -7  797.42   38.99
   4   4  -7  852.42   34.23
  -4  -4   7  899.67   47.46
   4   4  -6   48.73    4.22
   4   4  -6   35.23    2.77
  -4  -4   6   48.27    5.48
   4   4  -5   44.20    3.71
   4   4  -4  284.57   12.50
   4   4  -4  309.64   16.22
   4   4  -4  295.81   12.57
   4   4  -3  749.47   29.76
   4   4  -3  737.08   35.13
   4   4  -3  723.34   31.14
   4   4  -2 1553.20   77.82
   4   4  -2 1443.42   62.73
   4   4  -2 1479.46   62.11
   4   4  -2 1446.01   69.33
   4   4  -1   35.25    5.43
   4   4  -1   43.08    6.37
   4   4  -1   35.83    2.17
   4   4   0   93.12    7.35
   4   4   0   72.25    3.46
  -4  -4   0   83.90    9.15
   4   4   1  630.54   22.10
  -4  -4  -1  654.89   24.31
  -4  -4  -1  756.26   40.98
   4   4   2  199.69    8.35
   4   4   2  183.67   14.97
  -4  -4  -2  205.00   17.05
  -4  -4  -2  209.76    8.77
   4   4   3 1063.22   43.71
   4   4   3  996.94   55.07
  -4  -4  -3 1099.41   62.53
  -4  -4  -3 1114.65   45.73
   4   4   4 3223.00  170.49
   4   4   4 3313.69  198.29
  -4  -4  -4 3642.51  217.89
   4   4   5  381.69   18.45
   4   4   5  392.81   25.70
  -4  -4  -5  399.90   27.04
   4   4   6 1559.77   81.50
   4   4   6 1587.05   78.01
   4   4   7 1992.35  111.03
   4   4   7 1999.15  105.10
  -4  -4  -7 1927.17  112.27
   4   4   8   33.43    5.80
   4   4   8   29.41    5.60
  -4  -4  -8   38.55    5.61
   4   4   9  315.32   21.87
   4   4   9  302.71   21.94
  -4  -4  -9  350.17   23.02
   4   4  10   23.88    5.95
   4   4  10   28.33    6.55
  -4  -4 -10   31.63    7.55
   4   4  11   17.93    4.99
   4   4  11    5.15    5.36
  -4  -4 -11    9.15    6.26
   4   4  12   55.13    7.70
   4   4  12   59.90    9.84
  -4  -4 -12   50.43    9.77
   4   4  13   92.06   12.66
   4   4  13   90.09   10.41
  -4  -4 -13   75.25   12.49
   4   4  14  173.34   19.92
   4   4  14  145.77   14.70
  -4  -4 -14  148.34   18.11
   4   4  15   12.05    5.58
  -4  -4 -15    6.90    6.51
   4   4  16   28.84    9.33
  -4  -4 -16   12.29    7.61
   4   4  17   30.25   10.63
  -4  -4 -17   22.58    7.71
  -4  -5  15  257.21   28.15
  -4  -5  14   79.49   13.03
   4   5 -13    4.92    3.24
  -4  -5  13    2.03    5.60
   4   5 -12  657.71   39.23
  -4  -5  12  723.35   53.42
   4   5 -11  860.44   49.12
  -4  -5  11  895.50   59.98
   4   5 -10    9.84    3.04
  -4  -5  10   10.28    5.50
   4   5  -9  771.73   41.80
  -4  -5   9  797.44   47.38
   4   5  -8  664.50   34.71
  -4  -5   8  648.59   37.85
   4   5  -7   35.79    2.23
   4   5  -7   34.57    4.99
  -4  -5   7   35.88    5.27
   4   5  -6 2432.00  136.50
   4   5  -6 2455.78  118.61
  -4  -5   6 2400.07  131.01
   4   5  -5 1080.68   46.47
  -4  -5   5 1153.30   54.02
   4   5  -4 1050.32   53.17
   4   5  -4 1084.10   47.25
   4   5  -4 1031.14   44.45
   4   5  -3 1242.35   52.65
   4   5  -3 1338.08   68.35
   4   5  -3 1231.14   55.75
   4   5  -2    9.77    1.43
   4   5  -2   18.34    1.94
   4   5  -2   13.57    3.23
   4   5  -2   17.80    4.87
   4   5   0 1521.85   58.72
   4   5   0 1536.87   79.03
  -4  -5  -1 2277.37   97.50
  -4  -5  -1 2469.35  137.98
   4   5   2   37.02    2.35
  -4  -5  -2   46.96    6.60
   4   5   3  469.21   18.08
   4   5   3  453.47   27.77
  -4  -5  -3  503.58   27.31
   4   5   4 1200.53   51.02
   4   5   4 1165.95   65.20
  -4  -5  -4 1233.10   67.38
   4   5   5 2481.74  140.96
   4   5   5 2444.31  123.68
   4   5   6  186.16   12.76
   4   5   6  194.24   10.93
   4   5   7 1018.64   50.58
   4   5   7 1014.55   54.04
  -4  -5  -7 1070.70   60.89
   4   5   8   10.21    3.78
   4   5   8   10.81    3.74
  -4  -5  -8   10.68    5.51
   4   5   9   55.87    6.94
   4   5   9   59.20    7.25
  -4  -5  -9   76.67    9.78
   4   5  10 4175.79  277.56
   4   5  10 3919.72  257.48
  -4  -5 -10 4049.17  279.42
   4   5  11  105.46   12.00
   4   5  11   88.37   11.36
  -4  -5 -11   70.14   12.74
   4   5  12  793.09   52.20
   4   5  12  812.16   52.70
  -4  -5 -12  718.49   51.27
   4   5  13   97.57   11.54
   4   5  13   85.01   10.22
  -4  -5 -13   48.21   11.05
   4   5  14  531.72   43.11
   4   5  14  543.05   38.26
  -4  -5 -14  536.55   42.78
   4   5  15   39.73    7.90
  -4  -5 -15   38.03   10.10
   4   5  16  139.27   13.96
  -4  -5 -16   91.25   15.68
   4   5  17  145.58   16.38
  -4  -5 -17   87.24   16.06
  -4  -6  14   50.76   10.85
   4   6 -13   27.97    5.27
  -4  -6  13   35.46    8.20
   4   6 -12   42.91    5.82
  -4  -6  12   60.61    9.02
   4   6 -11  117.92   11.44
  -4  -6  11  157.69   13.37
   4   6 -10  159.88   13.30
  -4  -6  10  142.92   14.32
   4   6  -9    7.63    3.79
  -4  -6   9    5.16    4.16
   4   6  -8 1531.09   87.25
  -4  -6   8 1472.33   82.32
   4   6  -7  613.35   35.04
   4   6  -7  603.98   22.21
  -4  -6   7  661.39   32.52
   4   6  -6  421.70   17.08
   4   6  -6  476.48   27.17
  -4  -6   6  435.20   22.90
   4   6  -5  221.80   15.43
   4   6  -5  201.75    8.70
  -4  -6   5  206.48   10.63
   4   6  -4 1290.75   59.59
   4   6  -4 1439.68   77.97
   4   6  -4 1322.89   59.57
   4   6  -3  628.59   24.26
   4   6  -3  606.65   26.84
   4   6  -3  578.40   30.35
   4   6  -2 1331.54   65.37
   4   6  -2 1450.06   58.06
   4   6  -2 1393.28   56.27
   4   6  -2 1386.05   76.80
   4   6  -1  586.15   29.52
   4   6  -1  601.68   19.14
   4   6  -1  509.40   15.85
   4   6   0 9374.76  716.68
   4   6   1 3676.52  227.81
   4   6   1 3293.25  198.62
   4   6   2  167.29    5.05
  -4  -6  -2  171.88   13.84
  -4  -6  -3 1438.08   81.65
   4   6   4  179.61   12.36
   4   6   4  173.27    8.26
  -4  -6  -4  181.96   13.79
  -4  -6  -4  195.77    8.38
   4   6   5 1184.45   52.95
   4   6   5 1166.82   67.34
   4   6   6   30.14    3.07
   4   6   6   35.85    6.80
   4   6   7   71.95    7.72
   4   6   7   77.00    6.17
  -4  -6  -7   85.31    8.04
   4   6   8   57.69    8.40
   4   6   8   60.70    6.28
  -4  -6  -8   46.78    8.44
   4   6   9   81.81    9.83
   4   6   9   84.09    7.91
  -4  -6  -9   66.50   11.06
   4   6  10  212.87   18.95
   4   6  10  200.22   16.23
  -4  -6 -10  207.52   19.13
   4   6  11 1431.66   93.58
   4   6  11 1433.23   86.92
  -4  -6 -11 1299.90   87.23
   4   6  12  273.55   22.57
   4   6  12  278.41   24.80
  -4  -6 -12  274.34   24.65
   4   6  13   71.39    9.99
   4   6  13   82.84   10.37
  -4  -6 -13   37.39    9.18
   4   6  14   21.44    7.59
   4   6  14   22.65    7.77
  -4  -6 -14   29.45    8.29
   4   6  15  159.56   15.99
   4   6  15  179.67   18.44
  -4  -6 -15   89.50   15.92
   4   6  16  668.35   53.79
  -4  -6 -16  529.01   46.20
   4   7 -13   38.32    7.77
   4   7 -12  232.21   19.08
  -4  -7  12  211.53   18.86
   4   7 -11  330.13   24.32
  -4  -7  11  316.52   24.66
   4   7 -10  308.94   21.97
  -4  -7  10  276.44   19.83
   4   7  -9  431.56   28.61
  -4  -7   9  405.20   24.64
   4   7  -8   91.37    9.97
  -4  -7   8   81.28    7.01
   4   7  -7  210.39   16.09
   4   7  -7  172.94    6.47
  -4  -7   7  202.04   11.37
   4   7  -6    7.54    5.09
   4   7  -6   10.79    1.54
  -4  -7   6    8.52    2.64
   4   7  -5  444.71   20.08
   4   7  -5  466.81   29.43
  -4  -7   5  445.64   20.27
   4   7  -4  578.85   26.09
   4   7  -4  600.56   32.42
   4   7  -4  572.74   23.81
   4   7  -3 1235.48   59.23
   4   7  -3 1358.69   75.15
   4   7  -3 1202.70   49.54
   4   7  -3 1183.69   48.73
   4   7  -2   45.00    4.47
   4   7  -2   45.39    6.02
   4   7  -1 6126.35  418.16
   4   7   0  450.22   25.62
   4   7   0  468.07   30.62
   4   7   1 6244.75  440.06
   4   7   1 6641.23  473.59
   4   7   2   40.20    6.52
   4   7   2   41.20    6.20
   4   7   3 1491.25   54.99
   4   7   4  566.58   21.01
   4   7   4  630.55   34.28
   4   7   5 2362.67  143.47
   4   7   5 2221.98  109.30
   4   7   6   29.50    6.46
   4   7   6   24.67    2.57
  -4  -7  -6   25.46    6.74
   4   7   7  260.66   21.64
   4   7   7  239.76   12.87
  -4  -7  -7  251.02   21.11
   4   7   8   15.25    6.32
   4   7   8   17.12    3.09
  -4  -7  -8   10.34    5.78
   4   7   9   31.80    6.23
   4   7   9   36.18    4.88
  -4  -7  -9   27.32    6.13
   4   7  10   14.39    6.66
   4   7  10   14.54    3.91
  -4  -7 -10   13.63    6.45
   4   7  11   73.02    7.89
   4   7  11   84.14    9.06
  -4  -7 -11   58.00   11.12
   4   7  12    2.24    3.21
   4   7  12    0.58    4.31
  -4  -7 -12   -6.45    4.05
   4   7  13  520.22   41.99
   4   7  13  482.42   35.98
  -4  -7 -13  433.42   35.93
   4   7  14   14.51    6.76
   4   7  14   25.13    6.71
  -4  -7 -14    5.75    6.91
   4   7  15  184.13   20.41
   4   7  15  181.96   20.71
  -4  -7 -15  163.60   20.65
   4   7  16  339.47   32.15
  -4  -7 -16  283.35   29.45
   4   8 -13  249.56   22.32
   4   8 -12  189.19   18.53
   4   8 -11   17.38    5.97
   4   8 -10  753.91   51.23
   4   8  -9  225.14   19.29
   4   8  -8  261.40   21.72
   4   8  -7  133.28    5.51
   4   8  -7  160.10   14.74
   4   8  -6   41.84    8.80
   4   8  -6   38.17    3.07
   4   8  -5   32.65    2.67
   4   8  -5   40.05    8.01
   4   8  -4   46.81    3.29
   4   8  -4   81.95    9.34
   4   8  -4   50.79    4.08
   4   8  -3  135.52   14.29
   4   8  -3  126.39    8.18
   4   8  -3  126.10    5.00
   4   8  -2 1816.61   99.25
   4   8  -1   35.19    5.22
   4   8   0  888.91   49.65
   4   8   0  951.54   56.40
   4   8   1 2213.96  131.88
   4   8   1 2372.73  139.22
   4   8   2  580.19   32.26
   4   8   2  625.74   36.44
   4   8   3    9.24    5.48
   4   8   3   11.18    3.86
   4   8   4  121.41   13.47
   4   8   5  842.37   46.94
   4   8   5  724.54   28.87
   4   8   6  528.42   35.89
   4   8   6  492.06   21.97
  -4  -8  -6  530.92   36.77
   4   8   7  148.97   16.20
   4   8   7  126.28    7.42
  -4  -8  -7  180.05   15.76
   4   8   8  488.86   32.48
   4   8   8  443.14   23.86
  -4  -8  -8  440.11   34.11
   4   8   9  903.10   58.99
   4   8   9  789.02   44.28
  -4  -8  -9  875.28   59.38
   4   8  10 1348.85   93.88
   4   8  10 1232.97   71.65
  -4  -8 -10 1260.86   86.16
   4   8  11  543.37   36.04
   4   8  11  661.72   50.64
  -4  -8 -11  542.25   44.15
   4   8  12  323.45   25.27
   4   8  12  347.28   31.98
  -4  -8 -12  334.33   30.91
   4   8  13    9.62    7.23
   4   8  13   11.09    5.35
  -4  -8 -13    9.88    6.31
   4   8  14  364.12   33.90
   4   8  14  343.19   30.00
  -4  -8 -14  311.12   32.16
   4   8  15  126.59   16.77
   4   8  15  113.02   13.88
  -4  -8 -15   87.48   12.64
   4   8  16   11.99    7.81
   4   8  16   17.24    7.87
  -4  -8 -16    7.13    7.21
   4   9 -12  123.03   15.54
   4   9 -11  107.44   13.41
   4   9 -10  176.70   17.32
   4   9  -9   40.60    8.86
   4   9  -8   48.08    9.13
   4   9  -7  211.33   20.47
   4   9  -6   28.38    2.80
   4   9  -6   49.99    8.19
   4   9  -5  155.53    9.54
   4   9  -5  176.06   18.24
   4   9  -4  761.34   37.46
   4   9  -4  821.40   53.82
   4   9  -4  685.49   28.07
   4   9  -3  250.58    6.95
   4   9  -3  238.13    6.83
   4   9  -2  204.32   13.30
   4   9  -1  885.52   48.22
   4   9   0  154.64   14.21
   4   9   0  103.67   11.22
   4   9   1  984.77   57.05
   4   9   1 1032.61   63.99
   4   9   2  505.64   30.03
   4   9   2  528.87   37.28
   4   9   3  980.21   61.79
   4   9   3  988.51   60.16
   4   9   4   26.54    7.17
   4   9   5  200.06   20.50
   4   9   6  764.93   52.20
   4   9   6  734.93   50.53
   4   9   7  532.01   39.13
   4   9   7  444.76   20.81
  -4  -9  -7  480.19   37.24
   4   9   8  156.33   16.09
  -4  -9  -8  141.69   16.32
   4   9   9  146.39   13.68
  -4  -9  -9  132.97   17.11
   4   9  10 1404.87   81.18
   4   9  10 1754.90  121.27
  -4  -9 -10 1559.95  109.14
   4   9  11  217.98   23.79
   4   9  11  205.87   15.33
  -4  -9 -11  205.37   22.87
   4   9  12  398.82   36.51
   4   9  12  330.18   23.60
  -4  -9 -12  357.24   33.37
   4   9  13  368.72   31.56
   4   9  13  325.56   25.58
  -4  -9 -13  313.72   31.34
   4   9  14   41.18   11.22
   4   9  14   40.27    7.72
  -4  -9 -14   35.08   10.13
   4   9  15    8.89    6.57
   4   9  15    0.36    5.11
  -4  -9 -15    1.80    5.71
   4  10 -11    9.11    5.26
   4  10 -10  106.28   16.07
   4  10  -9   39.81    9.65
   4  10  -8   31.66    9.63
   4  10  -7  358.22   33.01
   4  10  -6   15.85    7.48
   4  10  -5  252.54   13.19
   4  10  -5  237.89   10.84
   4  10  -5  348.40   28.14
   4  10  -4   51.52    4.69
   4  10  -4   62.32    8.45
   4  10  -3   93.78    8.87
   4  10  -2   98.85    8.16
   4  10  -1  222.28   17.58
   4  10  -1  252.97   23.04
   4  10   0  729.21   45.47
   4  10   0  808.42   56.44
   4  10   1 1217.63   76.89
   4  10   1 1128.03   69.22
   4  10   2  432.39   34.72
   4  10   2  422.99   30.84
   4  10   3  394.02   30.72
   4  10   3  431.22   34.05
   4  10   4  719.25   51.02
   4  10   4  730.52   51.63
   4  10   5  592.90   42.92
   4  10   6  139.60   15.69
   4  10   7   43.68    7.74
   4  10   7   54.84    8.27
   4  10   8   81.96   15.01
   4  10   8  114.40   16.38
   4  10   9  270.15   26.69
   4  10   9  204.79   20.24
   4  10  10  572.71   49.02
  -4 -10 -10  474.12   36.26
   4  10  11  862.42   63.91
   4  10  11  681.08   41.55
  -4 -10 -11  717.38   56.22
   4  10  12   84.00    8.83
  -4 -10 -12  101.65   14.79
   4  10  13   28.16    5.99
   4  10  13   22.61    8.45
  -4 -10 -13   21.08    8.65
   4  10  14  285.62   32.04
   4  10  14  236.83   21.49
  -4 -10 -14  191.82   25.46
   4  11 -10   22.18    7.42
   4  11  -9  162.96   17.66
   4  11  -8  405.55   38.10
   4  11  -7  282.89   29.32
   4  11  -6   84.70   13.33
   4  11  -5   24.09    8.65
   4  11  -5   14.44    2.63
   4  11  -4  289.69   27.06
   4  11  -4  222.07   14.81
   4  11  -3   13.77    3.42
   4  11  -2  208.48   16.26
   4  11  -1   25.53    6.58
   4  11  -1   35.59    7.35
   4  11   0   41.13    7.54
   4  11   0   55.04    9.89
   4  11   1   33.87    7.50
   4  11   1   33.19    9.55
   4  11   2  293.45   24.68
   4  11   2  314.18   29.03
   4  11   3  111.92   11.98
   4  11   3  158.21   15.66
   4  11   4   15.28    6.03
   4  11   4    2.58    6.29
   4  11   5  335.15   31.23
   4  11   5  309.61   26.44
   4  11   6 1312.79   95.35
   4  11   7  269.43   26.59
   4  11   8  128.69   16.62
   4  11   8  103.06   15.38
   4  11   9   30.47    9.41
   4  11   9   18.50    7.61
   4  11  10  190.44   21.90
   4  11  10  208.23   22.85
   4  11  11   13.34    7.01
   4  11  11    8.48    8.02
   4  11  12  714.70   63.46
   4  11  12 1006.35   81.96
   4  11  13  172.35   18.52
   4  11  14    4.68    6.09
   4  12  -9   12.02    8.33
   4  12  -8  526.79   44.36
   4  12  -7  310.64   33.93
   4  12  -6   29.14   10.53
   4  12  -5  156.42   20.69
   4  12  -4   17.22    3.60
   4  12  -4   39.04    9.94
   4  12  -3  447.55   26.76
   4  12  -2  874.81   53.73
   4  12  -1 1361.52   85.44
   4  12  -1 1604.16  113.72
   4  12   0  916.32   60.70
   4  12   0 1039.75   78.21
   4  12   1   70.32   11.63
   4  12   1   89.74   14.47
   4  12   2  149.26   17.60
   4  12   2  167.51   15.82
   4  12   3  260.48   22.43
   4  12   3  265.53   24.87
   4  12   4  817.53   57.04
   4  12   4  830.69   63.90
   4  12   5  445.50   41.16
   4  12   5  454.46   39.68
   4  12   6  142.31   18.51
   4  12   6  139.34   19.68
   4  12   7   33.12    9.94
   4  12   8 1073.00   85.76
   4  12   8  988.62   79.57
   4  12   9  238.14   25.61
   4  12   9  205.73   23.60
   4  12  10  109.47   19.02
   4  12  10  130.51   17.78
   4  12  11    8.40    8.60
   4  12  11   37.13    8.73
   4  12  12  241.42   25.57
   4  12  12  134.80   19.95
   4  12  13  246.90   28.36
   4  13  -7   14.35    9.60
   4  13  -6   19.62    9.88
   4  13  -5  126.37   15.20
   4  13  -3   39.10    5.65
   4  13  -2   20.85    5.07
   4  13  -2   40.13   10.16
   4  13  -1  313.72   24.71
   4  13  -1  374.11   36.50
   4  13   0  359.29   29.41
   4  13   0  402.57   39.30
   4  13   1  280.25   31.01
   4  13   1  264.15   24.88
   4  13   2   46.46    9.00
   4  13   2   49.72   10.13
   4  13   3  310.57   30.40
   4  13   3  310.23   33.90
   4  13   4   27.34    8.41
   4  13   4   30.33   10.01
   4  13   5  548.25   48.56
   4  13   5  518.87   47.79
   4  13   6  785.37   61.58
   4  13   6  713.14   62.99
   4  13   7    7.43    6.42
   4  13   7   -3.26    5.99
   4  13   8  167.15   20.03
   4  13   9  256.74   27.41
   4  13   9  235.50   28.98
   4  13  10   22.41    7.30
   4  13  10    7.00    8.31
   4  13  11    9.40    8.00
   4  13  11    2.25    6.67
   4  14  -5  236.88   30.81
   4  14  -2   57.92    9.30
   4  14  -2  115.17   16.14
   4  14  -1   37.89    7.96
   4  14  -1   80.88   11.24
   4  14   0   71.13   14.05
   4  14   0   49.02    9.73
   4  14   1    7.34    6.54
   4  14   1   22.51    8.78
   4  14   2    4.61    4.48
   4  14   2    7.69    7.41
   4  14   3   50.69   10.63
   4  14   3   35.98    9.51
   4  14   4   11.70    6.04
   4  14   4    8.04    8.81
   4  14   5   -0.76    3.93
   4  14   5    2.32    4.38
   4  14   6   67.50   10.48
   4  14   6   47.54   13.67
   4  14   7  194.00   25.96
   4  14   7  238.35   29.41
   4  14   8   -0.54    4.00
   4  14   9   61.93   14.24
   4  14  10   17.26   11.39
   4  14  10   23.89   10.05
   4  15  -3   68.12   17.53
   4  15  -2   11.60    7.13
   4  15  -1   27.44    7.09
   4  15  -1   26.09   11.99
   4  15   0   22.02    7.71
   4  15   1  122.63   19.04
   4  15   1   80.45   13.57
   4  15   2    1.19    4.44
   4  15   2   -2.06    5.36
   4  15   3    7.29    6.68
   4  15   3    4.34    8.04
   4  15   4   21.91    9.30
   4  15   4   25.97   10.62
   4  15   5   33.83   11.18
   4  15   5   31.20   12.82
   4  15   6   35.13   11.14
   4  15   6   16.25   11.05
   4  15   7  290.56   33.27
   4  15   7  182.23   26.70
  -5  14   2  234.88   27.08
  -5  14   1  100.27   15.75
  -5  14   0   36.28   10.24
  -5  14   0   38.65   10.72
  -5  13   6  251.93   33.40
  -5  13   5   28.16   11.87
  -5  13   4   57.11   14.64
  -5  13   3   15.90    9.59
  -5  13   2   27.39   10.17
  -5  13   1  319.69   27.58
  -5  13   1  309.63   27.27
  -5  13   0  194.10   20.16
  -5  13   0  150.46   18.24
  -5  13  -1   50.68   11.86
  -5  13  -1   93.31   12.90
  -5  13  -2    9.41    6.48
  -5  13  -2   24.53    8.45
  -5  13  -3  463.00   39.42
  -5  13  -3  375.43   28.57
  -5  13  -4  637.75   45.56
  -5  13  -4  783.10   61.31
  -5  13  -5  198.15   25.66
  -5  12   9   37.34   10.23
  -5  12   8  158.58   25.07
  -5  12   7  194.72   22.77
  -5  12   5   53.89   10.84
  -5  12   4  520.01   46.89
  -5  12   3  818.28   60.26
  -5  12   2   57.07   11.29
  -5  12   2   38.99    8.37
  -5  12   1  582.89   45.38
  -5  12   1  554.78   39.54
  -5  12   0   93.41   13.13
  -5  12   0   83.51   12.04
  -5  12  -1   98.13   12.49
  -5  12  -1   55.11   11.95
  -5  12  -2   58.13   11.18
  -5  12  -2   91.61   12.07
  -5  12  -3  386.52   30.28
  -5  12  -3  444.10   33.17
  -5  12  -4   61.29   11.99
  -5  12  -4   53.94    8.20
  -5  12  -5   78.94   14.83
  -5  12  -6  161.83   17.51
  -5  12  -7   38.32   10.52
   5 -11 -10   62.48   13.64
  -5  11  10   94.98   17.32
   5 -11  -9   21.19    8.23
  -5  11   9   22.49   10.43
   5 -11  -8  167.64   19.19
  -5  11   8  215.32   22.89
   5 -11  -7  486.65   38.88
  -5  11   7  574.68   51.60
   5 -11  -6  440.69   34.24
   5 -11  -5   84.02   11.67
   5 -11  -4  111.19   12.83
  -5  11   4  175.11   18.34
   5 -11  -3 1335.67   87.35
  -5  11   3 1552.97  107.66
   5 -11  -2  500.52   35.04
  -5  11   2  630.71   47.08
  -5  11   2  594.02   37.97
   5 -11  -1  662.89   45.07
  -5  11   1  894.61   54.03
  -5  11   1  903.59   60.33
   5 -11   0  525.25   37.65
  -5  11   0  639.09   45.12
  -5  11   0  641.45   41.64
   5 -11   1  144.00   14.40
  -5  11  -1  157.51   16.04
  -5  11  -1  169.38   17.29
   5 -11   2  289.59   23.85
  -5  11  -2  340.35   25.62
  -5  11  -2  355.12   28.63
   5 -11   3  810.66   55.72
  -5  11  -3 1176.84   76.60
  -5  11  -3 1052.66   63.20
   5 -11   4  449.20   35.09
  -5  11  -4  559.27   34.70
  -5  11  -4  633.16   46.81
  -5  11  -5  284.24   19.59
  -5  11  -5  354.37   32.01
   5 -11   6  365.33   32.02
  -5  11  -6  582.31   40.91
  -5  11  -7   41.60    9.79
  -5  11  -8   38.64   11.57
  -5  11  -9   61.43   13.78
   5 -10 -12   80.94   13.58
  -5  10  12   58.84   16.73
   5 -10 -11  162.56   17.90
  -5  10  11  195.36   22.76
   5 -10 -10  157.24   20.37
  -5  10  10  233.91   25.82
   5 -10  -9 1086.44   78.40
  -5  10   9 1219.08   88.68
   5 -10  -8 1119.35   78.14
  -5  10   8 1301.43   90.52
   5 -10  -7  115.64   14.41
  -5  10   7  117.97   14.00
   5 -10  -6  457.37   36.41
  -5  10   6  522.35   43.76
   5 -10  -5 1198.53   78.60
   5 -10  -4  606.47   40.08
   5 -10  -3  616.43   40.99
  -5  10   3  632.89   41.38
  -5  10   3  597.28   33.38
   5 -10  -2   22.12    6.52
  -5  10   2   35.80    8.70
  -5  10   2   23.43    6.05
   5 -10  -1   13.30    5.55
  -5  10   1   16.57    5.66
  -5  10   1   20.79    7.15
   5 -10   0 1579.45   97.34
  -5  10   0 1599.50  102.21
  -5  10   0 1576.99   95.36
   5 -10   1   17.24    5.76
  -5  10  -1   14.34    6.66
  -5  10  -1   23.15    6.54
   5 -10   2   22.52    6.77
  -5  10  -2   31.54    6.81
  -5  10  -2   31.65    7.31
   5 -10   3   20.94    6.38
  -5  10  -3   29.43    6.36
  -5  10  -3   32.18    7.93
   5 -10   4  239.79   20.98
  -5  10  -4  303.49   25.23
  -5  10  -4  279.78   19.50
   5 -10   5  380.30   30.39
  -5  10  -5  449.56   27.54
  -5  10  -5  504.18   38.64
   5 -10   6 1870.38  131.42
  -5  10  -6 2684.15  182.75
  -5  10  -6 2352.81  139.28
   5 -10   7  105.42   14.63
  -5  10  -7  195.20   20.44
   5 -10   8  106.77   14.49
  -5  10  -8  160.89   19.57
   5 -10   9   27.64    8.99
  -5  10  -9   44.58   11.54
   5 -10  10   83.67   14.97
  -5  10 -10  193.62   23.37
   5  -9 -13   60.77   13.73
  -5   9  13   65.17   11.99
   5  -9 -12  221.41   26.60
  -5   9  12  225.56   23.47
   5  -9 -11   44.51   12.55
  -5   9  11   70.56   11.31
   5  -9 -10   21.15    8.15
  -5   9  10   19.87    9.61
   5  -9  -9  252.13   25.06
  -5   9   9  294.17   25.34
   5  -9  -8  854.84   55.16
  -5   9   8  918.72   62.69
   5  -9  -7  188.04   16.85
  -5   9   7  210.44   19.07
   5  -9  -6  335.56   28.33
  -5   9   6  368.33   31.20
   5  -9  -5   13.57    5.12
  -5   9   5   -0.05    6.86
   5  -9  -4  166.98   15.73
   5  -9  -3   84.37   11.84
  -5   9   3  128.48   10.77
  -5   9   3   82.20    8.27
   5  -9  -2    9.37    5.43
  -5   9   2   11.91    4.22
  -5   9   2   18.60    6.61
   5  -9  -1  108.34   11.18
  -5   9   1  136.24   12.64
  -5   9   1   93.12    9.39
   5  -9   0 1394.45   81.64
  -5   9   0 1397.19   85.60
  -5   9   0 1347.73   76.22
   5  -9   1   41.92    7.97
  -5   9  -1   38.50    8.27
  -5   9  -1   58.03    7.86
   5  -9   2  120.08   12.97
  -5   9  -2  143.24   12.46
  -5   9  -2   87.58   11.41
   5  -9   3  112.31   12.84
  -5   9  -3  122.00   13.59
  -5   9  -3  109.25   10.92
   5  -9   4  166.54   16.80
  -5   9  -4  174.49   17.46
  -5   9  -4  153.34   12.54
   5  -9   5   30.82    7.04
  -5   9  -5   24.72    5.03
  -5   9  -5   30.52    8.24
   5  -9   6   10.54    5.34
  -5   9  -6    8.62    3.66
  -5   9  -6   10.07    7.66
   5  -9   7  264.84   26.52
  -5   9  -7  353.37   31.95
  -5   9  -7  300.99   17.26
   5  -9   8    5.84    6.79
  -5   9  -8   24.33    7.89
   5  -9   9   -0.51    4.30
  -5   9  -9   -1.48    5.25
   5  -9  10    5.72    6.64
  -5   9 -10    8.84    7.43
   5  -9  11   87.08   13.69
  -5   9 -11   44.54   14.19
   5  -8 -13   27.98    9.64
  -5   8  13   14.03   10.05
   5  -8 -12  191.71   23.84
  -5   8  12  186.15   24.21
   5  -8 -11  172.43   20.56
  -5   8  11  185.78   22.91
   5  -8 -10  123.58   14.95
  -5   8  10  117.46   17.87
   5  -8  -9  175.65   18.37
  -5   8   9  196.01   22.07
   5  -8  -8  136.41   16.58
  -5   8   8  164.22   18.16
   5  -8  -7  548.36   39.13
  -5   8   7  561.65   42.92
   5  -8  -6    3.10    4.62
  -5   8   6    9.43    6.21
   5  -8  -5 1155.36   71.76
  -5   8   5 1203.28   72.10
   5  -8  -4   11.85    4.95
  -5   8   4   15.00    5.19
  -5   8   4    9.36    3.02
  -5   8   3   72.75    6.48
   5  -8  -2 1054.55   61.58
  -5   8   2 1057.45   63.97
  -5   8   2  975.58   50.08
   5  -8  -1  959.55   55.41
  -5   8   1  955.99   57.56
  -5   8   1  923.28   47.68
   5  -8   0 2066.68  121.61
  -5   8   0 2041.97  114.81
  -5   8   0 2063.50  122.63
   5  -8   1  131.02   13.49
  -5   8  -1  147.74   12.31
  -5   8  -1  146.03   13.43
   5  -8   2   73.06   10.16
  -5   8  -2   86.15    9.44
  -5   8  -2   87.92    9.20
   5  -8   3   41.61    7.74
  -5   8  -3   49.34    6.66
  -5   8  -3   43.85    7.94
   5  -8   4  193.24   16.70
  -5   8  -4  177.39   13.39
  -5   8  -4  178.20   16.57
   5  -8   5  507.33   34.68
  -5   8  -5  496.52   26.34
  -5   8  -5  529.80   38.31
   5  -8   6   22.98    6.79
  -5   8  -6   31.53    8.45
  -5   8  -6   28.67    4.60
   5  -8   7  189.13   20.08
  -5   8  -7  217.62   21.38
  -5   8  -7  189.49   11.22
   5  -8   8   74.86   11.47
  -5   8  -8  102.92   13.79
   5  -8   9   31.76    9.18
  -5   8  -9   44.49   10.26
   5  -8  10   89.33   13.48
  -5   8 -10  109.12   16.47
   5  -8  11  103.44   15.45
   5  -8  12   72.53   11.38
   5  -7 -14  587.40   54.89
  -5   7  14  571.09   49.36
   5  -7 -13  482.94   45.50
  -5   7  13  499.68   44.61
   5  -7 -12  351.59   31.10
  -5   7  12  349.14   32.78
   5  -7 -11   99.95   14.73
  -5   7  11   95.79   14.51
   5  -7 -10  230.93   21.39
  -5   7  10  244.67   25.25
   5  -7  -9  256.13   20.30
  -5   7   9  251.87   20.73
   5  -7  -8 3804.65  269.42
  -5   7   8 4085.34  289.21
   5  -7  -7   97.97   11.99
  -5   7   7  105.54   13.63
   5  -7  -6   55.44   10.17
  -5   7   6   83.25    8.72
   5  -7  -5  284.92   20.67
  -5   7   5  304.46   22.62
   5  -7  -4  138.36   12.96
  -5   7   4  134.04   14.01
  -5   7   4  129.57    7.07
   5  -7  -3  177.83   14.98
  -5   7   3  158.26    8.74
   5  -7  -2  927.82   52.94
  -5   7   2  899.31   43.01
   5  -7  -1 1014.42   58.11
  -5   7   1 1044.75   60.27
  -5   7   1 1009.40   50.00
   5  -7   0  114.14    9.45
  -5   7   0  124.81   11.52
  -5   7   0  117.65    9.30
   5  -7   1  158.58   13.12
  -5   7  -1  147.73   12.41
  -5   7  -1  148.33   11.66
   5  -7   2 2359.26  137.60
  -5   7  -2 2310.43  129.84
  -5   7  -2 2297.52  131.09
   5  -7   3  129.33   12.67
  -5   7  -3  128.77   12.06
  -5   7  -3  115.43    9.52
   5  -7   4  744.38   45.82
  -5   7  -4  672.73   36.14
  -5   7  -4  702.12   43.71
   5  -7   5   23.37    6.85
  -5   7  -5   32.50    4.78
  -5   7  -5   25.75    6.10
   5  -7   6  670.00   43.41
  -5   7  -6  633.72   31.81
  -5   7  -6  662.24   40.60
   5  -7   7  508.47   37.11
  -5   7  -7  500.28   24.49
  -5   7  -7  546.68   37.19
   5  -7   8  203.28   20.59
  -5   7  -8  224.65   19.16
   5  -7   9  111.85   15.11
  -5   7  -9  116.85   13.52
   5  -7  10  320.83   31.11
  -5   7 -10  365.06   30.92
   5  -7  11  198.76   23.78
   5  -7  12  239.43   29.68
   5  -7  13    7.25    6.59
  -5   7 -13   14.82    9.40
   5  -6 -14  531.58   48.94
  -5   6  14  493.24   43.71
   5  -6 -13   14.40    8.60
  -5   6  13   15.14    7.76
   5  -6 -12  261.21   23.73
  -5   6  12  261.42   25.09
   5  -6 -11  155.34   18.95
  -5   6  11  169.84   18.63
   5  -6 -10  323.84   28.33
  -5   6  10  331.63   28.04
   5  -6  -9   92.89   13.65
  -5   6   9  185.61   16.97
   5  -6  -8  150.55   15.29
  -5   6   8  145.06   15.16
   5  -6  -7  169.32   16.13
  -5   6   7  162.33   13.18
   5  -6  -6    9.07    3.98
  -5   6   6   11.88    5.53
   5  -6  -5   97.00    9.41
  -5   6   5  123.29   12.43
   5  -6  -4   54.85    7.15
  -5   6   4   48.68    3.45
  -5   6   4   33.29    8.61
   5  -6  -3  120.25   11.18
  -5   6   3  131.68   12.32
  -5   6   3  121.60    6.39
   5  -6  -2  293.73   19.55
  -5   6   2  299.95   14.11
   5  -6  -1 1872.74  105.73
  -5   6   1 1846.68   93.13
   5  -6   0  291.73   19.04
  -5   6   0  288.34   16.69
  -5   6   0  290.77   15.64
   5  -6   1  787.73   39.76
  -5   6  -1  776.80   41.97
  -5   6  -1  780.74   39.81
   5  -6   2  109.64    9.66
  -5   6  -2   80.13    8.38
  -5   6  -2  109.31    8.97
   5  -6   3  824.93   46.84
  -5   6  -3  764.16   39.61
  -5   6  -3  800.73   41.36
   5  -6   4  301.80   21.44
  -5   6  -4  300.82   21.10
  -5   6  -4  288.28   16.32
   5  -6   5  116.45   12.74
  -5   6  -5  113.74    8.94
  -5   6  -5  120.83   12.63
   5  -6   6  657.69   41.48
  -5   6  -6  600.06   30.24
  -5   6  -6  648.32   39.42
   5  -6   7   50.83    4.43
   5  -6   7   47.02   10.17
  -5   6  -7   77.46    8.20
   5  -6   8  296.43   24.63
  -5   6  -8  326.97   24.51
   5  -6   9  249.65   24.80
  -5   6  -9  277.25   23.49
   5  -6  10   35.02    8.48
  -5   6 -10   31.04    8.30
   5  -6  11  103.40   15.79
   5  -6  12  298.98   28.43
  -5   6 -12  299.47   33.50
   5  -6  13   85.33   16.83
  -5   6 -13   78.43   17.65
   5  -6  14  276.62   30.01
  -5   6 -14  286.49   34.25
   5  -5 -15  123.08   15.93
   5  -5 -14  300.49   27.99
   5  -5 -13  761.89   59.88
  -5   5  13  663.43   49.15
   5  -5 -12   87.36   14.77
  -5   5  12   99.59   12.46
   5  -5 -11  412.03   34.69
  -5   5  11  403.49   31.25
   5  -5 -10  204.82   20.47
  -5   5  10  202.29   19.22
   5  -5  -9 1851.55  119.01
  -5   5   9 1837.55  114.36
   5  -5  -8 1502.74   94.55
  -5   5   8 1459.19   87.95
   5  -5  -7   63.17    9.16
  -5   5   7   50.49    8.85
   5  -5  -6  678.87   40.83
  -5   5   6  678.81   40.92
   5  -5  -5   13.09    4.82
  -5   5   5   12.71    4.99
  -5   5   5    9.48    1.15
   5  -5  -4  467.95   24.69
  -5   5   4  432.22   15.98
  -5   5   4  453.52   27.89
   5  -5  -3  437.34   25.43
  -5   5   3  424.05   16.64
  -5   5   3  453.57   24.33
   5  -5  -2  527.43   29.35
  -5   5   2  496.22   25.99
  -5   5   2  508.10   20.86
   5  -5  -1 1423.25   77.14
  -5   5   1 1355.42   63.91
   5  -5   0   28.29    6.00
  -5   5   0   28.63    4.51
   5  -5   1  477.95   26.85
  -5   5  -1  474.64   24.41
  -5   5  -1  475.48   23.29
   5  -5   2   20.49    5.32
  -5   5  -2   15.46    4.54
  -5   5  -2   13.15    4.61
   5  -5   3   56.23    7.52
  -5   5  -3   57.18    6.04
  -5   5  -3   54.87    7.30
   5  -5   4  515.35   30.71
  -5   5  -4  473.58   24.46
  -5   5  -4  505.14   29.99
   5  -5   5 1106.90   65.73
  -5   5  -5 1064.41   51.95
  -5   5  -5 1051.92   62.73
   5  -5   6 2451.24  145.08
  -5   5  -6 2266.24  122.31
  -5   5  -6 2464.72  146.43
   5  -5   7    3.23    2.36
   5  -5   7    9.59    4.82
  -5   5  -7   13.63    5.14
   5  -5   8    2.38    4.79
  -5   5  -8    7.92    4.92
   5  -5   9  331.38   24.76
  -5   5  -9  403.74   32.44
   5  -5  10 2171.90  151.23
   5  -5  11  267.18   28.79
   5  -5  12   10.83    6.27
  -5   5 -12   15.79    8.68
   5  -5  13  293.22   31.72
  -5   5 -13  276.46   29.53
   5  -5  14  245.97   26.02
  -5   5 -14  107.64   16.41
   5  -5  15  259.04   21.79
  -5   5 -15   77.31   20.26
   5  -4 -15  129.09   19.45
   5  -4 -14   38.65   11.77
   5  -4 -13   57.08   10.35
  -5   4  13   71.58    8.82
   5  -4 -12  802.55   58.56
  -5   4  12  755.36   49.74
   5  -4 -11   19.83    7.49
  -5   4  11   16.83    6.26
   5  -4 -10   63.03   10.93
  -5   4  10   75.48    9.85
   5  -4  -9  215.97   19.29
  -5   4   9  201.67   14.39
   5  -4  -8 4309.37  294.16
  -5   4   8 4377.93  293.49
   5  -4  -7 2933.12  177.70
  -5   4   7 2887.00  176.79
   5  -4  -6 2098.85  118.72
  -5   4   6 2098.89  121.13
   5  -4  -5   61.81    6.45
  -5   4   5   71.86    6.59
   5  -4  -4  167.41   12.86
   5  -4  -4  182.48    6.33
  -5   4   4  174.02   10.88
  -5   4   4  150.56    5.30
   5  -4  -3 5214.35  344.74
   5  -4  -2 2865.34  164.03
  -5   4   2 2952.19  168.81
  -5   4   2 2753.23  137.13
   5  -4  -1  232.21   14.19
  -5   4   1  227.20   16.01
  -5   4   1  230.28   10.43
   5  -4   0  529.65   29.31
  -5   4   0  526.65   24.87
   5  -4   1  170.22   10.99
  -5   4  -1  171.44   12.25
  -5   4  -1  164.29   10.64
   5  -4   2  165.13   12.86
  -5   4  -2  145.30   11.09
  -5   4  -2  157.61   11.13
   5  -4   3 1865.68  101.65
  -5   4  -3 1706.73   87.93
  -5   4  -3 1813.24   97.16
   5  -4   4  572.47   32.27
  -5   4  -4  540.69   26.63
  -5   4  -4  552.62   31.25
   5  -4   5   16.91    4.03
  -5   4  -5   12.64    4.02
  -5   4  -5   16.74    3.61
   5  -4   6  588.20   27.77
   5  -4   6  618.84   34.60
  -5   4  -6  588.69   36.48
   5  -4   7 1671.81   83.38
   5  -4   7 1840.35  109.34
  -5   4  -7 1727.09   98.37
   5  -4   8 2822.82  155.25
   5  -4   8 2970.22  192.02
  -5   4  -8 3043.09  195.10
   5  -4   9  439.71   30.04
  -5   4  -9  458.24   36.54
   5  -4  10  195.74   19.00
   5  -4  11   13.68    7.02
   5  -4  12   52.70    9.23
  -5   4 -12   54.86   12.42
   5  -4  13  692.69   58.20
  -5   4 -13  628.40   57.16
   5  -4  14  271.61   24.46
  -5   4 -14  108.91   21.26
   5  -4  15   33.44   10.00
  -5   4 -15   -1.65    9.00
   5  -3 -15  172.24   20.61
   5  -3 -14  194.88   22.82
   5  -3 -13    9.62    7.19
   5  -3 -12  196.01   17.42
  -5   3  12  179.17   15.51
   5  -3 -11   31.60    8.64
  -5   3  11   29.60    6.30
   5  -3 -10  475.51   35.29
  -5   3  10  479.02   30.09
   5  -3  -9  418.03   29.66
  -5   3   9  396.97   24.84
   5  -3  -8   -0.51    2.89
  -5   3   8    0.42    2.76
   5  -3  -7 2229.63  131.34
  -5   3   7 2151.91  123.06
   5  -3  -6 5048.30  331.86
  -5   3   6 5111.89  335.40
   5  -3  -5 1083.51   59.07
  -5   3   5 1074.20   53.88
   5  -3  -4  117.52   10.63
  -5   3   4  111.72   10.09
   5  -3  -3  721.83   36.11
  -5   3   3  702.95   38.56
  -5   3   3  764.21   27.83
   5  -3  -2 1861.85  103.26
  -5   3   2 1949.85  107.11
  -5   3   2 1902.64   84.29
   5  -3  -1 4186.08  261.65
  -5   3   1 4250.50  260.09
  -5   3   1 4375.30  244.63
   5  -3   0 2616.50  147.69
  -5   3   0 2644.94  135.81
   5  -3   1  564.01   31.13
  -5   3  -1  587.28   28.64
   5  -3   2  286.03   18.73
  -5   3  -2  273.66   14.22
  -5   3  -2  282.85   16.75
   5  -3   3  706.97   35.16
  -5   3  -3  680.09   33.81
  -5   3  -3  717.00   35.34
   5  -3   4 1452.84   77.66
  -5   3  -4 1437.58   71.95
  -5   3  -4 1469.32   78.24
   5  -3   5 3724.51  217.90
   5  -3   5 3769.47  227.50
  -5   3  -5 3732.21  229.29
   5  -3   6    6.96    2.83
   5  -3   6    1.41    3.28
  -5   3  -6    9.19    4.57
   5  -3   7  251.57   13.01
   5  -3   7  259.97   19.45
  -5   3  -7  258.70   17.55
   5  -3   8  991.00   47.73
   5  -3   8 1029.09   62.30
  -5   3  -8 1038.95   63.87
   5  -3   9 2445.33  154.24
   5  -3   9 2299.72  121.97
  -5   3  -9 2377.20  154.77
   5  -3  10  619.92   41.21
   5  -3  11  163.43   16.61
  -5   3 -11  189.82   19.71
   5  -3  12  210.96   22.99
  -5   3 -12  197.99   23.57
   5  -3  13  291.37   32.45
  -5   3 -13  260.04   28.90
   5  -3  14  627.41   56.07
  -5   3 -14  567.65   54.88
   5  -3  15   51.55   11.43
  -5   3 -15   23.48   11.80
   5  -3  16   97.25   15.44
  -5   3 -16   21.19   10.15
   5  -2 -15    4.75    7.65
   5  -2 -14 1688.36  127.79
   5  -2 -13 1602.79  117.11
   5  -2 -12  938.36   67.65
  -5   2  12  875.54   51.04
   5  -2 -11  183.89   19.31
  -5   2  11  168.43   13.21
   5  -2 -10  929.49   60.24
  -5   2  10  849.35   48.28
   5  -2  -9  222.76   19.12
  -5   2   9  251.16   16.68
   5  -2  -8 1722.05  100.65
  -5   2   8 1622.75   88.70
   5  -2  -7  492.54   29.52
  -5   2   7  479.13   26.63
   5  -2  -6  261.30   17.63
  -5   2   6  258.56   16.51
   5  -2  -5 1842.60  101.02
  -5   2   5 1750.49   93.23
   5  -2  -4 1298.20   66.67
  -5   2   4 1302.70   66.95
   5  -2  -3 2219.54  116.91
   5  -2  -3 2034.86   88.31
  -5   2   3 2211.94  116.63
  -5   2   3 2310.23   99.05
   5  -2  -2 1082.40   42.72
   5  -2  -2 1087.31   56.44
  -5   2   2 1049.91   55.03
  -5   2   2 1124.40   45.63
   5  -2  -1  755.59   39.67
  -5   2   1  813.46   33.35
  -5   2   1  751.72   39.72
   5  -2   0 1054.58   54.44
  -5   2   0 1106.53   51.72
  -5   2   0 1066.65   54.30
   5  -2   1 2963.23  165.34
  -5   2  -1 3205.96  174.04
   5  -2   3  167.63   12.86
  -5   2  -3  167.30   11.44
  -5   2  -3  168.94   13.27
   5  -2   4  369.08   22.94
   5  -2   4  335.06   17.02
  -5   2  -4  359.34   23.59
   5  -2   5  564.82   28.25
   5  -2   5  583.56   34.63
  -5   2  -5  589.44   35.05
   5  -2   6 1110.22   54.54
   5  -2   6 1189.59   64.56
  -5   2  -6 1173.31   61.49
   5  -2   7  473.91   23.59
   5  -2   7  528.97   32.55
  -5   2  -7  506.54   29.27
   5  -2   8 1039.26   51.04
   5  -2   8 1093.72   64.31
  -5   2  -8 1092.72   62.29
   5  -2   9  175.00   17.25
   5  -2   9  152.05    8.63
   5  -2  10  155.43   16.61
   5  -2  10  126.39    7.51
   5  -2  11  561.83   42.72
  -5   2 -11  542.12   43.42
   5  -2  12   19.66    8.60
  -5   2 -12   25.53    8.44
   5  -2  13    6.08    5.20
  -5   2 -13    4.97    5.03
   5  -2  14  134.98   17.91
  -5   2 -14   68.26   15.72
   5  -2  15  156.03   17.82
  -5   2 -15   43.63   11.46
   5  -2  16   41.32   11.75
  -5   2 -16   16.79   10.78
  -5   1  11 1196.34   64.25
  -5   1  10  564.15   29.75
  -5   1   9 1162.47   59.58
   5  -1  -8  850.84   49.21
  -5   1   8  864.35   43.09
   5  -1  -7  856.77   44.39
  -5   1   7  823.47   39.75
   5  -1  -6 3889.04  232.69
  -5   1   6 3824.54  225.18
   5  -1  -5  398.54   23.22
  -5   1   5  390.42   20.61
   5  -1  -4  285.65   17.57
  -5   1   4  282.03   16.37
   5  -1  -3 3152.24  179.19
   5  -1  -3 2957.06  138.56
  -5   1   3 3339.95  187.24
   5  -1  -2  118.73    9.19
   5  -1  -2   80.82    4.77
  -5   1   2  126.26    9.39
  -5   1   2   97.91    6.25
   5  -1  -1 6955.04  476.46
   5  -1  -1 6962.33  442.58
   5  -1   0 1710.87   86.09
  -5   1   0 1825.24   87.18
  -5   1   0 1759.50   88.23
   5  -1   1  803.14   43.35
  -5   1  -1  863.32   41.87
  -5   1  -1  806.33   41.22
   5  -1   2 1713.82   93.02
  -5   1  -2 1816.89   93.46
   5  -1   3 2013.63  109.73
   5  -1   3 1933.63  104.80
  -5   1  -3 1968.73  107.28
   5  -1   4  111.42    9.44
   5  -1   4   83.57    8.28
  -5   1  -4   92.23    8.47
   5  -1   5 2679.28  148.81
   5  -1   5 2833.67  161.82
  -5   1  -5 2851.63  168.09
   5  -1   6  515.06   26.47
   5  -1   6  523.79   27.62
  -5   1  -6  501.40   27.73
   5  -1   7 1884.73   99.34
   5  -1   7 1973.46  108.75
  -5   1  -7 1923.71  113.06
   5  -1   8 2140.14  113.89
   5  -1   8 2216.56  128.26
  -5   1  -8 2155.75  132.34
   5  -1   9  578.99   38.10
   5  -1   9  521.57   26.19
   5  -1  10   57.41    7.69
   5  -1  10   48.87    4.38
   5  -1  11  150.92   14.69
  -5   1 -11  134.04   14.71
   5  -1  12  851.48   62.41
  -5   1 -12  773.13   60.71
   5  -1  13  217.23   21.84
  -5   1 -13  177.01   19.80
   5  -1  14   88.01   13.49
  -5   1 -14   64.39   13.00
   5  -1  15   95.22   16.14
  -5   1 -15   88.40   15.75
   5  -1  16   10.09    7.90
  -5   1 -16    0.23    7.60
   5   0 -16  115.76   15.87
   5   0 -15  194.21   23.23
   5   0 -14  361.40   33.12
   5   0 -13  133.69   16.76
  -5   0  10   10.72    3.23
  -5   0   9  552.80   27.26
  -5   0   8 1355.54   67.35
  -5   0   7   10.89    3.43
  -5   0   6   33.79    4.40
   5   0  -5   70.07    2.30
   5   0  -5   61.67    2.28
  -5   0   5   79.03    7.18
   5   0  -4 1273.60   47.13
  -5   0   4 1305.11   63.59
   5   0  -3 1505.26   60.20
  -5   0   3 1465.28   73.05
  -5   0   3 1395.62   57.77
   5   0  -2 1648.50   69.07
  -5   0   2 1574.33   68.52
  -5   0   2 1503.65   77.67
  -5   0   1  276.19   13.98
  -5   0   1  245.45   16.09
  -5   0  -1 2289.02  120.55
  -5   0  -1 2132.27  114.80
   5   0   2   14.20    5.60
  -5   0  -2   19.05    5.96
   5   0   3  832.24   43.14
  -5   0  -3  870.47   42.59
   5   0   4 1112.37   54.79
  -5   0  -4 1186.28   64.66
   5   0   5 3004.03  173.86
  -5   0  -5 3246.98  192.25
   5   0   6  346.23   19.36
  -5   0  -6  346.96   24.95
   5   0   7  150.66   11.32
  -5   0  -7  153.19   14.41
   5   0   8 1918.31  101.65
   5   0   9  296.07   15.94
   5   0  10   75.22    6.17
  -5   0 -10   72.81   11.56
   5   0  11  455.32   25.72
  -5   0 -11  434.91   35.50
  -5   0 -12   31.29    6.85
  -5   0 -13 1215.68   91.49
   5   0  14 1194.37   91.41
  -5   0 -14 1075.97   80.21
   5   0  15  613.08   56.75
  -5   0 -15  583.17   56.30
   5   0  16   37.88   12.21
  -5   0 -16   33.07   11.36
   5   0  17    8.24    7.91
  -5   0 -17    0.60    7.69
   5   1 -15  146.89   17.86
   5   1 -14   35.63   10.96
   5   1 -13   13.06    7.57
   5   1 -12  230.62   23.58
   5   1 -11 1747.71  118.48
   5   1 -10  288.00   19.63
   5   1 -10  261.29   10.55
   5   1  -9  423.41   24.50
   5   1  -9  342.62   13.13
   5   1  -9  345.57   12.66
  -5  -1   9  393.82   18.03
   5   1  -8   95.68    8.63
   5   1  -8   55.69    3.04
  -5  -1   8   61.25    4.90
   5   1  -7   67.34    3.38
   5   1  -7  110.30    8.56
  -5  -1   7   65.05    5.23
   5   1  -6  551.99   27.96
   5   1  -6  605.54   21.84
  -5  -1   6  581.34   26.55
   5   1  -5  205.83    8.18
   5   1  -5  163.25    6.88
   5   1  -5  187.36   13.37
  -5  -1   5  196.90   11.58
   5   1  -4    5.32    1.44
   5   1  -4    7.36    3.29
   5   1  -4    3.86    1.51
  -5  -1   4    2.69    3.23
   5   1  -3  332.70   18.03
   5   1  -3  312.28   12.57
  -5  -1   3  328.61   17.71
   5   1  -2  664.79   27.98
   5   1  -2  576.86   29.01
  -5  -1   2  674.89   28.01
  -5  -1   2  614.26   31.48
   5   1  -1   78.32    7.79
  -5  -1   1   84.64    7.20
  -5  -1   1  101.36    8.52
   5   1   0  672.17   31.76
   5   1   0  661.33   32.11
  -5  -1   0  707.50   34.60
   5   1   1 4657.73  282.14
  -5  -1  -1 5278.47  322.80
   5   1   2 4515.74  268.33
   5   1   2 4269.29  266.29
  -5  -1  -2 4979.89  305.68
   5   1   3  710.02   35.40
   5   1   3  676.51   37.17
  -5  -1  -3  725.59   42.66
   5   1   4   69.73    7.89
  -5  -1  -4   66.62    8.56
   5   1   5 1888.97   99.74
  -5  -1  -5 2009.04  113.56
   5   1   6  278.42   18.27
  -5  -1  -6  302.23   22.32
   5   1   7 1775.38   94.20
  -5  -1  -7 1744.42  104.19
   5   1   8  607.39   31.73
   5   1   9   41.94    5.43
   5   1  10  557.92   31.95
  -5  -1 -10  625.14   44.27
   5   1  11   58.65    5.71
  -5  -1 -11   53.19    9.28
   5   1  12  836.57   47.38
  -5  -1 -12  827.80   55.91
  -5  -1 -13  692.08   55.79
  -5  -1 -14   42.81    9.73
  -5  -1 -15  188.74   21.90
  -5  -1 -16  280.26   33.31
  -5  -1 -17  116.97   20.03
   5   2 -15  810.30   70.04
   5   2 -14  193.05   24.34
   5   2 -13  233.97   25.48
   5   2 -12  458.66   34.71
   5   2 -11 1544.46   97.05
   5   2 -11 1275.28   60.15
   5   2 -10  158.87   15.20
   5   2 -10  138.29    7.07
   5   2  -9 1307.76   73.42
   5   2  -9 1022.56   44.93
  -5  -2   9 1129.91   52.19
   5   2  -8  305.27   20.61
   5   2  -8  252.42   10.49
  -5  -2   8  291.27   12.82
   5   2  -7  330.68   13.65
   5   2  -7  354.81   21.34
  -5  -2   7  368.99   16.83
   5   2  -6   27.46    4.80
   5   2  -6   20.16    1.90
  -5  -2   6   28.70    3.51
   5   2  -5  493.94   19.73
   5   2  -5  525.44   27.19
  -5  -2   5  529.15   23.77
   5   2  -4    3.97    2.74
   5   2  -4    2.66    1.79
   5   2  -3  447.02   22.53
   5   2  -3  412.56   22.43
   5   2  -3  414.18   17.22
   5   2  -2  645.27   29.66
   5   2  -2  648.38   33.36
  -5  -2   2  726.79   32.79
   5   2  -1   12.93    3.66
  -5  -2   1   14.45    4.14
   5   2   0   11.81    2.93
  -5  -2   0   10.54    4.29
   5   2   1 1020.61   47.51
   5   2   1 1076.66   57.23
  -5  -2  -1 1204.82   56.65
   5   2   2  577.57   26.05
   5   2   2  547.25   28.96
  -5  -2  -2  687.99   37.49
   5   2   3 1289.35   63.21
   5   2   3 1338.21   72.60
  -5  -2  -3 1527.24   84.75
   5   2   4 3205.61  181.25
   5   2   4 3277.49  190.99
  -5  -2  -4 3726.39  225.68
   5   2   5  716.42   36.82
   5   2   5  721.12   41.40
  -5  -2  -5  699.49   41.74
   5   2   6  220.28   14.71
   5   2   6  234.71   16.51
  -5  -2  -6  273.51   18.42
   5   2   7 2683.53  151.60
   5   2   7 2639.30  148.96
  -5  -2  -7 2440.46  148.70
   5   2   8 1333.21   74.71
   5   2   8 1274.98   69.35
   5   2   9  193.03   14.20
   5   2   9  200.29   14.09
  -5  -2  -9  185.94   16.49
   5   2  10  350.33   21.18
   5   2  10  374.20   27.87
  -5  -2 -10  364.08   30.85
   5   2  11  535.67   31.72
   5   2  11  573.44   41.09
  -5  -2 -11  499.24   40.16
   5   2  12  150.56   12.86
   5   2  12  172.85   18.81
  -5  -2 -12  174.76   21.08
   5   2  13  570.83   47.01
   5   2  13  523.12   32.84
  -5  -2 -13  502.41   43.13
   5   2  14  710.70   58.85
  -5  -2 -14  631.44   54.30
   5   2  15   11.19    7.56
  -5  -2 -15    3.96    7.27
   5   2  16   55.55   12.96
  -5  -2 -16   48.09   12.93
   5   2  17   34.04   11.89
  -5  -2 -17   24.11   11.25
   5   3 -15    3.02    6.69
   5   3 -14    4.09    4.83
   5   3 -13    2.94    4.22
   5   3 -12   40.47    4.99
   5   3 -11   61.48    4.78
   5   3 -11   68.44    5.88
   5   3 -10   25.31    2.51
   5   3 -10   25.70    4.70
   5   3 -10   14.91    1.91
   5   3  -9   21.06    3.90
   5   3  -9   10.13    2.26
   5   3  -9   16.23    2.22
   5   3  -8  170.99   13.83
   5   3  -8  153.38    7.74
   5   3  -8  166.80    8.86
   5   3  -7  106.10    5.89
   5   3  -7  119.54    7.11
   5   3  -7  116.91    9.46
   5   3  -6 1699.96   81.26
   5   3  -6 1633.90   77.45
   5   3  -6 1726.81   90.85
   5   3  -5   71.93    6.27
   5   3  -5   71.37    4.90
   5   3  -5   64.05    4.81
   5   3  -4 1195.79   54.95
   5   3  -4 1158.85   52.68
   5   3  -4 1071.07   48.42
   5   3  -3  910.48   40.84
   5   3  -3  912.80   40.86
   5   3  -3  877.80   41.52
   5   3  -2   23.09    2.94
   5   3  -2   26.85    4.12
   5   3  -2   28.57    4.84
   5   3  -1  577.85   23.89
   5   3  -1  621.81   33.16
  -5  -3   1  636.30   33.43
   5   3   0   37.43    3.98
  -5  -3   0   42.91    5.47
   5   3   1  592.95   24.48
  -5  -3  -1  594.27   33.26
   5   3   2  784.26   33.65
   5   3   2  768.57   42.73
  -5  -3  -2  811.97   41.94
   5   3   3   60.99    5.53
   5   3   3   61.12    9.38
  -5  -3  -3   54.83    7.31
   5   3   4   74.49    6.88
   5   3   4   95.48    9.49
  -5  -3  -4   74.27   11.85
   5   3   5   35.62    5.21
   5   3   5   27.19    6.53
  -5  -3  -5   26.46    7.38
   5   3   6  187.53   13.11
   5   3   6  183.66   15.22
  -5  -3  -6  218.68   15.63
   5   3   7 2268.42  127.14
   5   3   7 2176.33  126.23
   5   3   8   10.86    4.84
   5   3   8   16.20    4.65
   5   3   9 1080.90   60.90
   5   3   9 1118.54   64.89
  -5  -3  -9 1141.31   72.78
   5   3  10    6.19    4.33
   5   3  10   10.29    4.83
  -5  -3 -10   13.98    6.23
   5   3  11   66.19   10.19
   5   3  11   71.94    8.33
  -5  -3 -11   62.75   12.13
   5   3  12  113.49   11.69
   5   3  12  177.08   16.32
  -5  -3 -12  119.72   13.64
   5   3  13  199.74   16.62
   5   3  13  203.70   22.26
  -5  -3 -13  184.80   23.68
   5   3  14   44.13   10.63
  -5  -3 -14   35.25   11.08
   5   3  15   45.27   13.14
  -5  -3 -15   49.29   12.13
   5   3  16  145.59   19.55
  -5  -3 -16   79.46   16.96
   5   3  17   88.05   14.89
  -5  -3 -17   43.01   14.11
   5   4 -15   -2.50    4.84
   5   4 -14   -9.45    5.76
   5   4 -12   34.88    4.01
   5   4 -11  732.88   38.18
   5   4 -10   23.33    3.28
   5   4  -9   35.48    3.71
   5   4  -9   42.98    4.93
   5   4  -9   33.75    2.78
   5   4  -8  107.74   10.45
   5   4  -8  100.14    5.85
   5   4  -8  111.39    7.33
   5   4  -7 1387.06   74.74
   5   4  -7 1305.77   61.11
   5   4  -7 1325.40   65.54
   5   4  -6  792.28   37.74
   5   4  -6  712.21   31.32
   5   4  -6  610.35   29.98
   5   4  -5   75.50    6.33
   5   4  -5   72.76    5.57
   5   4  -5   78.34    5.09
   5   4  -4 2551.24  138.02
   5   4  -4 2611.58  137.29
   5   4  -4 2610.79  136.25
   5   4  -3  435.27   21.38
   5   4  -3  422.83   18.36
   5   4  -3  439.14   21.76
   5   4  -2  145.24    6.98
   5   4  -2  144.17   10.40
   5   4  -2  139.99   10.31
   5   4  -1 4330.01  237.92
   5   4  -1 3874.20  238.08
   5   4  -1 4278.48  262.31
   5   4   0 1530.03   82.34
   5   4   0 1501.66   65.48
  -5  -4   0 1656.82   91.00
  -5  -4  -1   13.88    1.50
  -5  -4  -1   16.06    6.15
   5   4   2  983.04   40.12
   5   4   2  952.89   52.48
  -5  -4  -2 1039.98   58.86
   5   4   3 5495.21  331.12
   5   4   3 5078.58  344.56
  -5  -4  -3 5868.83  392.77
   5   4   4 1192.53   62.41
   5   4   4 1260.63   57.04
  -5  -4  -4 1122.61   67.54
   5   4   5 2706.82  159.23
   5   4   5 2660.18  141.30
  -5  -4  -5 2773.35  166.70
   5   4   6  378.63   20.21
   5   4   6  387.90   24.98
  -5  -4  -6  374.78   23.14
   5   4   7  512.22   31.48
   5   4   7  501.11   26.69
   5   4   8  972.15   53.50
   5   4   8  981.05   52.91
   5   4   9 1376.65   82.60
   5   4   9 1444.78   83.89
  -5  -4  -9 1483.55   91.59
   5   4  10   40.54    7.11
   5   4  10   43.83    7.57
  -5  -4 -10   24.39    9.19
   5   4  11  334.19   22.87
   5   4  11  322.73   24.03
  -5  -4 -11  320.69   28.78
   5   4  12   81.03   12.70
   5   4  12   96.57    9.30
  -5  -4 -12   81.76   13.25
   5   4  13    8.11    4.78
   5   4  13   11.45    5.98
  -5  -4 -13    1.67    6.94
   5   4  14   36.60    7.86
   5   4  14   36.79    6.67
  -5  -4 -14   35.15    9.87
   5   4  15   42.50   11.79
  -5  -4 -15   45.09   10.39
   5   4  16  232.98   26.10
  -5  -4 -16  156.60   23.94
   5   4  17   35.35    8.71
  -5  -4 -17   14.19   10.14
   5   5 -12  381.66   23.50
  -5  -5  12  404.34   33.55
   5   5 -11  320.99   20.06
  -5  -5  11  382.67   29.89
   5   5 -10  594.75   32.09
  -5  -5  10  592.29   38.85
   5   5  -9 1114.36   45.65
   5   5  -9 1232.68   63.92
   5   5  -8  168.10   10.92
   5   5  -8  158.50   10.36
   5   5  -8  166.02    7.00
   5   5  -7    5.01    2.51
   5   5  -7    7.39    3.16
   5   5  -7    5.79    1.78
   5   5  -6  399.18   20.14
   5   5  -6  421.33   21.94
   5   5  -6  362.29   16.15
   5   5  -5 1434.96   69.11
   5   5  -5 1450.15   75.66
   5   5  -5 1371.47   65.64
   5   5  -4 1389.18   72.29
   5   5  -4 1345.20   63.95
   5   5  -4 1351.10   62.56
   5   5  -3 4670.07  294.23
   5   5  -3 4336.65  252.13
   5   5  -3 4288.96  260.84
   5   5  -2 3762.09  201.53
   5   5  -2 3945.60  241.56
   5   5  -2 3778.02  223.47
   5   5  -1 3097.81  177.25
   5   5  -1 3131.57  154.32
   5   5  -1 2845.94  141.83
   5   5  -1 2865.51  167.16
   5   5   0 2307.23  130.63
   5   5   0 2506.69  116.15
   5   5   1   30.20    7.94
  -5  -5  -1   27.55    9.39
  -5  -5  -1   32.26    2.49
   5   5   2 1165.95   48.06
  -5  -5  -2 1246.80   66.81
   5   5   3 1354.14   58.28
   5   5   3 1317.61   74.14
  -5  -5  -3 1339.11   75.79
   5   5   4  129.51    7.13
   5   5   4  124.58    9.70
  -5  -5  -4  127.47   13.24
   5   5   5  519.32   28.44
   5   5   5  523.32   23.27
  -5  -5  -5  528.92   30.54
   5   5   6 1275.34   69.52
   5   5   6 1277.05   62.37
   5   5   7   87.83    8.38
   5   5   7   81.07    6.92
   5   5   8  115.99    8.47
   5   5   8  121.12    9.22
  -5  -5  -8  102.10   13.31
   5   5   9 1615.04   96.54
   5   5   9 1512.88   88.00
  -5  -5  -9 1643.75  105.14
   5   5  10 1591.57  100.68
   5   5  10 1607.39   96.71
  -5  -5 -10 1655.06  108.65
   5   5  11   39.97    8.81
   5   5  11   57.09    8.65
  -5  -5 -11   35.41   10.22
   5   5  12  234.35   21.61
   5   5  12  220.57   20.13
  -5  -5 -12  228.06   23.64
   5   5  13  191.42   20.16
   5   5  13  184.56   17.49
  -5  -5 -13  119.94   19.42
   5   5  14  195.82   21.32
   5   5  14  171.61   18.63
  -5  -5 -14  179.81   23.08
   5   5  15   15.53    7.65
  -5  -5 -15   13.27    8.06
   5   5  16   76.86   12.13
  -5  -5 -16   35.98   11.94
   5   5  17   17.65    7.73
  -5  -5 -17    1.64    6.87
   5   6 -12  351.97   22.77
  -5  -6  12  360.01   29.80
   5   6 -11  167.54   12.87
  -5  -6  11  143.96   15.58
   5   6 -10   43.63    6.00
  -5  -6  10   41.20    7.39
   5   6  -9   21.56    5.40
   5   6  -8  383.40   14.93
   5   6  -8  358.90   19.33
   5   6  -8  399.99   23.91
   5   6  -7 1554.28   73.30
   5   6  -7 1759.13   99.66
   5   6  -7 1729.46   92.88
   5   6  -6  153.59    9.64
   5   6  -6  151.09    8.03
   5   6  -6  159.03   12.12
   5   6  -5 1667.50   93.46
   5   6  -5 1705.79   84.42
   5   6  -5 1632.97   79.30
   5   6  -4 1820.67  100.04
   5   6  -4 1608.25   80.32
   5   6  -4 1594.16   77.01
   5   6  -3 1006.21   43.50
   5   6  -3  999.34   55.58
   5   6  -3  944.32   45.45
   5   6  -2  359.98   14.18
   5   6  -2  385.91   14.48
   5   6  -2  388.02   23.54
   5   6  -2  359.11   19.59
   5   6  -1 1448.73   57.64
   5   6  -1 1610.03   86.29
   5   6  -1 1167.99   46.69
   5   6  -1 1488.45   75.81
   5   6   0 4207.77  268.47
   5   6   0 4089.45  214.93
   5   6   1  647.05   34.45
   5   6   2  410.77   14.17
  -5  -6  -2  402.00   27.02
   5   6   3 3735.04  200.84
  -5  -6  -3 4381.83  280.80
   5   6   4  347.15   20.86
   5   6   4  327.09   13.41
  -5  -6  -4  338.54   24.14
   5   6   5   19.04    6.06
   5   6   5   17.49    2.29
  -5  -6  -5   16.47    4.68
   5   6   6 1105.42   52.64
   5   6   6 1126.51   68.10
   5   6   7  115.74   12.33
   5   6   7  115.26    8.66
   5   6   8   75.94    7.09
   5   6   8   77.99    8.43
  -5  -6  -8   75.98    9.00
   5   6   9 1024.89   57.26
   5   6   9 1034.36   69.26
  -5  -6  -9  957.43   65.98
   5   6  10  581.80   41.21
   5   6  10  514.25   33.45
  -5  -6 -10  549.75   41.55
   5   6  11  303.23   23.71
   5   6  11  310.03   27.36
  -5  -6 -11  286.03   27.82
   5   6  12   26.79    7.41
   5   6  12   20.35    5.99
  -5  -6 -12   16.71    8.10
   5   6  13  394.47   31.09
   5   6  13  422.07   34.01
  -5  -6 -13  338.17   32.62
   5   6  14  216.40   21.94
   5   6  14  224.58   21.63
  -5  -6 -14  190.43   22.41
   5   6  15  502.08   40.53
   5   6  15  520.57   44.49
  -5  -6 -15  478.80   44.21
   5   6  16   91.90   14.56
  -5  -6 -16   74.96   12.58
   5   7 -12  539.46   36.30
   5   7 -11  367.63   25.90
   5   7 -10  320.31   23.04
   5   7  -9 1152.22   70.93
   5   7  -8  194.25   11.95
   5   7  -8  189.00   15.66
   5   7  -7    9.74    1.54
   5   7  -7   10.81    2.81
   5   7  -7   13.93    5.08
   5   7  -6   10.74    2.39
   5   7  -6    7.77    1.93
   5   7  -6    8.00    4.77
   5   7  -5   15.79    2.16
   5   7  -5   15.94    5.96
   5   7  -5   18.57    2.47
   5   7  -4   37.05    3.47
   5   7  -4   34.43    3.12
   5   7  -4   38.83    7.08
   5   7  -3  519.23   27.50
   5   7  -3  531.54   21.44
   5   7  -3  592.41   35.29
   5   7  -2   20.50    3.65
   5   7  -2   26.27    6.02
   5   7  -1 2091.78  119.89
   5   7  -1 2179.80  126.19
   5   7   0  115.84   10.95
   5   7   1 2321.69  138.04
   5   7   2  476.59   26.50
   5   7   2  478.11   28.75
   5   7   3   20.52    1.34
  -5  -7  -3   32.96    7.46
   5   7   4  191.79    8.04
  -5  -7  -4  214.42   19.10
   5   7   5  547.12   23.28
   5   7   5  597.35   34.17
   5   7   6  281.79   19.78
   5   7   6  264.14   13.15
   5   7   7  486.09   33.74
   5   7   7  435.98   22.60
  -5  -7  -7  441.64   33.25
   5   7   8  350.75   19.92
   5   7   8  366.65   28.99
  -5  -7  -8  381.30   29.85
   5   7   9   75.31    8.68
   5   7   9   60.28    5.87
  -5  -7  -9   50.28   11.41
   5   7  10   11.32    4.19
   5   7  10   16.07    6.65
  -5  -7 -10    9.16    6.88
   5   7  11   74.77   10.92
   5   7  11   33.71    6.63
  -5  -7 -11   52.16   11.01
   5   7  12   93.04   10.87
   5   7  12   87.22   13.32
  -5  -7 -12   98.55   14.23
   5   7  13  273.68   26.32
   5   7  13  244.33   21.71
  -5  -7 -13  242.46   26.75
   5   7  14   32.99    9.51
   5   7  14   23.71    8.10
  -5  -7 -14   31.28    9.31
   5   7  15   -3.08    5.51
   5   7  15    8.74    6.02
  -5  -7 -15    9.24    6.00
   5   7  16   16.36    7.45
  -5  -7 -16    4.34    7.70
   5   8 -13    0.85    2.65
   5   8 -13   -2.06    3.36
   5   8 -12   81.06   10.81
   5   8 -11  540.01   38.09
   5   8 -10  109.54   11.86
   5   8  -9  107.15    8.53
   5   8  -9  135.38   13.94
   5   8  -8  686.68   40.40
   5   8  -8  739.21   48.96
   5   8  -7  386.84   20.10
   5   8  -7  337.10   14.53
   5   8  -7  418.76   27.88
   5   8  -6   60.60    4.60
   5   8  -6   67.82    4.79
   5   8  -6  109.87   10.10
   5   8  -5  418.58   20.32
   5   8  -5  439.88   20.85
   5   8  -5  488.79   33.61
   5   8  -4  917.98   56.80
   5   8  -4  794.96   39.95
   5   8  -4  759.70   32.61
   5   8  -3  568.47   36.79
   5   8  -3  521.23   27.62
   5   8  -3  504.41   18.46
   5   8  -3  479.28   17.96
   5   8  -2  105.81   10.03
   5   8  -2  130.77   14.36
   5   8  -1  123.41   11.00
   5   8   0 1853.39  108.56
   5   8   1  513.38   34.17
   5   8   1  491.54   30.63
   5   8   2  653.43   41.90
   5   8   2  636.75   38.64
   5   8   3   99.60    9.78
   5   8   3   89.21    8.42
  -5  -8  -4  715.18   45.23
   5   8   5  928.13   56.59
   5   8   5  775.90   32.09
   5   8   6  543.66   37.78
   5   8   6  484.63   21.57
   5   8   7   90.63    6.41
   5   8   7  100.14   10.71
  -5  -8  -7  117.67   14.06
   5   8   8  250.13   20.26
   5   8   8  203.94   12.17
  -5  -8  -8  232.39   22.67
   5   8   9   24.87    4.06
   5   8   9   39.16    8.30
  -5  -8  -9   39.83    8.89
   5   8  10  619.06   47.18
   5   8  10  518.95   31.41
  -5  -8 -10  592.46   46.72
   5   8  11 1160.32   86.11
   5   8  11  995.43   63.97
  -5  -8 -11 1073.25   79.57
   5   8  12  106.97   13.07
   5   8  12   61.11    8.76
  -5  -8 -12   66.04   10.45
   5   8  13   55.06    8.43
   5   8  13   71.76   13.42
  -5  -8 -13   80.94   12.34
   5   8  14  610.53   51.55
   5   8  14  521.43   41.17
  -5  -8 -14  522.06   47.30
   5   8  15  403.08   37.98
   5   8  15  334.97   30.90
  -5  -8 -15  287.71   34.42
   5   9 -12    9.17    5.68
   5   9 -11   -0.94    3.36
   5   9 -11    9.90    5.10
   5   9 -10    9.02    5.08
   5   9 -10   47.74    7.81
   5   9  -9    7.27    3.37
   5   9  -9    6.43    5.72
   5   9  -8   86.77    7.25
   5   9  -8  135.30   13.38
   5   9  -7   46.12    4.29
   5   9  -7   79.85    9.39
   5   9  -6  118.45    6.98
   5   9  -6  118.71    6.78
   5   9  -6  155.87   16.71
   5   9  -5    2.99    2.12
   5   9  -5    1.49    1.32
   5   9  -5   -0.08    4.61
   5   9  -4  103.53    7.96
   5   9  -4   86.79    4.34
   5   9  -4  127.70   13.09
   5   9  -3   30.43    4.11
   5   9  -3   29.80    8.11
   5   9  -2  101.25   12.17
   5   9  -2   76.22    7.34
   5   9  -1  384.19   23.64
   5   9   0  416.74   28.23
   5   9   1 1565.92   94.89
   5   9   1 1452.14   87.96
   5   9   2  872.19   54.81
   5   9   2  921.41   58.92
   5   9   3   37.74    8.06
   5   9   3   35.32    6.75
   5   9   4   40.17    8.49
   5   9   4   32.70    8.25
   5   9   5   34.38    6.98
   5   9   6 2707.51  173.12
   5   9   6 1994.23   98.77
   5   9   7  778.30   54.96
   5   9   7  651.56   30.46
  -5  -9  -7  679.00   52.32
   5   9   8   26.48    8.32
   5   9   8   18.97    2.63
  -5  -9  -8   27.17    6.42
   5   9   9    7.18    5.88
   5   9   9    3.78    2.23
  -5  -9  -9    5.07    5.84
   5   9  10  765.35   44.22
   5   9  10  998.65   72.72
  -5  -9 -10  905.11   62.53
   5   9  11 1128.29   83.93
   5   9  11  874.37   53.76
  -5  -9 -11 1034.28   76.21
   5   9  12 1214.12   80.29
   5   9  12 1505.93  112.26
  -5  -9 -12 1288.39  100.09
   5   9  13  317.91   32.72
   5   9  13  272.25   22.91
  -5  -9 -13  276.05   26.96
   5   9  14  201.90   21.92
   5   9  14  150.05   15.08
  -5  -9 -14  114.38   19.57
   5   9  15    6.86    8.57
   5   9  15    9.62    6.47
  -5  -9 -15   18.23    7.87
   5  10 -11  102.91   13.92
   5  10 -10   20.53    7.82
   5  10  -9   30.91    8.72
   5  10  -8   13.93    7.29
   5  10  -7    8.67    6.90
   5  10  -6  149.67   17.66
   5  10  -5   14.53    2.61
   5  10  -5   22.41    7.40
   5  10  -4   16.05    3.68
   5  10  -4   30.78    7.68
   5  10  -3    0.57    2.33
   5  10  -3   10.85    5.40
   5  10  -2  296.70   20.75
   5  10  -2  354.77   30.09
   5  10  -1   15.28    4.27
   5  10   0 1138.08   74.90
   5  10   0  990.92   63.71
   5  10   1  264.92   22.07
   5  10   1  265.88   22.68
   5  10   2   71.81   11.41
   5  10   2   67.95    9.76
   5  10   3  284.08   25.26
   5  10   3  307.93   28.63
   5  10   4  347.91   29.82
   5  10   4  300.43   27.72
   5  10   5  488.72   39.18
   5  10   6  239.06   25.51
   5  10   7  103.65   15.99
   5  10   7  111.88   15.32
   5  10   8   79.10   12.69
   5  10   8   43.98    3.37
   5  10   9  360.77   32.95
   5  10   9  251.89   15.03
  -5 -10  -9  302.15   29.47
   5  10  10   16.31    3.51
   5  10  10   37.22    7.49
  -5 -10 -10   30.06    8.87
   5  10  11   10.84    3.42
   5  10  11   10.32    6.01
  -5 -10 -11   14.43    7.55
   5  10  12    8.51    6.18
   5  10  12    8.60    3.69
  -5 -10 -12    4.95    7.37
   5  10  13   98.70   12.09
   5  10  13   68.63    8.63
  -5 -10 -13   69.57   14.20
   5  10  14  540.20   50.16
   5  10  14  403.55   31.22
  -5 -10 -14  416.87   42.77
   5  11 -10    2.95    5.93
   5  11  -9 1061.17   85.25
   5  11  -8  200.94   22.86
   5  11  -7  147.23   18.55
   5  11  -6  308.85   31.01
   5  11  -5  446.27   41.27
   5  11  -4  168.89   11.60
   5  11  -4  222.46   23.68
   5  11  -3  242.02   16.74
   5  11  -3  283.07   27.53
   5  11  -2  210.90   15.53
   5  11  -1   65.31    7.92
   5  11   0   88.61   10.31
   5  11   0  100.96   13.54
   5  11   1 1089.79   73.07
   5  11   1 1197.01   83.97
   5  11   2  209.34   20.20
   5  11   2  220.04   23.81
   5  11   3  196.48   18.46
   5  11   3  220.50   24.72
   5  11   4  238.09   24.32
   5  11   4  236.56   25.33
   5  11   5   54.19    8.97
   5  11   5   59.89   10.61
   5  11   6 2304.53  159.36
   5  11   7  855.29   60.58
   5  11   8  100.29   16.85
   5  11   8  107.87   14.10
   5  11   9   81.49   14.07
   5  11   9   68.03   14.20
   5  11  10  997.88   74.71
   5  11  10  853.14   72.84
   5  11  11   10.40    6.44
   5  11  11   23.46    9.60
   5  11  12   65.58   14.93
   5  11  13  251.50   28.01
   5  12  -8   28.30   10.85
   5  12  -7  181.17   21.94
   5  12  -6  245.21   26.75
   5  12  -5   52.06   10.01
   5  12  -4  179.87   12.84
   5  12  -4  240.77   26.14
   5  12  -3  150.74   17.27
   5  12  -3   78.43    8.21
   5  12  -2  361.35   26.28
   5  12  -1  859.67   56.92
   5  12   0  352.86   31.78
   5  12   0  313.70   26.32
   5  12   1  563.20   45.65
   5  12   1  510.16   38.80
   5  12   2   75.81   11.76
   5  12   2   97.51   11.99
   5  12   3   73.33   13.85
   5  12   3   86.60   12.52
   5  12   4  177.10   20.68
   5  12   4  193.03   19.46
   5  12   5  391.81   37.81
   5  12   5  411.48   39.72
   5  12   6  240.53   28.25
   5  12   6  215.92   26.72
   5  12   7  123.46   18.72
   5  12   8   42.65   11.07
   5  12   8   26.18    9.61
   5  12   9    4.46    6.83
   5  12   9    4.13    6.45
   5  12  10  422.08   42.38
   5  12  10  357.30   37.63
   5  12  11  473.00   42.39
   5  12  11  360.20   39.07
   5  12  12  119.97   18.08
   5  12  12   74.46   15.86
   5  13  -7   13.19    9.64
   5  13  -6  277.29   33.50
   5  13  -5  339.92   37.86
   5  13  -4  233.35   27.60
   5  13  -3  135.09   12.37
   5  13  -3  198.65   20.29
   5  13  -2   11.86    4.69
   5  13  -1  105.56   12.35
   5  13  -1  144.41   15.93
   5  13   0  267.89   23.54
   5  13   0  280.67   27.98
   5  13   1  535.63   44.62
   5  13   1  663.56   53.07
   5  13   2   81.35   12.77
   5  13   2   79.35   15.60
   5  13   3   11.63    7.64
   5  13   3   10.33    6.14
   5  13   4   15.34    7.77
   5  13   4    5.20    8.50
   5  13   5  155.99   19.62
   5  13   5  178.70   23.27
   5  13   6  233.06   28.61
   5  13   6  238.53   30.69
   5  13   7  199.12   26.06
   5  13   7  197.55   26.03
   5  13   8   54.65   13.25
   5  13   9   19.80    9.00
   5  13   9    4.12    8.80
   5  13  10   57.02   12.25
   5  13  10   24.55   12.30
   5  13  11   23.87   11.12
   5  13  11   14.58    9.61
   5  14  -5  303.20   37.48
   5  14  -4   22.20   11.19
   5  14  -2    5.00    4.16
   5  14  -1   77.00   13.18
   5  14  -1  201.79   20.43
   5  14   0   59.88   10.50
   5  14   0   71.43   14.90
   5  14   1   63.51   13.89
   5  14   1   49.79   10.52
   5  14   2   36.44    9.79
   5  14   2   46.36   12.65
   5  14   3  419.08   44.41
   5  14   3  389.24   38.37
   5  14   4   11.42    8.44
   5  14   4   27.97   10.54
   5  14   5   -0.64    4.86
   5  14   5    7.07    6.68
   5  14   6    2.48    6.49
   5  14   6    1.46    6.59
   5  14   7  223.68   23.28
   5  14   7   59.19   20.47
   5  14   8   -0.25    7.11
   5  14   8    4.84    6.83
   5  14   9   12.13    7.15
   5  15  -1   38.06    9.38
   5  15  -1   68.56   14.74
   5  15   0   39.82   10.19
   5  15   0   66.31   14.17
   5  15   1    4.70    6.40
   5  15   1   12.20    8.61
   5  15   2   -2.45    4.84
   5  15   2    3.53    4.65
   5  15   3    8.03    6.16
   5  15   3   -2.53    7.28
   5  15   4   -0.58    6.77
   5  15   4   14.94    8.69
   5  15   5    8.48    7.49
   5  15   5   -0.15    8.44
   5  15   6   11.82    7.27
   5  15   6    1.12    8.74
   5  15   7   13.29    9.58
   5  15   7    7.08    9.27
  -6  13   5   23.19   11.55
  -6  13   4   52.36   13.87
  -6  13   3   66.02   14.38
  -6  13   2   88.00   16.59
  -6  13   1   57.52   13.46
  -6  13   0   21.45    9.35
  -6  13   0   26.23    8.13
  -6  13  -1   14.18    7.52
  -6  13  -1    9.22    7.00
  -6  13  -2   41.71    9.64
  -6  13  -2   45.79   11.83
  -6  13  -3   49.26   18.20
  -6  13  -3  185.99   16.49
  -6  12   7   23.34   11.43
  -6  12   5  787.64   69.86
  -6  12   4  667.27   60.42
  -6  12   3  321.07   34.36
  -6  12   2  715.17   53.23
  -6  12   1  176.62   21.62
  -6  12   0   20.26    6.63
  -6  12   0   28.81    7.35
  -6  12  -1  963.14   69.74
  -6  12  -1  997.70   69.28
  -6  12  -2  124.50   15.44
  -6  12  -2  146.34   17.51
  -6  12  -3   45.70   11.84
  -6  12  -3   47.07    8.66
  -6  12  -4   28.50    7.45
  -6  12  -4   36.74    8.66
  -6  12  -5   34.75   11.07
  -6  12  -6  165.09   19.92
   6 -11  -9   31.43    8.80
  -6  11   9   18.68    8.96
   6 -11  -8   23.48    9.20
  -6  11   8   29.49    8.69
   6 -11  -7   67.67   13.43
  -6  11   7  118.53   14.36
   6 -11  -6    3.56    5.45
   6 -11  -5  165.93   19.97
   6 -11  -4   30.35    8.11
  -6  11   4   42.87    8.53
   6 -11  -3   20.97    7.21
  -6  11   3   33.73   10.12
   6 -11  -2  547.02   43.09
  -6  11   2  789.12   56.09
   6 -11  -1  777.44   57.15
  -6  11   1 1036.26   71.18
  -6  11   1  957.30   58.19
   6 -11   0  410.98   34.45
  -6  11   0  570.16   42.09
  -6  11   0  530.14   35.08
   6 -11   1  619.49   47.14
  -6  11  -1  739.99   51.75
  -6  11  -1  750.93   49.85
   6 -11   2  263.65   24.19
  -6  11  -2  354.76   28.74
  -6  11  -2  327.32   26.14
   6 -11   3   61.30   10.79
  -6  11  -3   70.51   10.17
  -6  11  -3   71.82   12.57
   6 -11   4  614.53   51.16
  -6  11  -4  900.05   64.17
  -6  11  -4  741.49   47.93
   6 -11   5  520.77   43.27
  -6  11  -5  672.66   40.94
  -6  11  -5  790.42   59.37
   6 -11   6   11.74    7.81
  -6  11  -6   36.63   10.13
   6 -11   7   82.96   13.20
  -6  11  -7  104.15   19.57
  -6  11  -8   41.90   12.72
   6 -10 -11   15.68    8.39
  -6  10  11    9.97    9.74
   6 -10 -10  925.15   74.06
  -6  10  10 1054.02   81.05
   6 -10  -9  534.91   46.30
  -6  10   9  644.33   56.47
   6 -10  -8  951.19   69.94
  -6  10   8 1174.42   87.21
   6 -10  -7  593.78   48.33
  -6  10   7  658.57   49.78
   6 -10  -6   17.99    5.49
  -6  10   6   23.87    9.46
   6 -10  -5 2017.07  138.15
   6 -10  -4 2131.63  143.37
   6 -10  -3   42.92    9.67
  -6  10   3   67.85    8.97
   6 -10  -2   57.87    9.87
  -6  10   2   97.93   11.48
  -6  10   2   43.65    6.61
   6 -10  -1  221.05   21.44
  -6  10   1  271.24   24.18
  -6  10   1  272.47   19.26
   6 -10   0  552.28   41.31
  -6  10   0  703.31   48.14
  -6  10   0  682.10   40.91
   6 -10   1 1085.97   74.56
  -6  10  -1 1352.34   80.83
  -6  10  -1 1354.37   84.07
   6 -10   2  334.98   28.58
  -6  10  -2  378.93   27.01
  -6  10  -2  403.41   29.71
   6 -10   3   13.64    5.75
  -6  10  -3   20.76    6.68
  -6  10  -3    9.93    5.62
   6 -10   4  124.77   15.56
  -6  10  -4  119.02   12.48
  -6  10  -4  150.68   17.23
   6 -10   5  107.86   13.39
  -6  10  -5  143.46   16.00
  -6  10  -5  104.15   11.22
   6 -10   6  588.38   48.15
  -6  10  -6  698.88   41.88
  -6  10  -6  796.54   59.24
   6 -10   7  509.75   46.21
  -6  10  -7  760.28   59.17
   6 -10   8   26.33    9.25
  -6  10  -8   45.39    9.57
   6 -10   9   -1.52    5.60
  -6  10  -9   -3.01    5.02
   6  -9 -12  460.86   46.15
  -6   9  12  538.47   52.32
   6  -9 -11  348.21   36.01
  -6   9  11  402.93   41.33
   6  -9 -10   50.91   12.55
  -6   9  10   62.82   14.65
   6  -9  -9   21.15    9.65
  -6   9   9   40.71    9.30
   6  -9  -8  804.87   60.06
  -6   9   8  879.12   61.66
   6  -9  -7  741.92   50.53
  -6   9   7  835.01   57.24
   6  -9  -6  172.09   19.44
  -6   9   6  185.21   21.50
   6  -9  -5 1892.28  123.78
  -6   9   5 1979.74  132.19
   6  -9  -4  592.04   42.42
   6  -9  -3   26.10    7.18
   6  -9  -2   61.45   10.44
  -6   9   2   91.63   12.27
  -6   9   2   61.48    6.45
   6  -9  -1   14.31    5.40
  -6   9   1   12.25    4.36
  -6   9   1   10.20    6.84
   6  -9   0   26.16    7.31
  -6   9   0   32.04    7.49
  -6   9   0   24.80    5.14
   6  -9   1   43.22    8.09
  -6   9  -1   68.00    9.80
  -6   9  -1   64.59    8.28
   6  -9   2   21.51    6.50
  -6   9  -2   15.15    6.84
  -6   9  -2   25.70    6.59
   6  -9   3  158.86   17.16
  -6   9  -3  167.90   17.52
  -6   9  -3  158.51   15.01
   6  -9   4  284.68   25.91
  -6   9  -4  361.21   24.05
  -6   9  -4  365.93   28.78
   6  -9   5   15.73    6.25
  -6   9  -5   18.71    5.42
  -6   9  -5   13.61    4.85
   6  -9   6   30.42   10.61
  -6   9  -6   75.98   12.64
  -6   9  -6   63.74    7.53
   6  -9   7  753.04   59.37
  -6   9  -7 1015.47   74.28
  -6   9  -7  865.94   47.69
   6  -9   8  138.92   14.95
  -6   9  -8   48.10   14.73
   6  -9   9   -1.50    5.92
  -6   9  -9   14.06    6.94
   6  -9  10   41.18   10.70
  -6   9 -10   44.18   12.61
   6  -9  11   38.23   11.08
  -6   9 -11   35.95   11.63
   6  -8 -12    3.03    5.21
  -6   8  12    4.90    6.61
   6  -8 -11  221.28   27.28
  -6   8  11  247.98   28.26
   6  -8 -10  164.93   20.26
  -6   8  10  135.35   20.98
   6  -8  -9  387.03   34.58
  -6   8   9  432.30   38.19
   6  -8  -8  210.54   22.59
  -6   8   8  234.26   24.74
   6  -8  -7  161.88   18.79
  -6   8   7  190.79   20.06
   6  -8  -6  735.79   52.63
  -6   8   6  823.54   58.15
   6  -8  -5 1158.90   76.73
  -6   8   5 1234.00   82.91
   6  -8  -4    9.55    5.62
  -6   8   4   14.44    6.89
   6  -8  -3   44.13    9.48
  -6   8   3   53.11    4.55
   6  -8  -2    1.00    4.93
  -6   8   2   10.69    5.61
  -6   8   2    5.30    2.61
   6  -8  -1  165.90   16.75
  -6   8   1  146.44   15.23
  -6   8   1  135.61    9.72
   6  -8   0  927.61   54.12
  -6   8   0  944.54   57.01
  -6   8   0  912.41   50.22
   6  -8   1 1244.34   76.96
  -6   8  -1 1211.19   72.55
  -6   8  -1 1190.75   68.50
   6  -8   2  263.60   21.46
  -6   8  -2  256.85   18.90
  -6   8  -2  259.30   19.93
   6  -8   3  414.65   31.43
  -6   8  -3  417.67   26.23
  -6   8  -3  435.34   31.03
   6  -8   4   48.11    8.93
  -6   8  -4   49.20    9.28
  -6   8  -4   43.01    7.42
   6  -8   5   16.22    6.70
  -6   8  -5   24.64    7.37
  -6   8  -5   17.98    5.12
   6  -8   6  455.40   36.06
  -6   8  -6  440.82   25.22
  -6   8  -6  510.87   39.48
   6  -8   7  505.08   37.42
  -6   8  -7  550.32   30.69
  -6   8  -7  625.96   48.78
   6  -8   8   70.23   12.70
  -6   8  -8   87.15   14.89
   6  -8   9   81.07   13.78
  -6   8  -9   94.84   14.12
   6  -8  10  220.47   21.09
  -6   8 -10  102.66   14.43
   6  -8  11   17.83    8.22
  -6   8 -11    8.53    8.86
   6  -8  12   56.38   12.40
  -6   8 -12   31.05   10.02
   6  -7 -13  436.32   39.36
  -6   7  13  454.20   43.60
   6  -7 -12  210.21   22.03
  -6   7  12  228.01   27.67
   6  -7 -11   27.07    9.64
  -6   7  11   24.77    9.09
   6  -7 -10    5.07    4.97
  -6   7  10    8.44    7.24
   6  -7  -9  304.16   24.40
  -6   7   9  314.89   30.74
   6  -7  -8   86.71   12.94
  -6   7   8   87.74   13.73
   6  -7  -7  184.37   16.34
  -6   7   7  185.82   19.62
   6  -7  -6  212.38   20.71
  -6   7   6  213.94   20.89
   6  -7  -5  393.70   25.82
  -6   7   5  408.68   29.78
   6  -7  -4  363.55   23.14
  -6   7   4  361.02   28.09
   6  -7  -3 2551.10  159.67
  -6   7   3 2537.07  161.60
  -6   7   3 2299.37  122.54
   6  -7  -2   17.39    6.33
  -6   7   2   17.47    3.77
   6  -7  -1  301.77   22.76
  -6   7   1  308.58   22.61
  -6   7   1  298.27   17.16
   6  -7   0   -2.42    4.33
  -6   7   0    5.09    3.68
  -6   7   0   14.10    5.07
   6  -7   1  922.73   53.11
  -6   7  -1  903.23   52.34
  -6   7  -1  916.52   49.89
   6  -7   2   87.65   12.47
  -6   7  -2  128.04   11.49
  -6   7  -2  124.62   11.25
   6  -7   3  680.11   44.15
  -6   7  -3  618.95   35.47
  -6   7  -3  641.32   40.24
   6  -7   4  724.36   47.58
  -6   7  -4  680.93   38.25
  -6   7  -4  728.63   46.79
   6  -7   5  112.86   11.76
  -6   7  -5  107.31   10.23
  -6   7  -5  107.34   11.34
   6  -7   6 1646.60  103.02
  -6   7  -6 1556.60   87.54
  -6   7  -6 1742.94  114.06
   6  -7   7 2520.28  176.57
  -6   7  -7 2827.22  189.89
   6  -7   8   93.35   13.94
  -6   7  -8  105.37   15.54
   6  -7   9  107.73   15.68
  -6   7  -9  140.04   17.42
   6  -7  10  400.71   38.08
  -6   7 -10  517.31   46.47
   6  -7  11   63.91   11.19
  -6   7 -11   19.16   11.53
   6  -7  12   47.36   13.18
   6  -7  13  170.20   19.26
   6  -6 -14   21.16   10.24
  -6   6  14   18.59    8.58
   6  -6 -13   63.98   13.96
  -6   6  13   56.72   11.95
   6  -6 -12   87.21   14.82
  -6   6  12   71.60   13.92
   6  -6 -11   18.99    7.89
  -6   6  11    6.99    7.44
   6  -6 -10  152.57   16.49
  -6   6  10  173.08   16.24
   6  -6  -9  244.12   23.96
  -6   6   9  280.00   25.44
   6  -6  -8  129.58   13.33
  -6   6   8  154.46   16.96
   6  -6  -7  894.44   57.35
  -6   6   7  917.07   59.13
   6  -6  -6   65.81    8.47
  -6   6   6   94.61    9.62
   6  -6  -5    0.67    4.31
  -6   6   5    1.96    4.18
   6  -6  -4  540.30   34.77
  -6   6   4  534.03   34.03
   6  -6  -3   19.56    6.11
  -6   6   3   17.60    2.55
   6  -6  -2  629.04   38.73
  -6   6   2  632.98   28.69
   6  -6  -1 1772.50  101.31
  -6   6   1 1720.26   87.82
   6  -6   0  430.80   27.77
  -6   6   0  418.47   26.72
  -6   6   0  419.35   21.52
   6  -6   1  347.28   23.73
  -6   6  -1  357.87   20.86
  -6   6  -1  355.38   22.23
   6  -6   2  254.62   19.90
  -6   6  -2  240.11   16.66
  -6   6  -2  237.31   14.58
   6  -6   3  399.71   27.53
  -6   6  -3  385.87   23.31
  -6   6  -3  389.16   25.44
   6  -6   4   30.58    6.99
  -6   6  -4   26.48    5.79
  -6   6  -4   31.46    5.64
   6  -6   5 1079.77   66.59
  -6   6  -5  999.12   53.44
  -6   6  -5 1030.74   63.86
   6  -6   6  277.44   20.94
  -6   6  -6  295.41   16.39
  -6   6  -6  327.64   26.43
   6  -6   7    7.70    2.96
   6  -6   7    8.45    4.37
  -6   6  -7   11.26    6.33
   6  -6   8  665.55   46.88
  -6   6  -8  741.13   53.90
   6  -6   9   32.08    7.05
  -6   6  -9   29.76    9.70
   6  -6  10   74.20   12.93
  -6   6 -10   97.77   14.77
   6  -6  11   79.42   14.19
  -6   6 -11   91.44   16.34
   6  -6  12  360.20   32.64
   6  -6  13  382.27   40.73
  -6   6 -13  478.67   51.24
   6  -6  14  215.57   23.10
  -6   6 -14   88.90   21.52
   6  -5 -14   84.38   15.63
   6  -5 -13  276.38   29.18
  -6   5  13  258.58   25.14
   6  -5 -12   55.94   12.56
  -6   5  12   55.00   10.49
   6  -5 -11  177.71   20.22
  -6   5  11  146.41   17.56
   6  -5 -10  133.40   14.19
  -6   5  10  125.63   15.10
   6  -5  -9   35.40    9.38
  -6   5   9   59.54    9.37
   6  -5  -8   67.75    8.11
  -6   5   8   79.19   10.67
   6  -5  -7   87.21   10.88
  -6   5   7   97.95   10.86
   6  -5  -6    7.20    5.12
  -6   5   6    6.58    5.46
   6  -5  -5  442.95   29.65
  -6   5   5  457.09   29.63
   6  -5  -4  972.84   56.39
  -6   5   4 1005.30   57.66
  -6   5   4  965.95   38.74
   6  -5  -3  459.45   29.54
  -6   5   3  462.83   25.25
  -6   5   3  441.59   17.77
   6  -5  -2  633.69   37.48
  -6   5   2  644.11   37.31
  -6   5   2  615.56   26.23
   6  -5  -1 5446.81  373.74
  -6   5   1 5280.94  329.59
   6  -5   0 1603.99   92.53
  -6   5   0 1577.25   79.65
   6  -5   1 3838.98  244.59
  -6   5  -1 3814.93  239.76
  -6   5  -1 3848.36  230.54
   6  -5   2  950.00   51.27
  -6   5  -2  922.11   49.56
  -6   5  -2  938.93   49.10
   6  -5   3  848.72   46.23
  -6   5  -3  748.97   40.81
  -6   5  -3  791.89   44.39
   6  -5   4    5.17    3.16
  -6   5  -4    6.80    4.05
  -6   5  -4    0.95    3.01
   6  -5   5  525.17   34.45
  -6   5  -5  488.19   26.50
  -6   5  -5  511.60   33.07
   6  -5   6 3070.41  195.80
  -6   5  -6 2817.27  182.99
   6  -5   7   47.43    5.01
   6  -5   7   44.39    9.33
  -6   5  -7   45.24    7.47
   6  -5   8   19.49    3.63
   6  -5   8   18.73    6.87
  -6   5  -8   18.86    8.03
   6  -5   9  492.98   37.77
  -6   5  -9  549.31   39.66
   6  -5  10   47.02    8.09
  -6   5 -10   45.01   11.57
   6  -5  11  111.02   12.75
   6  -5  12   63.74   14.24
   6  -5  13  140.19   17.45
  -6   5 -13   40.31   14.02
   6  -5  14  249.29   24.46
  -6   5 -14  105.35   21.67
   6  -4 -14   68.07   10.63
   6  -4 -13  864.27   66.45
  -6   4  13  828.66   55.92
   6  -4 -12  975.80   67.64
  -6   4  12  970.47   64.21
   6  -4 -11  162.39   16.03
  -6   4  11  182.55   17.22
   6  -4 -10   -1.13    4.75
  -6   4  10    2.94    4.08
   6  -4  -9  750.16   47.13
  -6   4   9  703.33   44.64
   6  -4  -8 2877.05  184.57
  -6   4   8 2903.38  184.18
   6  -4  -7 3489.24  230.37
  -6   4   7 3563.87  227.94
   6  -4  -6   38.62    6.61
  -6   4   6   66.82    6.83
   6  -4  -5    3.51    4.82
  -6   4   5    9.74    3.67
   6  -4  -4   51.28    8.46
  -6   4   4   60.99    3.11
  -6   4   4   90.13    7.13
   6  -4  -3  121.38   11.74
  -6   4   3  128.54   12.19
  -6   4   3  122.84    5.79
   6  -4  -2  172.78   14.06
  -6   4   2  175.51   13.72
  -6   4   2  185.69    8.66
   6  -4  -1  739.37   38.39
  -6   4   1  741.55   38.11
  -6   4   1  742.28   32.47
   6  -4   0  126.61   11.65
  -6   4   0  128.21    8.44
   6  -4   1  118.99    9.21
  -6   4  -1  113.84   10.47
  -6   4  -1  112.58    9.23
   6  -4   2 2407.92  138.52
  -6   4  -2 2302.07  126.54
  -6   4  -2 2259.19  126.79
   6  -4   3 1864.66  102.97
  -6   4  -3 1836.17   98.86
  -6   4  -3 1828.01  102.19
   6  -4   4   13.37    5.13
  -6   4  -4   15.89    4.20
  -6   4  -4   15.70    3.84
   6  -4   5  485.92   31.67
  -6   4  -5  433.10   23.43
  -6   4  -5  443.69   27.23
   6  -4   6   10.86    3.63
   6  -4   6    9.97    3.93
  -6   4  -6    6.41    3.78
   6  -4   7   70.40    5.39
   6  -4   7   43.35    9.88
  -6   4  -7   59.69    8.55
   6  -4   8  537.70   28.08
   6  -4   8  579.40   37.25
  -6   4  -8  562.09   42.10
   6  -4   9  868.13   59.95
  -6   4  -9  933.33   61.99
   6  -4  10   17.76    5.98
  -6   4 -10    8.63    7.74
   6  -4  11   42.03    8.20
   6  -4  12   57.10    9.51
   6  -4  13  104.39   14.07
  -6   4 -13   26.88   14.02
   6  -4  14   34.76    8.60
  -6   4 -14    6.10   10.98
   6  -4  15   55.00   13.19
  -6   4 -15   20.20   12.87
   6  -3 -15   70.92   15.13
   6  -3 -14    5.40    7.61
   6  -3 -13    4.03    6.68
   6  -3 -12  119.85   16.74
  -6   3  12  146.78   13.28
   6  -3 -11  613.05   46.37
  -6   3  11  590.45   37.51
   6  -3 -10  391.44   31.22
  -6   3  10  374.15   25.95
   6  -3  -9  127.80   12.91
  -6   3   9   98.35   11.03
   6  -3  -8 1185.45   72.78
  -6   3   8 1131.51   65.16
   6  -3  -7  776.54   43.85
  -6   3   7  753.63   43.31
   6  -3  -6 1761.20   98.65
  -6   3   6 1858.23  104.64
   6  -3  -5 6206.53  436.72
  -6   3   5 6349.80  436.08
   6  -3  -4   69.82    6.92
  -6   3   4   77.85    9.05
   6  -3  -3  107.41    8.87
   6  -3  -3  108.48    5.05
  -6   3   3  111.30    5.11
  -6   3   3  109.95    9.51
   6  -3  -2  300.17   20.80
  -6   3   2  333.85   14.23
  -6   3   2  301.44   16.91
   6  -3  -1  159.39   11.13
  -6   3   1  164.80    9.24
  -6   3   1  163.55   13.43
   6  -3   0  721.87   39.76
  -6   3   0  742.13   35.32
   6  -3   1  275.38   19.10
  -6   3  -1  284.73   16.42
   6  -3   2  283.00   18.95
  -6   3  -2  275.51   17.77
  -6   3  -2  273.23   17.31
   6  -3   3  134.44   12.05
  -6   3  -3  129.17   10.13
  -6   3  -3  127.54   11.38
   6  -3   4  436.70   24.04
  -6   3  -4  435.99   26.27
  -6   3  -4  420.79   23.52
   6  -3   5   38.07    5.20
   6  -3   5   46.49    5.82
  -6   3  -5   40.81    8.18
   6  -3   6  128.00    8.97
   6  -3   6  133.55   11.17
  -6   3  -6  138.12   11.37
   6  -3   7  186.60   11.99
   6  -3   7  203.31   18.09
  -6   3  -7  198.31   15.60
   6  -3   8  159.71   10.71
   6  -3   8  173.14   17.26
  -6   3  -8  176.21   15.52
   6  -3   9 3320.94  196.82
   6  -3   9 3463.76  229.61
  -6   3  -9 3222.67  224.84
   6  -3  10  309.01   27.60
  -6   3 -10  282.69   28.90
   6  -3  11  152.51   18.50
   6  -3  12   44.13   11.01
  -6   3 -12   58.38   10.24
   6  -3  13  346.10   32.40
  -6   3 -13  363.07   40.20
   6  -3  14  218.74   23.60
  -6   3 -14   71.78   17.78
   6  -3  15  213.71   22.67
  -6   3 -15   52.36   17.31
   6  -2 -15   46.75   10.06
   6  -2 -14  196.26   20.78
   6  -2 -13  736.79   60.52
   6  -2 -12  493.33   41.46
   6  -2 -11  644.76   46.14
  -6   2  11  606.97   35.55
   6  -2 -10   18.82    6.64
  -6   2  10    9.26    4.43
   6  -2  -9  143.69   12.89
  -6   2   9  134.80   12.13
   6  -2  -8  231.77   16.43
  -6   2   8  229.98   15.67
   6  -2  -7 1860.57  110.41
  -6   2   7 1780.07   99.47
   6  -2  -6  500.36   30.03
  -6   2   6  498.76   27.48
   6  -2  -5 2500.52  138.80
  -6   2   5 2525.08  141.84
   6  -2  -4  807.87   42.15
  -6   2   4  700.64   23.13
  -6   2   4  816.91   41.35
   6  -2  -3  590.81   32.59
   6  -2  -3  480.56   18.00
  -6   2   3  604.64   21.94
  -6   2   3  616.51   33.88
   6  -2  -2 1373.94   72.61
  -6   2   2 1434.24   61.95
  -6   2   2 1299.58   70.79
   6  -2  -1  476.07   24.52
  -6   2   1  465.05   20.44
  -6   2   1  444.47   25.65
   6  -2   0   76.26    7.34
  -6   2   0   79.45    6.52
  -6   2   0  110.79    9.10
   6  -2   1 1234.99   66.13
  -6   2  -1 1298.85   64.19
   6  -2   2 3534.89  214.02
  -6   2  -2 3678.35  216.89
   6  -2   3  559.37   28.65
  -6   2  -3  549.72   28.96
  -6   2  -3  550.19   30.88
   6  -2   4    5.41    3.45
   6  -2   4   12.54    4.16
  -6   2  -4   17.16    4.79
   6  -2   5   13.18    5.51
   6  -2   5   14.02    4.25
  -6   2  -5   15.95    5.38
   6  -2   6  890.14   45.58
   6  -2   6  963.38   55.04
  -6   2  -6  876.93   48.24
   6  -2   7 3138.64  183.36
   6  -2   7 3328.70  203.08
  -6   2  -7 3191.96  205.34
   6  -2   8   93.25    7.78
   6  -2   8  111.46    9.99
  -6   2  -8  107.47   12.83
   6  -2   9   19.31    4.47
   6  -2   9   23.14    6.38
  -6   2  -9   23.97    7.66
   6  -2  10 1081.69   72.75
   6  -2  10  974.49   51.64
   6  -2  11    1.24    4.83
   6  -2  12    7.64    4.53
  -6   2 -12   -0.31    6.46
   6  -2  13   20.92    7.52
  -6   2 -13    5.18    6.68
   6  -2  14  382.57   42.21
  -6   2 -14  393.60   43.32
   6  -2  15  206.43   24.48
  -6   2 -15  151.48   22.16
   6  -2  16  448.73   40.54
  -6   2 -16  183.95   27.09
  -6   1  11 1248.36   68.16
  -6   1  10  643.04   34.95
  -6   1   9 1722.06   96.97
  -6   1   8   24.00    5.27
  -6   1   7 3603.47  218.68
  -6   1   6 2423.77  137.27
  -6   1   4  214.07    6.87
  -6   1   4  305.52   17.57
   6  -1  -3  909.63   35.85
  -6   1   3 1100.76   57.27
  -6   1   3 1160.05   45.08
  -6   1   2 5303.78  304.44
  -6   1   2 4553.59  295.38
  -6   1   1 5727.78  348.79
  -6   1   1 5153.99  342.23
   6  -1   0    8.00    3.67
  -6   1   0    8.09    3.43
  -6   1   0   11.34    4.83
   6  -1   1   11.41    5.38
  -6   1  -1    7.07    3.66
  -6   1  -1   17.84    5.35
   6  -1   2 2219.93  123.90
  -6   1  -2 2416.09  130.85
   6  -1   3 2802.01  156.88
   6  -1   3 2812.20  162.07
  -6   1  -3 2773.94  160.00
   6  -1   4   40.10    6.56
   6  -1   4   40.45    6.06
  -6   1  -4   43.40    7.61
   6  -1   5   92.65    9.12
   6  -1   5  118.39    9.18
  -6   1  -5  129.89   12.33
   6  -1   6  202.51   15.57
   6  -1   6  195.84   14.12
  -6   1  -6  209.04   18.51
   6  -1   7 2211.55  124.19
   6  -1   7 2397.95  137.94
  -6   1  -7 2349.85  146.57
   6  -1   8 1455.24   78.74
   6  -1   8 1605.47   97.20
  -6   1  -8 1625.25   99.65
   6  -1   9 1279.52   75.83
   6  -1   9 1200.91   65.72
  -6   1  -9 1232.13   78.29
   6  -1  10  164.08   15.79
   6  -1  10  105.92    8.06
   6  -1  11   18.07    6.12
   6  -1  11    7.09    3.22
   6  -1  12   66.74   12.97
  -6   1 -12   66.56   13.57
   6  -1  13  225.06   26.33
  -6   1 -13  220.32   26.59
   6  -1  14   63.06   12.01
  -6   1 -14   44.83   12.01
   6  -1  15   85.00   14.08
  -6   1 -15   47.60   12.58
   6  -1  16  363.58   37.13
  -6   1 -16  189.90   28.44
   6   0 -15   43.05   10.10
   6   0 -14  129.99   19.31
   6   0 -13    8.14    7.26
   6   0 -12  162.81   14.66
   6   0 -11  573.06   44.76
   6   0 -10  139.11   12.60
  -6   0  10   81.02    7.44
   6   0  -9   43.94    7.67
  -6   0   9   29.57    5.53
   6   0  -8   42.27    7.90
  -6   0   8   45.68    5.59
  -6   0   7 1533.52   79.84
  -6   0   6  158.72   11.07
   6   0  -5  170.80    5.08
   6   0  -5  246.29    6.76
   6   0  -4  737.52   25.35
   6   0  -4  829.63   27.98
  -6   0   3  787.92   31.49
  -6   0   3  866.97   41.89
  -6   0   2  785.83   41.64
  -6   0   2  692.58   30.75
  -6   0   1  169.48   13.32
  -6   0   1  193.73   10.91
  -6   0   0   84.98    8.21
  -6   0   0   77.05    7.16
  -6   0  -1 2835.78  159.05
   6   0   2  940.76   48.51
  -6   0  -2 1053.08   54.57
   6   0   3   13.20    4.70
  -6   0  -3    6.04    4.83
   6   0   4 1113.55   59.93
  -6   0  -4 1052.23   61.45
   6   0   5  299.09   19.44
  -6   0  -5  295.04   20.59
   6   0   6   35.33    6.04
  -6   0  -6   44.00    8.10
   6   0   7  518.45   28.37
  -6   0  -7  490.38   32.67
   6   0   8 2580.83  146.72
  -6   0  -8 2584.20  164.15
   6   0   9 1112.31   60.86
   6   0  10   33.48    5.34
   6   0  11   98.45    9.63
  -6   0 -11  154.21   16.22
  -6   0 -12   58.02   12.96
  -6   0 -13  209.91   27.61
  -6   0 -14   64.15   14.46
  -6   0 -15  465.05   49.78
  -6   0 -16   14.17    9.46
   6   1 -15  185.42   23.44
   6   1 -14    3.10    6.65
   6   1 -13 1598.23  123.57
   6   1 -12   81.71   13.89
   6   1 -11 1033.43   73.02
   6   1 -10 2096.49  132.34
   6   1  -9   36.33    7.16
  -6  -1   9   25.32    4.03
   6   1  -8  234.17    7.88
   6   1  -8  318.02   21.42
  -6  -1   8  321.13   16.82
   6   1  -7  291.96   16.95
   6   1  -7  243.62    8.66
  -6  -1   7  282.01   15.15
   6   1  -6   59.14    5.84
  -6  -1   6   57.11    6.17
   6   1  -5  695.30   36.83
   6   1  -5  605.51   22.70
  -6  -1   5  696.52   34.85
   6   1  -4  148.03    6.47
   6   1  -4  147.26    6.75
   6   1  -4  154.31   11.52
  -6  -1   4  150.06   10.90
   6   1  -3  247.19   15.21
  -6  -1   3  228.72   10.27
  -6  -1   3  250.79   15.97
   6   1  -2   83.68    8.02
  -6  -1   2   69.41    5.16
  -6  -1   2   74.01    6.47
   6   1  -1  181.64   12.41
  -6  -1   1  212.90   12.62
   6   1   0 1907.35  106.16
   6   1   0 1866.37   97.75
  -6  -1   0 2044.70  106.40
   6   1   1 1208.89   62.20
   6   1   1 1202.78   62.63
  -6  -1  -1 1388.89   71.76
   6   1   2 2401.27  129.00
   6   1   2 2274.27  126.45
  -6  -1  -2 2658.49  148.76
   6   1   3 2842.46  159.16
   6   1   3 2709.60  158.65
  -6  -1  -3 2874.17  170.87
   6   1   4  280.53   17.67
   6   1   4  269.50   16.66
  -6  -1  -4  284.83   21.48
   6   1   5 1468.33   77.40
   6   1   5 1379.45   77.66
  -6  -1  -5 1425.19   81.91
   6   1   6 1543.76   82.08
   6   1   6 1527.66   85.44
  -6  -1  -6 1574.47   93.95
   6   1   7 1855.16  107.42
   6   1   7 1989.83  113.92
  -6  -1  -7 1866.12  116.16
   6   1   8  106.58    9.65
   6   1   8  114.34    9.15
  -6  -1  -8  125.53   12.84
   6   1   9   27.04    7.45
   6   1   9   40.07    5.49
   6   1  10  589.83   36.94
   6   1  10  546.17   30.35
   6   1  11  817.56   47.78
   6   1  11  848.01   54.30
  -6  -1 -11  878.52   64.20
   6   1  12 1236.33   73.78
   6   1  12 1361.99   98.05
  -6  -1 -12 1355.13  100.78
   6   1  13  830.06   59.93
  -6  -1 -13  752.05   62.75
   6   1  14  184.18   21.52
  -6  -1 -14  158.73   23.25
   6   1  15  270.17   25.61
  -6  -1 -15  183.75   28.31
   6   1  16  609.71   57.00
  -6  -1 -16  484.17   52.37
   6   2 -15   20.11    7.98
   6   2 -14   14.60    8.49
   6   2 -13  307.48   32.02
   6   2 -12   15.32    7.75
   6   2 -11  129.54   12.25
   6   2 -10 1093.26   67.66
   6   2 -10  875.98   37.25
   6   2  -9  327.25   23.52
   6   2  -9  250.79   10.27
  -6  -2   9  313.41   15.46
   6   2  -8   33.06    6.37
   6   2  -8   26.56    2.24
  -6  -2   8   23.55    4.38
   6   2  -7  116.92    5.83
   6   2  -7  143.49   12.15
  -6  -2   7  131.34    8.80
   6   2  -6   94.92    8.87
   6   2  -6   85.99    5.02
  -6  -2   6   91.00    6.73
   6   2  -5 1303.32   68.08
   6   2  -5 1195.15   52.13
   6   2  -4   27.52    3.84
   6   2  -4   39.34    3.24
   6   2  -4   32.70    5.64
   6   2  -3  244.33   11.60
   6   2  -3  219.83   14.70
   6   2  -3  233.95   13.49
   6   2  -2   73.13    6.71
   6   2  -2   91.60    7.99
  -6  -2   2   59.70    5.65
   6   2  -1   59.69    5.57
  -6  -2   1   43.05    6.19
   6   2   0  904.28   44.32
  -6  -2   0  954.04   50.21
   6   2   1  459.50   28.75
   6   2   1  511.30   24.37
  -6  -2  -1  534.36   30.75
   6   2   2  391.49   20.77
   6   2   2  404.75   25.39
  -6  -2  -2  449.82   27.56
   6   2   3  728.56   36.55
   6   2   3  673.97   40.07
  -6  -2  -3  819.85   47.65
   6   2   4  532.12   28.66
   6   2   4  533.30   34.01
  -6  -2  -4  554.06   34.85
   6   2   5   69.65    7.16
   6   2   5   58.89    8.36
  -6  -2  -5   64.02    8.09
   6   2   6 1908.06  102.87
   6   2   6 1913.66  110.42
  -6  -2  -6 2077.28  126.71
   6   2   7   66.45    8.00
   6   2   7   74.04    7.97
  -6  -2  -7   78.41   10.87
   6   2   8 1304.75   73.86
   6   2   8 1225.68   69.00
  -6  -2  -8 1284.14   79.40
   6   2   9 2617.69  162.76
   6   2   9 2473.15  151.04
   6   2  10  611.56   38.07
   6   2  10  650.62   44.10
   6   2  11   10.66    4.30
   6   2  11    6.47    5.76
  -6  -2 -11   11.51    7.54
   6   2  12    5.00    3.79
   6   2  12    9.64    6.25
  -6  -2 -12    7.50    7.17
   6   2  13  996.40   59.03
   6   2  13 1156.72   77.62
  -6  -2 -13  971.25   72.56
   6   2  14  569.60   48.96
  -6  -2 -14  477.03   42.21
   6   2  15  168.24   20.98
  -6  -2 -15  143.22   21.38
   6   2  16   57.21   10.52
  -6  -2 -16   32.18   13.33
   6   3 -14   -0.81    5.33
   6   3 -13    7.20    6.85
   6   3 -12  668.64   53.70
   6   3 -11  243.78   20.08
   6   3 -10    3.33    2.01
   6   3 -10    6.09    4.43
   6   3 -10    2.18    1.58
   6   3  -9   26.74    6.78
   6   3  -9   17.48    2.74
   6   3  -9   25.47    2.78
   6   3  -8  346.03   22.41
   6   3  -8  315.79   15.49
   6   3  -8  296.54   12.91
   6   3  -7  432.23   18.76
   6   3  -7  486.36   27.88
   6   3  -7  489.96   23.17
   6   3  -6   20.83    4.42
   6   3  -6   14.18    3.11
   6   3  -6   17.27    2.30
   6   3  -5   46.64    5.77
   6   3  -5   47.42    4.96
   6   3  -5   52.34    3.67
   6   3  -4 3824.92  223.18
   6   3  -4 3691.94  206.94
   6   3  -4 3452.19  203.89
   6   3  -3  556.36   26.18
   6   3  -3  568.17   29.33
   6   3  -3  576.42   26.78
   6   3  -2    6.13    2.70
   6   3  -2    4.99    3.63
   6   3  -1  697.65   32.02
   6   3  -1  688.92   37.94
  -6  -3   1  723.35   37.87
   6   3   0  633.10   29.36
  -6  -3   0  637.76   35.17
   6   3   1 3810.88  218.89
  -6  -3  -1 4190.84  255.37
   6   3   2    4.50    2.72
   6   3   2    7.53    4.49
  -6  -3  -2    9.72    5.11
   6   3   3   44.36    4.99
   6   3   3   45.08    7.08
  -6  -3  -3   46.31    8.57
   6   3   4 1221.87   60.11
   6   3   4 1179.26   63.31
  -6  -3  -4 1270.97   72.90
   6   3   5  299.86   17.64
   6   3   5  275.32   20.70
  -6  -3  -5  283.17   22.03
   6   3   6  196.02   13.95
   6   3   6  179.02   15.01
  -6  -3  -6  210.44   18.83
   6   3   7   65.09    8.02
   6   3   7   69.53    7.07
  -6  -3  -7   45.89    8.70
   6   3   8   49.63    7.30
   6   3   8   47.95    7.06
   6   3   9  305.72   22.30
   6   3   9  310.85   23.03
   6   3  10  973.31   58.88
   6   3  10  973.81   61.77
  -6  -3 -10  966.05   64.69
   6   3  11  148.33   14.28
   6   3  11  161.26   17.10
  -6  -3 -11  139.07   16.19
   6   3  12  243.27   20.95
   6   3  12  254.21   24.56
  -6  -3 -12  249.67   28.19
   6   3  13   80.47   10.25
   6   3  13   98.99   13.38
  -6  -3 -13   75.98   15.46
   6   3  14  379.96   37.11
  -6  -3 -14  324.38   36.36
   6   3  15  113.68   17.43
  -6  -3 -15   83.45   17.06
   6   3  16  165.56   20.38
  -6  -3 -16   55.46   18.14
   6   4 -14   10.02    7.49
   6   4 -13    7.39    6.57
   6   4 -12  610.12   49.34
   6   4 -11  488.15   35.04
   6   4 -11  386.04   19.30
   6   4 -10   84.54    9.61
   6   4 -10   54.83    4.18
   6   4 -10   48.24    4.32
   6   4  -9  329.41   15.97
   6   4  -9  295.05   14.95
   6   4  -9  332.43   23.89
   6   4  -8  332.23   21.84
   6   4  -8  315.93   15.56
   6   4  -8  293.84   14.59
   6   4  -7 1134.00   62.54
   6   4  -7 1112.81   53.72
   6   4  -7 1071.83   52.47
   6   4  -6  363.04   18.38
   6   4  -6  352.35   17.86
   6   4  -6  378.02   20.46
   6   4  -5   68.20    5.89
   6   4  -5   59.72    5.01
   6   4  -5   59.63    5.09
   6   4  -4    6.99    2.63
   6   4  -4    3.41    2.45
   6   4  -4    3.89    2.40
   6   4  -3 2356.84  126.69
   6   4  -3 2355.07  130.30
   6   4  -3 2296.45  118.06
   6   4  -2 3186.70  170.48
   6   4  -2 3172.54  182.79
   6   4  -2 3016.09  177.92
   6   4  -1 1729.96   82.25
   6   4  -1 1741.34   96.34
  -6  -4   1 1819.04  100.41
   6   4   0  582.15   24.83
   6   4   0  606.27   35.87
  -6  -4   0  622.19   36.47
   6   4   1  123.05    6.82
  -6  -4  -1  132.08   13.55
   6   4   2 2071.39  100.79
   6   4   2 2010.44  115.59
  -6  -4  -2 2092.35  117.10
   6   4   3 1734.04   83.93
   6   4   3 1667.35   91.37
  -6  -4  -3 1721.53  101.31
   6   4   4 6277.27  404.38
   6   4   4 6029.96  424.40
  -6  -4  -4 5784.90  407.69
   6   4   5 1036.92   60.70
   6   4   5 1090.23   52.88
  -6  -4  -5  983.98   56.56
   6   4   6  358.62   19.98
   6   4   6  361.88   22.36
  -6  -4  -6  355.72   26.26
   6   4   7    8.03    3.89
   6   4   7   15.14    5.18
  -6  -4  -7    9.81    5.76
   6   4   8  839.08   47.48
   6   4   8  861.22   48.17
   6   4   9  934.60   58.94
   6   4   9  908.29   54.82
   6   4  10   -2.04    3.85
   6   4  10    4.01    3.66
  -6  -4 -10    3.07    3.90
   6   4  11   12.10    5.90
   6   4  11    9.68    5.37
  -6  -4 -11   10.77    7.09
   6   4  12  232.39   20.18
   6   4  12  232.22   23.24
  -6  -4 -12  187.79   23.70
   6   4  13    6.78    5.40
   6   4  13   10.98    6.27
  -6  -4 -13    7.84    5.41
   6   4  14  102.71   11.75
   6   4  14  114.55   15.99
  -6  -4 -14   91.41   16.01
   6   4  15    5.23    5.74
  -6  -4 -15    8.58    7.63
   6   4  16  105.04   16.58
  -6  -4 -16   67.31   15.78
   6   5 -14   74.90   14.33
   6   5 -13  315.91   30.73
   6   5 -12   10.14    6.32
   6   5 -11  150.95   15.24
   6   5 -11  129.16    9.60
   6   5 -10  985.28   63.93
   6   5 -10  917.36   51.04
   6   5  -9  946.97   49.23
   6   5  -9  892.59   40.36
   6   5  -9 1037.99   59.29
   6   5  -8  253.69   12.25
   6   5  -8  307.46   17.89
   6   5  -8  264.31   15.67
   6   5  -7   83.40    6.33
   6   5  -7   69.67    5.99
   6   5  -7   55.68    4.51
   6   5  -6   39.65    4.62
   6   5  -6   40.70    3.69
   6   5  -5 1621.34   81.74
   6   5  -5 1521.00   82.75
   6   5  -5 1559.74   79.96
   6   5  -4 1164.00   55.34
   6   5  -4 1166.30   59.94
   6   5  -4 1139.55   57.15
   6   5  -3   45.36    3.84
   6   5  -3   56.25    5.28
   6   5  -3   59.48    6.21
   6   5  -2 2076.54  100.89
   6   5  -2 2112.50  119.09
   6   5  -2 2051.64  113.87
   6   5  -1   17.58    4.75
   6   5  -1   15.62    2.53
   6   5  -1   12.28    4.55
   6   5   0   12.03    1.67
   6   5   0    7.67    4.82
  -6  -5   0   13.48    5.38
   6   5   1  637.63   26.75
   6   5   1  614.41   36.13
  -6  -5  -1  671.45   37.44
   6   5   2  345.14   14.54
  -6  -5  -2  346.12   21.68
   6   5   3  369.74   24.55
   6   5   3  384.27   16.47
  -6  -5  -3  368.22   25.71
   6   5   4  361.87   16.63
   6   5   4  324.28   22.77
  -6  -5  -4  325.60   20.54
   6   5   5  192.47   10.36
   6   5   5  190.40   14.11
  -6  -5  -5  187.43   15.14
   6   5   6 2877.67  175.54
   6   5   6 2865.27  160.95
  -6  -5  -6 3000.60  191.34
   6   5   7  260.01   18.28
   6   5   7  266.85   17.10
   6   5   8  166.94   16.14
   6   5   8  167.45   12.75
   6   5   9   53.10    9.10
   6   5   9   60.89    7.29
  -6  -5  -9   43.89   11.96
   6   5  10 1167.65   74.26
   6   5  10 1156.18   69.97
  -6  -5 -10 1116.51   80.86
   6   5  11    5.52    4.84
   6   5  11    4.08    3.93
  -6  -5 -11   13.59    6.65
   6   5  12  866.97   62.86
   6   5  12  869.88   59.62
  -6  -5 -12  975.64   73.64
   6   5  13  702.39   47.52
   6   5  13  700.83   52.41
  -6  -5 -13  730.36   57.70
   6   5  14   95.44   13.02
   6   5  14  119.80   15.52
  -6  -5 -14   65.15   15.65
   6   5  15   42.20   10.58
  -6  -5 -15   35.07   10.96
   6   5  16  199.63   23.25
  -6  -5 -16  157.12   23.24
   6   6 -13   24.23    7.36
   6   6 -12  120.91   14.09
   6   6 -11   35.68    6.62
   6   6 -11   33.18    4.92
   6   6 -10   54.66    7.34
   6   6 -10   46.82    5.72
   6   6  -9   31.69    5.36
   6   6  -9   32.52    5.51
   6   6  -8  940.94   50.27
   6   6  -8  880.99   49.78
   6   6  -8  844.35   38.03
   6   6  -7  459.01   24.02
   6   6  -7  419.19   25.30
   6   6  -7  409.97   18.76
   6   6  -6    4.91    3.87
   6   6  -6    4.10    1.95
   6   6  -6    5.76    2.26
   6   6  -5  248.43   13.25
   6   6  -5  240.42   16.45
   6   6  -5  230.95   11.93
   6   6  -4   17.01    4.80
   6   6  -4   21.47    2.52
   6   6  -4   19.72    3.00
   6   6  -3 1198.77   53.43
   6   6  -3 1283.38   70.16
   6   6  -3 1197.37   62.44
   6   6  -2 2451.82  120.98
   6   6  -2 2643.75  155.60
   6   6  -2 2305.07  135.69
   6   6  -1 2979.29  180.59
   6   6  -1 2705.96  163.60
   6   6  -1 2854.17  144.13
   6   6   0  259.43    9.87
   6   6   0  247.63   17.47
   6   6   0  222.44    8.92
   6   6   0  265.78   20.31
   6   6   1  875.81   34.89
   6   6   1  848.24   48.74
  -6  -6  -1  809.59   46.10
   6   6   2  198.06    8.47
  -6  -6  -2  203.34   18.78
  -6  -6  -2  186.55    8.20
   6   6   3 1484.31   67.24
  -6  -6  -3 1436.45   86.20
   6   6   4  407.21   18.14
   6   6   4  410.86   24.49
  -6  -6  -4  375.55   27.08
   6   6   5  150.81   12.18
   6   6   5   99.94    6.40
  -6  -6  -5  115.59   13.17
   6   6   6  173.04   15.40
   6   6   6  153.50    9.13
  -6  -6  -6  166.20   14.81
   6   6   7   88.59    6.15
   6   6   7   81.39   11.04
   6   6   8   80.17    8.56
   6   6   8   80.05    7.28
   6   6   9  522.02   31.95
   6   6   9  566.73   37.26
  -6  -6  -9  571.85   44.11
   6   6  10 1205.61   73.68
   6   6  10 1278.30   85.96
  -6  -6 -10 1220.83   87.95
   6   6  11 1511.60  105.08
   6   6  11 1388.01   90.50
  -6  -6 -11 1488.03  100.21
   6   6  12   24.13    6.17
   6   6  12   21.70    6.54
  -6  -6 -12   14.54    8.73
   6   6  13  126.89   13.96
   6   6  13  125.78   13.77
  -6  -6 -13   82.03   16.87
   6   6  14   26.63    7.89
   6   6  14   25.38    7.59
  -6  -6 -14    8.04    9.28
   6   6  15  199.47   21.76
   6   6  15  201.50   23.27
  -6  -6 -15  195.50   24.66
   6   6  16  241.71   21.63
  -6  -6 -16   23.78   15.46
   6   7 -13   39.65    8.93
   6   7 -12   19.39    5.86
   6   7 -11  103.03   11.13
   6   7 -11  107.22   10.10
   6   7 -10 1009.46   61.15
   6   7 -10  980.86   61.35
   6   7  -9  344.09   21.92
   6   7  -9  366.46   24.57
   6   7  -8   83.93    7.84
   6   7  -8   87.36    9.34
   6   7  -7    2.55    1.39
   6   7  -7    4.31    3.38
   6   7  -7    6.06    2.23
   6   7  -6   83.19    6.51
   6   7  -6  109.62    9.88
   6   7  -5  822.93   39.44
   6   7  -5  841.46   51.95
   6   7  -5  806.90   39.26
   6   7  -4    8.69    4.82
   6   7  -4    6.35    1.83
   6   7  -4   11.54    2.39
   6   7  -3   17.03    1.86
   6   7  -3   24.52    5.78
   6   7  -3   20.18    3.31
   6   7  -2  678.39   27.04
   6   7  -2  713.32   44.57
   6   7  -2  643.38   35.75
   6   7  -1  715.99   27.88
   6   7  -1  810.59   30.38
   6   7  -1  799.82   46.81
   6   7  -1  798.26   44.57
   6   7   0  111.50   11.05
   6   7   0  139.82   11.09
   6   7   1  131.64    4.58
   6   7   1  209.53   14.55
   6   7   2  120.74   11.67
   6   7   2  103.15    4.17
  -6  -7  -2  103.40   11.05
   6   7   3 1101.86   44.59
  -6  -7  -3 1258.13   72.27
   6   7   4  558.70   23.43
  -6  -7  -4  615.95   41.31
   6   7   5   21.08    5.94
   6   7   5   10.39    2.39
  -6  -7  -5   14.93    6.70
   6   7   6   13.12    5.45
   6   7   6   10.09    2.69
  -6  -7  -6    8.72    4.86
   6   7   7  505.01   36.68
   6   7   7  468.95   24.98
   6   7   8  185.33   15.61
   6   7   8  163.24   11.77
  -6  -7  -8  164.00   16.64
   6   7   9  142.25   15.67
  -6  -7  -9  156.78   17.79
   6   7  10  162.11   15.51
   6   7  10  133.06   11.78
  -6  -7 -10  208.70   20.24
   6   7  11   24.05    7.91
   6   7  11   22.13    5.05
  -6  -7 -11   17.70    8.50
   6   7  12   97.99   11.31
   6   7  12  116.39   13.84
  -6  -7 -12   95.10   16.38
   6   7  13  320.85   30.45
   6   7  13  272.57   23.32
  -6  -7 -13  291.35   30.76
   6   7  14  312.42   29.73
   6   7  14  304.77   26.81
  -6  -7 -14  297.28   29.29
   6   7  15   21.64    8.53
  -6  -7 -15   15.60    9.23
   6   7  16  175.42   21.20
  -6  -7 -16  125.71   22.75
   6   8 -12   38.89    7.32
   6   8 -12   27.64    6.14
   6   8 -11  107.18   11.04
   6   8 -11   71.48    9.50
   6   8 -10   14.91    5.41
   6   8 -10   14.85    3.89
   6   8  -9  333.97   21.33
   6   8  -9  421.78   27.87
   6   8  -8 1303.38   74.84
   6   8  -8 1286.60   83.24
   6   8  -7  253.92   11.86
   6   8  -7  302.09   23.65
   6   8  -7  272.16   14.77
   6   8  -6   36.76    3.46
   6   8  -6   35.95    7.88
   6   8  -6   33.79    3.21
   6   8  -5    6.36    2.23
   6   8  -5    7.23    1.79
   6   8  -5   11.28    5.37
   6   8  -4  176.92   11.06
   6   8  -4  191.47   17.20
   6   8  -4  153.49    6.94
   6   8  -3  390.39   22.61
   6   8  -3  380.16   15.24
   6   8  -3  433.03   30.93
   6   8  -2   88.20    9.50
   6   8  -2  127.86   13.46
   6   8  -1 2951.77  184.01
   6   8  -1 3054.09  204.94
   6   8   0  884.39   50.69
   6   8   1   70.55    9.66
   6   8   2   59.29    9.13
   6   8   2   65.25   10.68
   6   8   3  122.67   14.15
  -6  -8  -4 1472.36   91.36
   6   8   5  807.15   35.02
   6   8   5  951.99   56.80
  -6  -8  -5  900.67   63.48
   6   8   6  741.86   50.92
   6   8   6  639.99   29.54
   6   8   7 1154.24   78.61
   6   8   7  941.04   46.86
   6   8   8   25.91    8.56
   6   8   8   25.20    3.46
  -6  -8  -8   36.84    9.36
   6   8   9  177.53   19.13
   6   8   9  131.29    9.66
  -6  -8  -9  154.28   16.84
   6   8  10 1324.86   88.59
   6   8  10 1134.93   66.90
  -6  -8 -10 1227.22   90.75
   6   8  11 1540.44  113.38
   6   8  11 1285.27   80.30
  -6  -8 -11 1416.39   98.81
   6   8  12   53.88    9.74
   6   8  12   47.24    7.95
  -6  -8 -12   64.27   11.63
   6   8  13   61.54    8.97
   6   8  13   61.40   12.48
  -6  -8 -13   69.98   12.99
   6   8  14   21.74    8.61
   6   8  14   16.32    6.41
  -6  -8 -14   14.27    8.73
   6   8  15  137.77   17.95
   6   8  15  120.66   15.48
  -6  -8 -15  130.45   18.07
   6   9 -11    6.07    5.43
   6   9 -10    8.63    5.90
   6   9  -9   34.18    7.50
   6   9  -9   23.90    4.69
   6   9  -8  401.32   23.62
   6   9  -7   32.37    3.58
   6   9  -7   55.16    9.13
   6   9  -6   37.23    3.74
   6   9  -6   48.69    3.89
   6   9  -6   82.28    9.45
   6   9  -5   84.23    6.94
   6   9  -5   88.21    5.45
   6   9  -5  166.80   14.53
   6   9  -4  389.71   22.27
   6   9  -4  359.42   15.16
   6   9  -4  445.01   33.35
   6   9  -3  174.01   12.92
   6   9  -3  206.52   20.61
   6   9  -2   61.43    7.17
   6   9  -2   73.38   11.06
   6   9  -1  424.56   28.67
   6   9  -1  432.11   33.39
   6   9   0  354.43   25.73
   6   9   1  593.89   40.64
   6   9   2  129.33   13.17
   6   9   2  120.31   15.05
   6   9   3   30.54    6.21
   6   9   3   30.04    9.53
   6   9   4  141.87   11.81
   6   9   4  124.24   15.11
  -6  -9  -5  207.07   22.34
   6   9   6  397.18   32.06
   6   9   6  281.22   12.57
   6   9   7  699.28   50.95
   6   9   7  538.24   26.19
   6   9   8   57.53    9.63
   6   9   8   31.24    3.20
  -6  -9  -8   49.37    8.36
   6   9   9  527.14   38.84
   6   9   9  409.07   23.16
  -6  -9  -9  469.26   41.43
   6   9  10  418.37   25.52
   6   9  10  622.14   48.57
  -6  -9 -10  603.48   47.78
   6   9  11  256.58   28.25
   6   9  11  227.44   17.33
  -6  -9 -11  251.05   28.69
   6   9  12  662.88   44.54
   6   9  12  829.62   67.06
  -6  -9 -12  732.89   63.98
   6   9  13  636.47   50.20
   6   9  13  520.04   37.95
  -6  -9 -13  589.79   53.44
   6   9  14  287.97   30.83
   6   9  14  212.02   21.31
  -6  -9 -14  227.87   30.03
   6   9  15   19.62    8.17
   6   9  15   35.28   11.09
  -6  -9 -15   28.83   11.14
   6  10 -10    5.03    5.62
   6  10  -9   10.11    6.66
   6  10  -8    6.41    6.11
   6  10  -7  172.51   18.88
   6  10  -6   17.05    7.97
   6  10  -5   74.16    6.52
   6  10  -5  131.16   14.02
   6  10  -4  370.28   23.35
   6  10  -4  443.39   32.83
   6  10  -3   67.57    7.91
   6  10  -3  105.66   12.82
   6  10  -2  449.96   30.92
   6  10  -2  492.83   40.49
   6  10  -1 1575.10  101.44
   6  10  -1 1787.04  123.76
   6  10   0  657.99   43.48
   6  10   1  766.10   48.30
   6  10   2   -4.93    4.31
   6  10   2    1.49    3.77
   6  10   3  576.61   42.70
   6  10   3  495.12   37.66
   6  10   4  975.67   69.11
   6  10   4  932.12   64.92
   6  10   5 1593.53  114.46
   6  10   6  174.29   18.50
   6  10   7  848.03   63.82
  -6 -10  -7  733.36   60.64
   6  10   8   57.31   14.18
  -6 -10  -8   81.06   11.45
   6  10   9  416.36   37.55
   6  10   9  284.26   16.59
  -6 -10  -9  321.89   33.47
   6  10  10  211.17   21.09
   6  10  10  135.51   10.56
  -6 -10 -10  253.07   23.98
   6  10  11   29.75    7.53
   6  10  11   16.04    3.71
  -6 -10 -11   20.69    9.95
   6  10  12   90.06   13.75
   6  10  12   39.64    6.11
  -6 -10 -12   67.83   12.24
   6  10  13 1020.03   88.53
  -6 -10 -13  843.59   77.52
   6  10  14   31.02   11.54
  -6 -10 -14   12.79   10.34
   6  11  -9  198.79   23.56
   6  11  -8  450.10   41.98
   6  11  -7   49.32   10.94
   6  11  -6  165.16   20.16
   6  11  -5  139.47   14.33
   6  11  -4   69.12   11.93
   6  11  -4   54.56    6.38
   6  11  -3   51.00    6.22
   6  11  -3   60.83   12.13
   6  11  -2 2180.44  142.67
   6  11  -2 2521.43  184.54
   6  11  -1   14.06    5.53
   6  11   0    7.57    5.08
   6  11   1  149.83   14.67
   6  11   1  135.49   15.34
   6  11   2  179.56   19.69
   6  11   2  197.81   18.32
   6  11   3 1086.28   80.17
   6  11   4  204.52   19.81
   6  11   4  201.32   24.39
   6  11   5  562.09   46.14
   6  11   5  510.27   41.06
   6  11   6 1447.87  108.46
   6  11   7  195.71   26.33
   6  11   8  197.61   21.50
   6  11   8  188.20   21.90
   6  11   9    7.07    6.40
   6  11   9   13.08    7.27
   6  11  10  152.91   17.99
   6  11  11   90.30   17.31
  -6 -11 -11  110.88   17.64
   6  11  12   87.04   15.76
  -6 -11 -12   61.41   15.12
   6  11  13  311.55   36.89
  -6 -11 -13  228.66   27.33
   6  12  -8   42.24   11.48
   6  12  -7  251.32   29.20
   6  12  -6  275.94   30.22
   6  12  -5   49.47    9.77
   6  12  -4   13.24    4.02
   6  12  -4   15.37    9.21
   6  12  -3    9.55    3.50
   6  12  -3    0.59    7.27
   6  12  -2  534.59   36.54
   6  12  -2  687.10   57.21
   6  12  -1  971.77   65.21
   6  12   0  413.78   32.79
   6  12   1 1319.46   86.95
   6  12   1 1326.22  106.39
   6  12   2  156.55   20.00
   6  12   2  225.08   23.45
   6  12   3  271.26   26.24
   6  12   3  267.05   25.90
   6  12   4   97.56   15.40
   6  12   4  100.46   16.79
   6  12   5   72.64   11.83
   6  12   5   79.71   13.92
   6  12   6   37.41   11.51
   6  12   6   33.13    8.97
   6  12   7   84.12   15.25
   6  12   8    2.93    6.75
   6  12   9   62.80   12.82
   6  12   9   33.75   11.94
   6  12  10    3.70    6.02
   6  12  10    8.61    6.39
   6  12  11   23.69    9.97
   6  12  11   12.70    7.14
   6  12  12   58.14   14.89
   6  12  12   41.66   13.13
   6  13  -6    9.76    9.09
   6  13  -5   19.13   10.14
   6  13  -4   67.45   14.20
   6  13  -3  102.78   11.70
   6  13  -3  175.57   16.82
   6  13  -2   65.57    9.68
   6  13  -2   81.57   15.80
   6  13  -1  150.20   16.29
   6  13   0    0.95    3.94
   6  13   1   19.33    7.16
   6  13   1   13.41    7.63
   6  13   2  146.13   16.31
   6  13   2  124.46   15.78
   6  13   3   13.21    6.43
   6  13   3   17.96    9.03
   6  13   4  210.70   20.85
   6  13   4  141.90   23.65
   6  13   5  153.54   17.87
   6  13   5  153.60   21.06
   6  13   6  148.02   17.66
   6  13   6  150.59   17.73
   6  13   7   19.77    9.90
   6  13   7   17.97   10.15
   6  13   8   69.37   17.69
   6  13   9   74.89   16.25
   6  13   9   69.22   13.94
   6  13  10  117.81   18.98
   6  13  10   89.54   16.41
   6  13  11   88.70   18.57
   6  13  11   77.79   16.08
   6  14  -4    9.32    9.52
   6  14  -3   13.17    9.81
   6  14  -2   15.85    5.81
   6  14  -1  106.27   13.29
   6  14   0   12.74    8.08
   6  14   0   51.04   11.35
   6  14   1  156.18   19.31
   6  14   1  203.75   24.16
   6  14   2   75.78   16.29
   6  14   2   65.76   13.55
   6  14   3   11.73    8.90
   6  14   3   21.44    7.89
   6  14   4    9.82    6.05
   6  14   4    7.83    6.53
   6  14   5   -4.29    6.55
   6  14   5   -1.27    5.28
   6  14   6   15.48    7.21
   6  14   6    6.72    9.60
   6  14   7  200.81   25.25
   6  14   7  108.97   21.63
   6  14   8   18.20    7.40
   6  14   8   -5.09    9.05
   6  14   9   33.68   12.89
   6  15  -1   35.14    9.44
   6  15   0  254.54   26.90
   6  15   0  343.40   41.64
   6  15   1   45.13   12.36
   6  15   1  106.80   14.62
   6  15   2   58.23   13.13
   6  15   2   89.04   17.51
   6  15   3    3.28    5.34
   6  15   3   -2.51    7.07
   6  15   4    9.68    7.81
   6  15   4    6.79    8.99
   6  15   5   24.87   10.74
   6  15   5   28.88   12.77
   6  15   6   -3.03    6.59
   6  15   6  -10.59    8.82
  -7  12   5   63.13   12.36
  -7  12   4  123.22   17.34
  -7  12   3  523.70   47.50
  -7  12   2  233.32   27.74
  -7  12   1  427.64   39.97
  -7  12   0   11.53    7.80
  -7  12  -1   14.15    7.81
  -7  12  -1   12.92    6.92
  -7  12  -2   68.38   12.83
  -7  12  -2   79.26   13.03
  -7  12  -3  230.87   23.82
  -7  12  -3  227.22   25.38
  -7  12  -4   17.40    6.29
  -7  12  -4    3.36    8.66
   7 -11  -8  100.64   17.12
  -7  11   8  121.20   20.00
   7 -11  -7   -0.04    5.81
  -7  11   7    6.22    6.93
   7 -11  -6   25.81    8.61
   7 -11  -5  379.91   35.84
   7 -11  -4  133.89   17.91
  -7  11   4  163.76   21.71
   7 -11  -3   68.20   12.52
  -7  11   3   91.00   15.69
   7 -11  -2  458.38   38.62
  -7  11   2  694.94   51.71
   7 -11  -1  835.86   63.66
  -7  11   1 1220.37   78.43
   7 -11   0  475.08   41.06
  -7  11   0  629.73   46.29
  -7  11   0  602.95   40.55
   7 -11   1  550.79   45.79
  -7  11  -1  736.07   49.90
  -7  11  -1  729.50   51.65
   7 -11   2  153.50   20.74
  -7  11  -2  239.74   21.91
  -7  11  -2  235.90   22.25
   7 -11   3  250.20   28.60
  -7  11  -3  342.72   27.61
  -7  11  -3  364.57   31.65
   7 -11   4  123.32   17.26
  -7  11  -4  154.38   14.53
  -7  11  -4   66.33   18.59
   7 -11   5  120.84   18.09
  -7  11  -5  160.59   16.80
  -7  11  -5  192.20   19.84
   7 -11   6    5.71    7.03
  -7  11  -6   21.01    8.74
   7 -11   7    3.38    6.01
  -7  11  -7    1.22    7.29
   7 -10  -9  649.48   56.02
  -7  10   9  800.07   69.30
   7 -10  -8 1107.84   88.71
  -7  10   8 1342.54  106.50
   7 -10  -7  172.21   21.52
  -7  10   7  211.76   24.85
   7 -10  -6    4.27    6.42
  -7  10   6   10.73    6.22
   7 -10  -5    0.49    4.31
   7 -10  -4  280.30   26.97
   7 -10  -3  457.69   37.84
  -7  10   3  489.93   41.66
   7 -10  -2   36.84    9.65
  -7  10   2   59.96   11.46
   7 -10  -1  236.80   23.78
  -7  10   1  302.58   22.93
   7 -10   0  189.59   18.59
  -7  10   0  165.35   15.92
  -7  10   0  174.95   18.30
   7 -10   1  144.08   16.17
  -7  10  -1  150.02   16.99
  -7  10  -1  149.44   15.78
   7 -10   2  238.41   22.15
  -7  10  -2  301.46   24.96
  -7  10  -2  323.52   26.12
   7 -10   3   -1.01    5.81
  -7  10  -3    9.13    5.81
  -7  10  -3   17.26    6.41
   7 -10   4   15.03    7.00
  -7  10  -4    8.31    5.72
  -7  10  -4   15.46    7.27
   7 -10   5  187.60   21.13
  -7  10  -5  225.65   25.05
  -7  10  -5  214.05   18.66
   7 -10   6    1.69    5.63
  -7  10  -6    6.82    3.95
  -7  10  -6   -1.55    4.89
   7 -10   7   59.35   10.84
  -7  10  -7  174.75   18.64
   7 -10   8   -0.09    6.23
  -7  10  -8   11.40    7.47
   7  -9 -11   57.07   14.70
  -7   9  11   54.79   16.07
   7  -9 -10    0.57    5.85
  -7   9  10    2.32    5.33
   7  -9  -9    7.16    8.14
  -7   9   9   21.45    9.41
   7  -9  -8  389.96   37.18
  -7   9   8  424.30   38.96
   7  -9  -7 1577.55  112.18
  -7   9   7 1683.45  116.56
   7  -9  -6  162.43   17.71
  -7   9   6  214.10   22.64
   7  -9  -5 1754.38  125.27
  -7   9   5 1894.32  127.63
   7  -9  -4  111.03   14.42
   7  -9  -3  384.73   31.87
   7  -9  -2  353.60   27.39
  -7   9   2  381.74   31.43
   7  -9  -1 1820.48  119.09
  -7   9   1 1882.42  125.50
  -7   9   1 1758.77  104.48
   7  -9   0 1071.86   72.09
  -7   9   0 1108.78   72.85
  -7   9   0 1067.28   63.20
   7  -9   1  226.54   23.07
  -7   9  -1  229.08   20.72
  -7   9  -1  234.83   18.35
   7  -9   2  407.70   33.83
  -7   9  -2  404.94   29.53
  -7   9  -2  417.43   31.76
   7  -9   3  393.26   34.18
  -7   9  -3  459.66   31.10
  -7   9  -3  477.07   35.35
   7  -9   4   -1.42    5.89
  -7   9  -4   10.05    4.91
  -7   9  -4    6.68    5.92
   7  -9   5   11.03    7.06
  -7   9  -5   13.09    5.16
  -7   9  -5   14.47    7.36
   7  -9   6   18.00    7.75
  -7   9  -6   42.37   10.47
  -7   9  -6   49.41    6.63
   7  -9   7   73.33   12.96
  -7   9  -7   81.88    7.41
  -7   9  -7   30.92   12.70
   7  -9   8   46.41   10.06
  -7   9  -8   19.90   10.58
   7  -9   9   21.00    8.88
  -7   9  -9   18.87   10.25
   7  -9  10   18.31    8.69
  -7   9 -10   11.74    7.54
   7  -8 -11   15.27    7.55
  -7   8  11   31.05   10.27
   7  -8 -10   14.71    9.30
  -7   8  10   23.89   10.20
   7  -8  -9   57.41   14.22
  -7   8   9   97.43   14.55
   7  -8  -8  239.97   23.10
  -7   8   8  269.85   28.16
   7  -8  -7  161.66   18.77
  -7   8   7  177.72   19.89
   7  -8  -6  292.33   27.42
  -7   8   6  304.70   24.75
   7  -8  -5  166.79   16.61
  -7   8   5  172.69   19.86
   7  -8  -4  715.93   50.19
  -7   8   4  720.37   52.10
   7  -8  -3  242.88   22.70
   7  -8  -2   28.20    7.91
  -7   8   2   30.60    9.01
   7  -8  -1   11.51    5.62
  -7   8   1    7.57    6.59
  -7   8   1    9.56    3.95
   7  -8   0   73.37   11.53
  -7   8   0  102.59   11.78
  -7   8   0   73.26    9.02
   7  -8   1   36.43    9.02
  -7   8  -1   38.55    6.35
  -7   8  -1   26.44    7.24
   7  -8   2  202.55   17.82
  -7   8  -2  141.47   12.45
  -7   8  -2  149.73   15.16
   7  -8   3  489.40   38.81
  -7   8  -3  474.72   31.74
  -7   8  -3  515.47   36.70
   7  -8   4   20.88    5.94
  -7   8  -4   24.32    6.23
  -7   8  -4   17.97    7.04
   7  -8   5  227.74   23.58
  -7   8  -5  261.81   18.76
  -7   8  -5  270.80   22.14
   7  -8   6  479.60   40.57
  -7   8  -6  572.76   44.29
  -7   8  -6  530.82   31.44
   7  -8   7   30.84    9.98
  -7   8  -7   39.89   10.41
   7  -8   8  205.37   25.72
  -7   8  -8  246.28   24.79
   7  -8   9  247.49   24.89
  -7   8  -9  140.49   21.56
   7  -8  10   53.50   10.48
  -7   8 -10   11.97   11.38
   7  -8  11   42.97    8.77
  -7   8 -11   11.95    8.69
   7  -7 -12   59.16   12.06
  -7   7  12   51.29   10.88
   7  -7 -11  283.31   31.18
  -7   7  11  294.28   30.45
   7  -7 -10  295.25   31.03
  -7   7  10  310.08   30.72
   7  -7  -9  694.37   56.13
  -7   7   9  748.46   57.63
   7  -7  -8  976.91   65.48
  -7   7   8 1009.16   72.99
   7  -7  -7  281.88   28.19
  -7   7   7  273.86   27.18
   7  -7  -6  481.42   39.32
  -7   7   6  501.23   38.09
   7  -7  -5  103.52   12.05
  -7   7   5  129.44   14.78
   7  -7  -4  636.88   45.61
  -7   7   4  640.88   44.20
   7  -7  -3   44.69    9.68
  -7   7   3   39.47    9.71
   7  -7  -2  276.80   23.55
  -7   7   2  260.17   14.83
   7  -7  -1    6.51    5.42
  -7   7   1   22.93    7.14
  -7   7   1   14.13    4.29
   7  -7   0  934.15   55.12
  -7   7   0  894.63   55.69
  -7   7   0  897.56   47.14
   7  -7   1   33.95    6.44
  -7   7  -1   37.50    6.28
  -7   7  -1   35.17    8.09
   7  -7   2   54.34   10.13
  -7   7  -2   55.85    8.73
  -7   7  -2   40.83    8.11
   7  -7   3   48.85    9.40
  -7   7  -3   67.12    8.37
  -7   7  -3   35.38    7.30
   7  -7   4  554.42   41.91
  -7   7  -4  583.54   39.92
  -7   7  -4  555.87   34.36
   7  -7   5  403.02   33.74
  -7   7  -5  438.51   34.76
  -7   7  -5  423.75   27.56
   7  -7   6 2769.04  188.37
  -7   7  -6 2768.59  173.30
  -7   7  -6 3001.80  199.46
   7  -7   7  347.47   32.44
  -7   7  -7  399.03   34.13
   7  -7   8  171.42   17.87
  -7   7  -8  184.23   22.42
   7  -7   9   18.21    8.57
  -7   7  -9   41.59   10.21
   7  -7  10  208.12   19.99
  -7   7 -10   74.48   17.28
   7  -7  11   73.04   13.19
  -7   7 -11   21.03   12.51
   7  -7  12    4.40    5.98
  -7   7 -12    5.67    8.16
   7  -6 -13   73.77   15.79
  -7   6  13   71.15   13.57
   7  -6 -12  201.62   23.14
  -7   6  12  184.33   21.61
   7  -6 -11   23.74    8.61
  -7   6  11   12.48    8.21
   7  -6 -10    0.94    3.59
  -7   6  10   -0.01    3.68
   7  -6  -9  219.37   23.84
  -7   6   9  226.65   22.78
   7  -6  -8    9.57    4.48
  -7   6   8    0.40    6.20
   7  -6  -7    4.33    5.62
  -7   6   7    7.42    5.94
   7  -6  -6  279.72   25.75
  -7   6   6  280.37   25.11
   7  -6  -5   78.66    9.18
  -7   6   5   68.44    9.02
   7  -6  -4  310.87   24.48
  -7   6   4  304.70   21.50
   7  -6  -3  134.34   12.54
  -7   6   3  130.93   14.05
   7  -6  -2  247.33   20.70
  -7   6   2  235.79   12.25
   7  -6  -1  708.85   45.54
  -7   6   1  684.86   35.08
   7  -6   0  238.60   20.70
  -7   6   0  236.13   18.97
  -7   6   0  229.60   15.03
   7  -6   1  245.82   18.10
  -7   6  -1  239.33   18.96
  -7   6  -1  234.96   16.53
   7  -6   2  326.56   26.08
  -7   6  -2  310.97   20.92
  -7   6  -2  303.43   21.04
   7  -6   3   29.78    8.25
  -7   6  -3   32.47    7.07
  -7   6  -3   35.17    7.20
   7  -6   4  142.11   13.84
  -7   6  -4  146.13   13.44
  -7   6  -4  157.05   16.10
   7  -6   5  144.58   13.90
  -7   6  -5  144.17   12.03
  -7   6  -5  148.18   16.38
   7  -6   6   17.07    5.70
  -7   6  -6   21.63    4.67
  -7   6  -6   27.03    7.62
   7  -6   7  422.00   24.78
   7  -6   7  409.04   34.18
  -7   6  -7  431.69   35.98
   7  -6   8 1344.16   98.20
  -7   6  -8 1534.61  110.66
   7  -6   9  110.12   16.21
  -7   6  -9  125.30   15.46
   7  -6  10  294.19   31.58
  -7   6 -10  336.62   35.95
   7  -6  11    6.66    5.58
  -7   6 -11   -3.71    5.93
   7  -6  12  147.79   20.67
   7  -6  13  809.38   69.84
   7  -5 -13  134.70   17.40
  -7   5  13  110.11   15.68
   7  -5 -12  106.42   16.59
  -7   5  12   97.02   14.43
   7  -5 -11   15.11    6.40
  -7   5  11   15.87    7.25
   7  -5 -10   25.06    8.24
  -7   5  10   14.21    8.00
   7  -5  -9  151.45   14.17
  -7   5   9  150.22   16.81
   7  -5  -8  253.10   23.92
  -7   5   8  240.47   22.25
   7  -5  -7   87.44   14.20
  -7   5   7  121.57   13.20
   7  -5  -6   64.87   11.24
  -7   5   6   75.55    8.70
   7  -5  -5 3475.97  228.97
  -7   5   5 3376.85  222.37
   7  -5  -4  422.29   26.46
  -7   5   4  430.22   30.39
   7  -5  -3  418.65   28.81
  -7   5   3  389.34   16.27
  -7   5   3  406.01   27.72
   7  -5  -2   -1.53    4.42
  -7   5   2    0.06    3.48
  -7   5   2    4.44    1.89
   7  -5  -1 2672.66  163.71
  -7   5   1 2595.86  141.02
   7  -5   0 3117.68  197.82
  -7   5   0 2989.78  169.38
   7  -5   1  564.93   33.35
  -7   5  -1  552.56   34.12
  -7   5  -1  556.93   30.64
   7  -5   2 1553.92   92.48
  -7   5  -2 1492.03   85.87
  -7   5  -2 1496.00   84.84
   7  -5   3  104.80   13.33
  -7   5  -3  116.78    8.97
  -7   5  -3   95.37   11.33
   7  -5   4   17.56    6.41
  -7   5  -4   17.54    4.92
  -7   5  -4   15.24    5.76
   7  -5   5  446.47   31.66
  -7   5  -5  412.34   25.61
  -7   5  -5  410.57   27.45
   7  -5   6  494.56   29.09
   7  -5   6  497.24   36.98
  -7   5  -6  521.08   34.08
   7  -5   7  148.36   12.04
   7  -5   7  139.67   15.54
  -7   5  -7  151.58   15.51
   7  -5   8  640.49   35.33
   7  -5   8  563.82   44.98
  -7   5  -8  714.31   54.16
   7  -5   9   12.38    5.87
  -7   5  -9   -1.65    5.91
   7  -5  10  347.68   33.82
  -7   5 -10  408.46   34.83
   7  -5  11   14.76    7.89
  -7   5 -11   11.47    8.61
   7  -5  12   72.79   11.37
  -7   5 -12   19.56    9.04
   7  -5  13    4.61    5.74
   7  -5  14   97.02   15.58
  -7   5 -14   16.02   13.80
   7  -4 -14  533.58   46.28
   7  -4 -13  262.75   29.92
   7  -4 -12  978.56   75.50
  -7   4  12  909.50   61.67
   7  -4 -11   -3.11    6.86
  -7   4  11   10.63    5.47
   7  -4 -10   43.64    8.81
  -7   4  10   72.36    9.83
   7  -4  -9 1157.36   80.53
  -7   4   9 1177.67   73.99
   7  -4  -8  487.08   37.10
  -7   4   8  512.85   34.96
   7  -4  -7  185.55   19.16
  -7   4   7  198.21   15.05
   7  -4  -6  165.46   16.47
  -7   4   6  152.87   15.62
   7  -4  -5  216.81   19.41
  -7   4   5  223.74   18.61
   7  -4  -4   31.40    7.43
  -7   4   4   32.59    7.62
   7  -4  -3  439.22   25.93
  -7   4   3  443.47   18.88
  -7   4   3  417.75   27.51
   7  -4  -2  148.79   11.45
  -7   4   2  137.48    7.44
  -7   4   2  138.10   13.75
   7  -4  -1 1281.57   70.78
  -7   4   1 1271.52   60.36
  -7   4   1 1293.46   69.91
   7  -4   0  146.92   13.60
  -7   4   0  150.20   10.61
   7  -4   1  655.77   39.33
  -7   4  -1  645.74   37.75
  -7   4  -1  651.64   35.05
   7  -4   2 3481.76  220.84
  -7   4  -2 3429.39  207.97
  -7   4  -2 3471.71  212.48
   7  -4   3 3151.18  197.60
  -7   4  -3 3031.70  180.71
  -7   4  -3 3101.84  192.78
   7  -4   4   55.10    8.18
  -7   4  -4   75.48    7.58
  -7   4  -4   74.77   10.09
   7  -4   5    8.27    5.21
  -7   4  -5    6.96    5.51
   7  -4   6  189.63   13.98
   7  -4   6  213.86   19.48
  -7   4  -6  216.84   20.68
   7  -4   7  558.08   29.76
   7  -4   7  604.84   41.69
  -7   4  -7  563.78   41.70
   7  -4   8   12.36    3.78
   7  -4   8   14.62    6.66
  -7   4  -8   18.05    7.18
   7  -4   9   94.95   11.33
  -7   4  -9   91.20   14.74
   7  -4  10    2.96    6.32
  -7   4 -10    8.37    6.38
   7  -4  11    8.53    6.46
  -7   4 -11    4.96    5.69
   7  -4  12   33.93   11.07
   7  -4  13    4.35    5.16
   7  -4  14   55.06   12.15
  -7   4 -14   15.51    9.57
   7  -3 -14  195.35   24.58
   7  -3 -13   41.02   11.83
   7  -3 -12  310.22   29.36
  -7   3  12  282.57   21.77
   7  -3 -11  370.08   33.81
  -7   3  11  350.30   25.50
   7  -3 -10   47.58   10.92
  -7   3  10   61.34    8.77
   7  -3  -9 2030.27  132.71
  -7   3   9 1829.53  113.94
   7  -3  -8    4.85    5.64
  -7   3   8    8.37    4.91
   7  -3  -7  285.73   23.53
  -7   3   7  284.36   18.37
   7  -3  -6  271.58   20.58
  -7   3   6  283.45   19.47
   7  -3  -5 1921.27  112.15
  -7   3   5 1938.79  112.17
   7  -3  -4 1268.06   72.44
  -7   3   4 1231.11   69.68
   7  -3  -3  171.00   14.81
  -7   3   3  164.40    7.84
  -7   3   3  172.14   12.19
   7  -3  -2   -0.20    3.40
  -7   3   2    4.33    2.68
  -7   3   2    0.13    1.35
   7  -3  -1 1663.46   94.92
  -7   3   1 1685.02   80.97
  -7   3   1 1633.53   93.59
   7  -3   0  216.11   14.72
  -7   3   0  216.53   12.64
  -7   3   0  208.33   13.35
   7  -3   1  130.21   12.41
  -7   3  -1  125.41   10.02
   7  -3   2  297.59   21.10
  -7   3  -2  273.78   18.49
  -7   3  -2  299.78   20.55
   7  -3   3  200.75   16.36
  -7   3  -3  201.06   14.76
  -7   3  -3  203.22   16.02
   7  -3   4   57.25    8.38
  -7   3  -4   44.81    8.55
  -7   3  -4   50.46    7.51
   7  -3   5  336.08   23.20
   7  -3   5  304.76   19.65
  -7   3  -5  287.71   22.46
   7  -3   6  425.37   25.42
   7  -3   6  451.12   31.37
  -7   3  -6  458.75   31.92
   7  -3   7    4.95    3.55
   7  -3   7    7.29    4.89
  -7   3  -7    9.30    5.58
   7  -3   8   76.37    8.07
   7  -3   8   75.86   12.04
  -7   3  -8   82.03   12.67
   7  -3   9  694.48   39.20
   7  -3   9  781.33   57.88
  -7   3  -9  730.26   53.14
   7  -3  10   11.19    6.24
  -7   3 -10    0.90    6.37
   7  -3  11    7.55    6.08
  -7   3 -11    3.84    5.16
   7  -3  12   27.94    9.80
   7  -3  13  105.22   14.38
  -7   3 -13   32.93   10.41
   7  -3  14   10.45    8.48
  -7   3 -14   10.09    9.16
   7  -3  15  147.96   19.12
  -7   3 -15   38.10   17.01
  -7   2  11  431.77   28.72
   7  -2 -10 1316.85   90.11
  -7   2  10 1222.86   74.14
   7  -2  -9 1942.23  119.44
  -7   2   9 1734.55  104.82
   7  -2  -8 4130.18  277.82
  -7   2   8 4056.10  263.69
   7  -2  -7  119.74   13.23
  -7   2   7  104.09   11.14
   7  -2  -6   33.19    8.23
  -7   2   6   45.95    7.10
   7  -2  -5   32.10    6.16
  -7   2   5   58.54    7.33
   7  -2  -4  312.92   19.15
  -7   2   4  294.61   19.62
   7  -2  -3 2339.18  136.58
  -7   2   3 2220.93  104.37
  -7   2   3 2260.75  126.65
   7  -2  -2  274.38   16.48
  -7   2   2  281.79   13.43
  -7   2   2  277.93   15.82
   7  -2  -1  423.27   26.98
  -7   2   1  430.31   20.67
  -7   2   1  386.34   25.05
   7  -2   0  141.17   12.38
  -7   2   0  135.13    9.47
  -7   2   0  144.21   13.08
   7  -2   1  693.33   37.47
  -7   2  -1  724.63   37.39
   7  -2   2 1170.74   64.27
  -7   2  -2 1161.42   62.12
   7  -2   3  666.52   35.19
  -7   2  -3  586.51   31.32
  -7   2  -3  626.41   35.05
   7  -2   4    3.06    4.40
   7  -2   4    3.09    3.96
  -7   2  -4    6.00    4.19
   7  -2   5  163.53   15.19
   7  -2   5  152.41   12.45
  -7   2  -5  147.51   14.51
   7  -2   6  103.03   10.52
   7  -2   6  118.65    9.13
  -7   2  -6  132.71   13.40
   7  -2   7  203.77   14.59
   7  -2   7  223.29   19.69
  -7   2  -7  205.35   17.78
   7  -2   8  257.70   17.66
   7  -2   8  281.55   25.46
  -7   2  -8  258.61   23.78
   7  -2   9  140.05   11.97
   7  -2   9  148.31   15.61
  -7   2  -9  202.27   18.84
   7  -2  10  804.42   59.92
   7  -2  10  743.07   42.31
  -7   2 -10  784.82   60.54
   7  -2  11   76.49   12.53
   7  -2  12   17.22    8.26
   7  -2  13   99.06   14.18
  -7   2 -13  105.69   19.91
   7  -2  14  283.74   30.99
  -7   2 -14  234.94   31.55
   7  -2  15  896.95   73.83
  -7   2 -15  705.14   71.71
   7  -1 -14  149.78   21.52
  -7   1  10  695.82   40.09
  -7   1   9   22.44    5.71
  -7   1   8  438.97   27.34
  -7   1   7  409.04   24.90
  -7   1   6  841.18   46.42
  -7   1   5   54.05    7.62
  -7   1   4   89.17    4.08
  -7   1   4  121.33    8.40
  -7   1   3  429.74   17.48
  -7   1   3  452.05   25.94
  -7   1   2  663.37   34.48
  -7   1   2  681.72   28.77
  -7   1   1   13.45    3.51
  -7   1   1   15.04    5.34
  -7   1   0  439.12   22.72
  -7   1   0  441.20   26.90
  -7   1  -1   20.04    4.74
  -7   1  -1   18.49    5.21
  -7   1  -2  104.82   10.02
   7  -1   3 2198.15  127.07
  -7   1  -3 2092.02  119.03
   7  -1   4   70.96    8.17
  -7   1  -4   76.38    8.60
   7  -1   5  490.73   27.95
  -7   1  -5  493.32   31.01
   7  -1   6  301.08   19.44
  -7   1  -6  298.30   20.48
   7  -1   7  389.85   24.31
  -7   1  -7  400.63   27.10
   7  -1   8 1672.87   98.48
   7  -1   8 1751.13  109.30
  -7   1  -8 1693.48  104.28
   7  -1   9  647.31   37.38
   7  -1   9  676.31   43.43
  -7   1  -9  643.22   49.65
   7  -1  10  381.06   32.87
   7  -1  10  341.52   21.07
  -7   1 -10  382.03   34.01
   7  -1  11   47.42    9.65
   7  -1  11   31.65    4.85
   7  -1  12   72.66   13.17
   7  -1  13  890.48   66.90
  -7   1 -13  851.29   73.17
   7  -1  14  120.14   17.39
  -7   1 -14   94.67   15.94
   7  -1  15   98.66   17.64
  -7   1 -15   82.93   19.03
   7   0 -14  398.79   40.80
   7   0 -13    6.23    7.48
   7   0 -12   12.12    8.06
   7   0 -11  184.20   17.82
   7   0 -10  105.91   12.72
  -7   0  10  117.34   10.77
   7   0  -9  346.16   29.76
  -7   0   9  352.86   22.68
   7   0  -8 1165.75   71.77
  -7   0   8 1153.11   63.76
   7   0  -7 1284.43   76.68
  -7   0   7 1208.60   66.90
   7   0  -6 3308.12  209.09
  -7   0   6 3248.29  197.06
   7   0  -5  292.18   20.12
  -7   0   5  309.11   20.14
   7   0  -4  788.73   41.12
   7   0  -4  576.15   21.78
  -7   0   4  778.84   40.34
   7   0  -3  841.74   44.01
  -7   0   3  712.85   30.35
  -7   0   3  837.69   44.97
   7   0  -2   97.48    7.91
  -7   0   2   93.13    5.93
  -7   0   2   91.32    9.40
  -7   0   1  244.24   13.15
  -7   0   1  219.03   13.80
  -7   0   0   28.31    5.53
  -7   0   0   32.61    4.86
   7   0   1  875.42   46.13
  -7   0  -1  876.29   47.41
   7   0   2 1013.51   58.03
  -7   0  -2 1004.33   54.41
   7   0   3  157.07   13.68
  -7   0  -3  154.62   14.17
   7   0   4  759.69   39.53
  -7   0  -4  737.27   44.96
   7   0   5 2715.65  163.83
  -7   0  -5 2879.15  177.99
   7   0   6   22.16    4.56
  -7   0  -6   22.95    7.46
   7   0   7  617.58   37.33
  -7   0  -7  640.69   39.62
   7   0   8 2612.82  158.22
  -7   0  -8 2598.05  168.71
   7   0   9 2340.58  140.01
  -7   0  -9 2465.17  170.47
   7   0  10 1035.21   59.24
  -7   0 -10 1009.31   74.42
   7   0  11  504.98   31.75
  -7   0 -12  230.01   27.15
  -7   0 -13  556.24   54.18
  -7   0 -14  326.19   40.13
  -7   0 -15  127.77   18.08
  -7   0 -16   81.02   18.41
   7   1 -14   22.65   10.23
   7   1 -13   87.58   13.92
   7   1 -12  369.88   30.74
   7   1 -11  386.62   33.46
   7   1 -10  119.04   14.13
   7   1  -9  109.95    9.87
  -7  -1   9   87.01    8.53
   7   1  -8  123.87   11.66
  -7  -1   8   86.64    8.15
   7   1  -7  139.61   14.00
  -7  -1   7  134.04   10.69
   7   1  -6    3.73    0.86
   7   1  -6    7.11    3.39
   7   1  -6    7.29    1.02
  -7  -1   6    9.47    3.69
   7   1  -5  612.64   24.49
   7   1  -5  727.02   39.91
  -7  -1   5  747.87   39.48
   7   1  -4   63.03    5.77
  -7  -1   4   53.99    5.42
   7   1  -3 2092.75  113.55
  -7  -1   3 2111.68  117.21
  -7  -1   3 1908.14   93.84
   7   1  -2  971.48   50.77
  -7  -1   2 1011.10   45.05
  -7  -1   2  963.58   52.74
   7   1  -1  174.34   12.75
  -7  -1   1  180.21   11.74
   7   1   0  969.09   50.42
   7   1   0  936.47   46.37
  -7  -1   0  962.37   49.69
   7   1   1 2330.45  130.73
   7   1   1 2331.93  135.97
  -7  -1  -1 2551.37  144.30
   7   1   2 7551.57  567.39
  -7  -1  -2 8098.25  596.97
   7   1   3  187.51   13.47
   7   1   3  184.17   15.22
  -7  -1  -3  207.38   17.17
   7   1   4 1015.56   53.57
   7   1   4 1041.96   58.28
  -7  -1  -4  992.91   58.45
   7   1   5  103.79   10.46
   7   1   5   97.75   10.32
  -7  -1  -5  117.38   13.03
   7   1   6 1564.65   88.36
   7   1   6 1530.62   84.25
  -7  -1  -6 1482.57   91.92
   7   1   7 1939.05  112.14
   7   1   7 1792.50  106.38
  -7  -1  -7 1706.40  110.59
   7   1   8 2262.79  138.29
   7   1   8 2525.80  158.69
  -7  -1  -8 2378.21  157.08
   7   1   9   11.42    4.27
   7   1   9   14.93    4.67
  -7  -1  -9   10.61    6.86
   7   1  10   17.41    5.22
   7   1  10   23.00    7.54
   7   1  11   31.62    7.52
   7   1  11   14.47    5.30
   7   1  12  206.81   16.57
   7   1  12  238.91   25.69
  -7  -1 -12  235.41   27.89
   7   1  13  377.57   35.62
  -7  -1 -13  345.90   41.03
   7   1  14    2.98    7.66
  -7  -1 -14   11.51    7.86
   7   1  15  106.81   15.99
  -7  -1 -15   31.64   15.99
   7   1  16  220.92   26.99
  -7  -1 -16  172.51   27.08
   7   2 -14   17.57    9.55
   7   2 -13  443.73   41.33
   7   2 -12 1326.54   99.89
   7   2 -11   26.83    4.12
   7   2 -11   40.49    9.15
   7   2 -10  382.94   19.86
   7   2 -10  421.95   31.33
   7   2  -9  722.86   49.09
   7   2  -8   34.10    6.22
   7   2  -8   20.98    1.82
   7   2  -7   11.74    5.01
   7   2  -6 2320.17  132.71
   7   2  -6 1824.80   88.72
   7   2  -5   68.57    5.45
   7   2  -5   46.60    4.11
   7   2  -5   68.95    7.64
   7   2  -4  391.70   19.93
   7   2  -4  389.01   22.87
   7   2  -4  376.28   17.97
   7   2  -3  244.03   15.07
   7   2  -3  241.48   16.93
   7   2  -2   84.35    7.53
   7   2  -2   87.95    8.50
  -7  -2   2   79.76    5.62
   7   2  -1 3088.06  181.11
  -7  -2   1 3509.86  198.04
   7   2   0  564.70   29.18
  -7  -2   0  626.22   33.14
   7   2   1 1144.86   59.29
   7   2   1 1083.39   61.64
  -7  -2  -1 1178.01   63.73
   7   2   2 1364.18   69.58
   7   2   2 1369.18   72.75
  -7  -2  -2 1309.54   74.46
   7   2   3 1731.18   90.15
   7   2   3 1660.52   95.87
  -7  -2  -3 1644.57   97.08
   7   2   4 1725.26   88.74
   7   2   4 1746.62  100.37
  -7  -2  -4 1661.38   99.24
   7   2   5  921.77   49.54
   7   2   5  909.53   53.37
  -7  -2  -5  916.81   55.67
   7   2   6   98.70   10.81
   7   2   6  147.69   11.91
  -7  -2  -6  121.27   11.43
   7   2   7  932.18   53.82
   7   2   7  854.60   50.74
  -7  -2  -7  871.33   59.17
   7   2   8 1254.64   75.67
   7   2   8 1322.16   77.34
  -7  -2  -8 1338.09   84.49
   7   2   9  263.74   22.43
   7   2   9  251.56   19.99
  -7  -2  -9  254.65   26.71
   7   2  10 1579.27  102.80
   7   2  10 1497.65   92.78
   7   2  11  140.60   13.93
   7   2  11  153.90   16.89
   7   2  12  334.83   31.37
   7   2  12  301.87   23.63
  -7  -2 -12  321.16   34.32
   7   2  13    3.36    3.94
   7   2  13    4.59    6.22
  -7  -2 -13    4.75    5.26
   7   2  14  158.38   18.00
  -7  -2 -14  156.47   24.44
   7   2  15   18.28    8.69
  -7  -2 -15    5.23    9.79
   7   2  16    4.39    5.05
  -7  -2 -16   -3.00    4.15
   7   3 -14   32.31   10.86
   7   3 -13    8.21    7.04
   7   3 -12   37.72    9.41
   7   3 -11  197.27   19.26
   7   3 -10  178.30   11.26
   7   3 -10  173.09   17.75
   7   3  -9  588.61   30.87
   7   3  -9  508.54   23.41
   7   3  -9  630.93   40.74
   7   3  -8  851.68   52.44
   7   3  -8  818.57   41.72
   7   3  -8  725.99   32.53
   7   3  -7   88.65    8.24
   7   3  -7   80.92    6.49
   7   3  -7   72.20    4.74
   7   3  -6  126.79   10.92
   7   3  -6  119.52    8.13
   7   3  -6   98.28    6.18
   7   3  -5 1483.73   81.05
   7   3  -5 1458.47   70.97
   7   3  -5 1582.15   86.57
   7   3  -4 1395.38   66.14
   7   3  -4 1428.68   74.50
   7   3  -4 1380.21   73.87
   7   3  -3 1652.69   85.88
   7   3  -3 1675.66   83.17
   7   3  -3 1674.61   92.85
   7   3  -2 1578.98   81.66
   7   3  -2 1608.84   88.49
  -7  -3   2 1652.72   85.98
   7   3  -1  610.42   35.35
   7   3  -1  597.21   29.39
  -7  -3   1  612.23   33.45
   7   3   0 3182.05  182.42
  -7  -3   0 3441.31  204.90
   7   3   1   78.20    7.35
  -7  -3  -1   99.26   10.67
   7   3   2 1740.35   87.70
   7   3   2 1700.00   98.52
  -7  -3  -2 1708.28   96.77
   7   3   3  403.38   21.38
   7   3   3  396.96   28.49
  -7  -3  -3  422.33   29.44
   7   3   4  621.13   32.20
   7   3   4  625.11   35.29
  -7  -3  -4  626.33   36.34
   7   3   5  119.28   10.88
   7   3   5  123.20   12.53
  -7  -3  -5  129.16   14.22
   7   3   6  194.06   14.74
   7   3   6  174.83   16.15
  -7  -3  -6  207.70   20.16
   7   3   7  214.00   14.58
   7   3   7  220.44   16.74
  -7  -3  -7  213.40   18.54
   7   3   8  132.53   13.02
   7   3   8  135.02   13.25
  -7  -3  -8  141.70   14.32
   7   3   9  189.98   17.65
   7   3   9  185.33   16.73
   7   3  10  116.34   12.40
   7   3  10  124.88   14.41
   7   3  11  387.94   31.29
   7   3  11  363.97   27.59
  -7  -3 -11  368.60   36.68
   7   3  12  250.34   20.95
   7   3  12  280.74   25.92
  -7  -3 -12  273.78   26.14
   7   3  13    2.61    4.79
   7   3  13    6.89    6.59
  -7  -3 -13   13.36    7.79
   7   3  14  209.99   26.15
  -7  -3 -14  243.72   30.45
   7   3  15   58.99   12.87
  -7  -3 -15   54.88   12.47
   7   3  16   51.79   14.33
  -7  -3 -16   47.18   15.48
   7   4 -13  156.85   19.54
   7   4 -12  365.32   33.29
   7   4 -11  927.25   66.19
   7   4 -10  726.34   49.76
   7   4  -9  394.98   20.04
   7   4  -9  352.09   17.55
   7   4  -9  414.67   27.73
   7   4  -8   91.38    9.06
   7   4  -8   83.37    6.27
   7   4  -8   71.48    5.20
   7   4  -7  730.23   40.91
   7   4  -7  676.78   32.82
   7   4  -7  696.80   35.31
   7   4  -6  433.80   25.52
   7   4  -6  448.04   23.21
   7   4  -6  425.48   21.14
   7   4  -5  167.69   10.21
   7   4  -5  158.87   11.12
   7   4  -5  184.34   12.13
   7   4  -4   24.39    3.66
   7   4  -4   15.92    3.11
   7   4  -4   20.51    4.54
   7   4  -3  134.27    9.05
   7   4  -3  134.74    8.59
   7   4  -3  134.06   11.11
   7   4  -2  784.46   36.46
   7   4  -2  755.71   40.28
   7   4  -2  777.55   42.99
   7   4  -1  763.57   41.36
   7   4  -1  808.50   37.16
  -7  -4   1  791.78   44.85
   7   4   0  479.88   22.74
   7   4   0  492.55   30.41
  -7  -4   0  443.68   28.01
   7   4   1  631.45   29.42
  -7  -4  -1  642.16   38.38
   7   4   2  519.13   24.69
  -7  -4  -2  508.30   33.30
   7   4   3 2052.24  108.84
   7   4   3 2128.48  123.42
  -7  -4  -3 2232.11  135.07
   7   4   4 1054.96   53.13
   7   4   4 1091.91   59.54
  -7  -4  -4 1063.67   66.80
   7   4   5 2209.99  120.58
   7   4   5 2213.89  130.61
  -7  -4  -5 2296.37  139.47
   7   4   6  106.38    8.42
   7   4   6   92.91   10.99
  -7  -4  -6   98.01   13.60
   7   4   7    1.44    2.63
   7   4   7   -0.13    3.62
  -7  -4  -7   -0.29    3.28
   7   4   8 1304.84   75.58
   7   4   8 1362.03   79.87
  -7  -4  -8 1326.12   89.62
   7   4   9  102.30   10.38
   7   4   9   75.94   10.46
   7   4  10   28.23    6.90
   7   4  10   28.45    7.66
   7   4  11    5.14    5.29
   7   4  11    4.92    4.98
  -7  -4 -11    7.26    5.36
   7   4  12  991.30   69.44
   7   4  12  985.83   69.84
  -7  -4 -12 1005.18   72.83
   7   4  13  663.80   49.78
   7   4  13  683.02   49.40
  -7  -4 -13  638.15   57.08
   7   4  14   86.81   12.11
   7   4  14  111.31   12.86
  -7  -4 -14   61.53   16.68
   7   4  15   63.71   13.31
  -7  -4 -15   72.66   15.69
   7   4  16  171.94   25.77
  -7  -4 -16  163.44   25.36
   7   5 -13  295.41   29.38
   7   5 -12    6.52    6.16
   7   5 -11  947.69   66.29
   7   5 -10  166.87   10.56
   7   5 -10  169.47   15.67
   7   5  -9 1431.56   74.33
   7   5  -9 1264.01   62.73
   7   5  -9 1518.70   89.92
   7   5  -8  451.34   27.91
   7   5  -8  388.32   21.14
   7   5  -8  416.05   20.47
   7   5  -7   75.92    7.17
   7   5  -7   62.26    5.56
   7   5  -7   78.16    5.25
   7   5  -6   83.00    7.31
   7   5  -6   76.12    5.95
   7   5  -6   73.68    6.50
   7   5  -5  114.16    9.44
   7   5  -5  122.36    9.11
   7   5  -5  112.72    8.86
   7   5  -4 1547.26   77.49
   7   5  -4 1412.59   75.25
   7   5  -4 1455.30   78.75
   7   5  -3   79.73    5.75
   7   5  -3  113.28    8.54
   7   5  -3  101.01    8.82
   7   5  -2  662.52   29.78
   7   5  -2  632.10   34.62
   7   5  -2  676.26   38.19
   7   5  -1  627.79   34.34
   7   5  -1  636.95   38.84
   7   5  -1  667.11   29.04
   7   5   0   52.87    3.87
   7   5   0   57.68    8.05
  -7  -5   0   51.81    8.17
   7   5   1  147.43   12.94
  -7  -5  -1  138.59   13.46
   7   5   2  326.34   15.16
  -7  -5  -2  302.26   22.33
   7   5   3  637.33   28.45
   7   5   3  642.30   36.65
  -7  -5  -3  577.24   38.46
   7   5   4   25.98    3.55
   7   5   4   33.31    6.46
  -7  -5  -4   39.73    7.51
   7   5   5   95.30    8.03
   7   5   5  123.91   11.57
  -7  -5  -5  107.09   13.49
   7   5   6 1110.00   65.50
   7   5   6 1109.72   58.60
  -7  -5  -6 1207.71   72.45
   7   5   7  113.53    9.46
   7   5   7  124.08   10.27
  -7  -5  -7  118.45   11.59
   7   5   8  110.50   10.70
   7   5   8  113.34   11.07
  -7  -5  -8  147.92   17.56
   7   5   9    4.27    6.72
   7   5   9   22.71    5.24
   7   5  10  155.01   15.50
   7   5  10  120.18   14.03
  -7  -5 -10  132.03   19.06
   7   5  11  143.99   16.99
   7   5  11  133.66   16.33
  -7  -5 -11  224.30   21.16
   7   5  12   99.56   14.46
   7   5  12  106.20   12.09
  -7  -5 -12  105.03   17.05
   7   5  13   95.26   13.67
   7   5  13  119.00   14.09
  -7  -5 -13  118.07   18.74
   7   5  14   81.08   12.50
   7   5  14  122.23   15.56
  -7  -5 -14   90.41   17.44
   7   5  15   51.60   14.11
  -7  -5 -15   83.77   15.39
   7   5  16   25.28    9.51
  -7  -5 -16   10.48   10.20
   7   6 -13   15.39    7.27
   7   6 -12  187.44   19.28
   7   6 -11   79.77   10.14
   7   6 -10   13.66    4.26
   7   6 -10    9.23    3.21
   7   6  -9    8.53    3.02
   7   6  -9    6.06    3.93
   7   6  -8  317.73   19.35
   7   6  -8  286.32   18.15
   7   6  -8  282.79   14.95
   7   6  -7  268.77   16.58
   7   6  -7  261.93   17.34
   7   6  -7  241.05   12.98
   7   6  -6   37.41    4.32
   7   6  -6   30.94    4.83
   7   6  -6   40.14    4.29
   7   6  -5  332.15   21.76
   7   6  -5  319.56   17.03
   7   6  -5  313.03   16.91
   7   6  -4    6.35    3.87
   7   6  -4    8.76    2.26
   7   6  -4   10.83    3.63
   7   6  -3 2352.34  122.65
   7   6  -3 2582.45  153.67
   7   6  -3 2242.25  133.51
   7   6  -2   76.71    9.15
   7   6  -2   60.57    4.21
   7   6  -2   67.44    8.13
   7   6  -1 2529.49  131.09
   7   6  -1 2733.29  167.17
   7   6  -1 2493.24  153.44
   7   6   0 1110.85   48.27
   7   6   0  897.65   53.57
   7   6   0 1097.73   63.71
   7   6   1   79.95    4.84
   7   6   1   85.86    8.19
  -7  -6  -1   92.94   11.08
   7   6   2  102.67    5.95
  -7  -6  -2  136.17   12.53
   7   6   3   50.02    4.11
  -7  -6  -3   48.00    6.88
   7   6   4   59.46    4.73
   7   6   4   69.06    7.66
  -7  -6  -4   70.24   10.33
   7   6   5  192.17   10.74
   7   6   5  193.72   17.95
  -7  -6  -5  193.36   19.00
   7   6   6    4.81    4.92
   7   6   6    1.85    2.19
  -7  -6  -6   11.91    4.19
   7   6   7  711.96   47.94
   7   6   7  669.92   35.43
  -7  -6  -7  671.76   46.74
   7   6   8   29.02    5.71
   7   6   8   16.37    4.30
   7   6   9  644.00   44.54
   7   6   9  601.34   38.52
   7   6  10  112.38   15.21
   7   6  10   99.80   10.68
  -7  -6 -10  132.90   17.23
   7   6  11  145.07   15.78
   7   6  11  138.53   13.44
  -7  -6 -11  147.35   20.20
   7   6  12  324.79   25.45
   7   6  12  302.89   26.40
  -7  -6 -12  290.12   33.51
   7   6  13   78.55   11.43
   7   6  13   74.80   11.33
  -7  -6 -13   82.86   14.57
   7   6  14    7.82    5.76
   7   6  14    1.54    5.74
  -7  -6 -14    1.05    7.40
   7   6  15  115.27   17.17
   7   6  15  159.66   17.46
  -7  -6 -15   61.84   19.69
   7   7 -12   -1.17    3.90
   7   7 -11  155.20   14.48
   7   7 -10   12.20    5.07
   7   7 -10   21.17    4.28
   7   7  -9  151.00   12.52
   7   7  -9  146.18   11.12
   7   7  -8    8.98    3.12
   7   7  -8    8.70    3.67
   7   7  -7   33.32    4.27
   7   7  -7   23.52    5.16
   7   7  -7   28.03    3.03
   7   7  -6  122.09    8.08
   7   7  -6  109.12   11.39
   7   7  -6  100.94    7.27
   7   7  -5   25.54    6.28
   7   7  -5   25.30    3.02
   7   7  -5   24.07    3.57
   7   7  -4   95.74    5.79
   7   7  -4  117.99   11.89
   7   7  -4   92.72    8.50
   7   7  -3   43.69    2.98
   7   7  -3   41.97    7.41
   7   7  -3   35.31    5.66
   7   7  -2  219.06   17.78
   7   7  -2  184.65    8.42
   7   7  -2  193.02   14.68
   7   7  -1 1302.92   58.50
   7   7  -1 1265.77   76.52
   7   7  -1 1430.48   84.69
   7   7   0 1460.65   65.68
   7   7   0 1552.69   92.70
   7   7   0 1513.19   89.78
   7   7   1   28.34    6.30
   7   7   1   21.15    5.72
   7   7   1   24.90    2.03
   7   7   2   31.25    2.32
   7   7   2   26.94    6.97
  -7  -7  -2   30.93    8.22
   7   7   3  512.55   21.83
  -7  -7  -3  534.16   37.30
   7   7   4  206.11   10.00
  -7  -7  -4  194.64   21.12
   7   7   5 1491.54   92.80
   7   7   5 1312.83   63.47
  -7  -7  -5 1396.21   93.98
   7   7   6  274.66   14.79
   7   7   6  320.88   26.06
  -7  -7  -6  290.09   24.97
   7   7   7 1036.78   54.78
   7   7   7 1229.73   82.71
  -7  -7  -7 1099.41   77.76
   7   7   8   39.26    7.27
   7   7   8   34.70    4.97
   7   7   9  348.83   30.35
   7   7   9  315.04   21.71
   7   7  10    1.57    4.44
   7   7  10    6.43    3.33
  -7  -7 -10    1.48    6.50
   7   7  11   72.49   12.76
   7   7  11   69.15    8.77
  -7  -7 -11   73.54   14.77
   7   7  12  122.97   15.31
   7   7  12   80.53   10.50
  -7  -7 -12  112.20   16.85
   7   7  13  600.79   50.04
   7   7  13  529.61   41.65
  -7  -7 -13  547.27   51.69
   7   7  14   53.32   10.83
   7   7  14   69.49   12.65
  -7  -7 -14   82.94   14.28
   7   7  15   15.62    7.16
   7   7  15    2.36    8.14
  -7  -7 -15   21.92    9.35
   7   8 -11    2.72    3.94
   7   8 -11    6.20    4.50
   7   8 -10    8.58    4.02
   7   8 -10    9.58    4.21
   7   8  -9   91.86    8.60
   7   8  -9  128.41   12.33
   7   8  -8  424.65   25.62
   7   8  -8  438.17   30.10
   7   8  -7  221.60   13.47
   7   8  -7  240.95   20.94
   7   8  -6   79.90    6.81
   7   8  -6  132.02   10.96
   7   8  -6   84.45    6.28
   7   8  -5  129.37    9.05
   7   8  -5  120.52    7.73
   7   8  -5  141.54   14.67
   7   8  -4   52.06    4.02
   7   8  -4   57.45    9.23
   7   8  -4   58.11    6.29
   7   8  -3   30.80    5.36
   7   8  -3   38.22    2.81
   7   8  -3   45.12    8.49
   7   8  -2  249.18   18.58
   7   8  -2  241.60    9.98
   7   8  -2  252.98   22.19
   7   8  -1  782.58   44.82
   7   8  -1  632.14   23.99
   7   8  -1  853.30   53.83
   7   8   0  398.53   28.55
   7   8   0  440.22   32.38
   7   8   1   47.97    7.56
   7   8   1   38.02    7.12
   7   8   2   16.20    1.08
   7   8   2   35.30    1.47
   7   8   3  111.31   13.24
  -7  -8  -3  116.70   15.29
   7   8   4   33.84    2.72
  -7  -8  -4   78.88    9.99
   7   8   5  598.29   27.29
  -7  -8  -5  680.20   49.50
   7   8   6  514.56   38.67
   7   8   6  414.88   20.67
  -7  -8  -6  497.50   40.05
   7   8   7  957.55   67.07
   7   8   7  805.29   42.82
   7   8   8  149.05   16.96
   7   8   8  122.69    9.01
   7   8   9  773.73   53.98
   7   8   9  666.65   39.23
  -7  -8  -9  695.28   52.69
   7   8  10  573.53   46.64
   7   8  10  448.90   29.56
  -7  -8 -10  523.94   46.75
   7   8  11  746.86   57.36
   7   8  11  608.48   40.68
  -7  -8 -11  647.29   50.93
   7   8  12  108.57   15.01
   7   8  12   95.86   10.44
  -7  -8 -12   95.93   16.91
   7   8  13  167.88   16.80
   7   8  13  144.79   14.09
  -7  -8 -13  163.06   18.81
   7   8  14   12.17   11.33
   7   8  14   36.85    7.05
  -7  -8 -14   38.27    9.26
   7   8  15   84.58   17.13
   7   8  15   98.27   14.20
  -7  -8 -15  119.64   18.56
   7   9 -10   65.54   10.29
   7   9  -9   46.44    8.99
   7   9  -8  338.13   28.98
   7   9  -7  361.04   30.11
   7   9  -6   79.61    6.76
   7   9  -6  157.26   13.19
   7   9  -5  655.77   36.47
   7   9  -5  770.71   53.06
   7   9  -4 1128.25   65.98
   7   9  -4 1306.45   85.78
   7   9  -3  137.91   12.15
   7   9  -3  147.98   14.58
   7   9  -2 1421.14   87.63
   7   9  -2 1548.16  104.84
   7   9  -1    5.22    5.19
   7   9  -1    1.83    4.03
   7   9   0 1955.60  126.34
   7   9   0 2019.61  140.49
   7   9   1   34.60    7.81
   7   9   2  258.38   23.83
   7   9   3  625.84   46.90
   7   9   3  611.25   48.01
   7   9   4   62.01    8.22
   7   9   5   16.28    1.47
  -7  -9  -5   35.68    8.00
   7   9   6 2015.04  135.82
  -7  -9  -6 1795.56  135.16
   7   9   7  294.40   26.87
   7   9   7  205.30   11.41
   7   9   8  240.05   23.85
   7   9   8  161.20   10.02
   7   9   9   47.04    4.12
   7   9   9   67.76   11.71
  -7  -9  -9   56.27   10.30
   7   9  10   57.94   11.70
   7   9  10   41.80    4.85
  -7  -9 -10   49.24   12.66
   7   9  11  466.41   39.73
   7   9  11  305.94   20.82
  -7  -9 -11  393.22   34.69
   7   9  12  340.01   24.26
   7   9  12  487.68   39.69
  -7  -9 -12  398.15   41.72
   7   9  13  945.46   77.28
   7   9  13  730.84   52.93
  -7  -9 -13  770.24   72.63
   7   9  14  212.41   18.98
   7   9  14  123.79   14.59
  -7  -9 -14  143.30   23.54
   7  10 -10   13.53    6.70
   7  10  -9  174.24   19.47
   7  10  -8   71.71   11.33
   7  10  -7   17.73    7.49
   7  10  -6  192.77   21.04
   7  10  -5   75.85    7.34
   7  10  -5  130.37   14.44
   7  10  -4  553.37   33.68
   7  10  -4  623.94   43.19
   7  10  -3  279.31   20.41
   7  10  -3  340.58   30.57
   7  10  -2   36.12    6.92
   7  10  -2   57.98   10.90
   7  10  -1 3382.81  237.17
   7  10  -1 3853.26  286.80
   7  10   0  461.25   36.31
   7  10   0  427.74   33.03
   7  10   1   10.77    5.67
   7  10   2   16.95    5.65
   7  10   3   76.49   12.07
   7  10   3   74.36    9.70
   7  10   4  432.46   37.39
   7  10   4  412.94   33.57
   7  10   5 1445.66  104.91
   7  10   5 1404.11  104.62
   7  10   7  224.34   25.99
   7  10   8  142.13   17.76
  -7 -10  -8  180.38   22.89
   7  10   9   99.50   15.92
  -7 -10  -9   87.54   14.42
   7  10  10  320.66   34.12
  -7 -10 -10  332.81   38.28
   7  10  11  175.20   21.60
  -7 -10 -11  124.93   22.31
   7  10  12   -3.29    7.52
  -7 -10 -12   10.41    7.33
   7  10  13  305.63   32.05
  -7 -10 -13  246.85   34.21
   7  11  -8  544.08   42.70
   7  11  -7  165.72   19.30
   7  11  -6   59.78   12.64
   7  11  -5  108.15   15.01
   7  11  -4  503.24   31.20
   7  11  -4  675.66   52.69
   7  11  -3  122.83   12.56
   7  11  -3  170.76   20.39
   7  11  -2   25.52    6.27
   7  11  -2   33.64    9.93
   7  11  -1  214.98   19.09
   7  11  -1  230.66   23.17
   7  11   0 1655.92  114.17
   7  11   0 1697.74  130.53
   7  11   1   24.55    7.82
   7  11   2 1518.27  104.43
   7  11   2 1538.06  114.29
   7  11   3  635.11   50.57
   7  11   3  599.12   46.79
   7  11   4   45.48    7.80
   7  11   4   28.34   10.28
   7  11   5  374.37   31.02
   7  11   5  355.23   31.84
   7  11   6 1285.17  102.10
   7  11   7  287.15   28.81
   7  11   8 1502.47  110.16
   7  11   8  866.95   72.04
   7  11   9   43.15    9.33
  -7 -11  -9   39.35   13.17
   7  11  10  181.57   22.26
  -7 -11 -10  145.60   22.42
   7  11  11   17.89    9.80
  -7 -11 -11   14.04   10.05
   7  11  12  168.98   22.64
  -7 -11 -12  117.30   20.11
   7  12  -7  116.15   18.28
   7  12  -6  100.69   16.31
   7  12  -5  609.08   54.74
   7  12  -4   56.14   13.46
   7  12  -3    3.02    4.11
   7  12  -3   15.19    7.52
   7  12  -2  127.66   10.95
   7  12  -2  129.42   18.77
   7  12  -1  713.93   51.12
   7  12  -1  793.23   68.63
   7  12   0  480.50   38.53
   7  12   1   37.87    8.89
   7  12   2   23.01   10.06
   7  12   2   21.65    8.00
   7  12   3   26.95    7.29
   7  12   3   19.20    8.53
   7  12   4   13.23    7.00
   7  12   4    6.18    7.88
   7  12   5   49.76    9.17
   7  12   5   40.71   12.17
   7  12   6  122.73   18.92
   7  12   6  109.18   15.65
   7  12   7   52.40   14.34
   7  12   8   46.30   13.50
   7  12   9   33.21   11.26
   7  12   9   30.55   12.15
   7  12  10   77.12   17.85
   7  12  10   88.22   16.65
   7  12  11  344.61   40.53
   7  12  11  299.19   38.93
   7  13  -5  123.77   19.03
   7  13  -4   19.70   10.35
   7  13  -3   52.71    8.65
   7  13  -3   94.65   15.64
   7  13  -2    6.03    4.62
   7  13  -2    4.67    5.89
   7  13  -1   41.45    8.93
   7  13  -1   49.85   14.00
   7  13   0  164.51   19.10
   7  13   1  242.35   24.58
   7  13   2  392.21   37.36
   7  13   2  426.96   45.62
   7  13   3  230.98   25.24
   7  13   3  244.21   27.99
   7  13   4   32.12   10.07
   7  13   4   31.37   12.68
   7  13   5   55.94   10.83
   7  13   5   64.73   11.61
   7  13   6  321.25   36.32
   7  13   6  308.35   37.41
   7  13   7   41.41   12.63
   7  13   7   23.05   11.30
   7  13   8   10.07    6.99
   7  13   9   96.89   17.42
   7  13   9   55.48   16.86
   7  13  10   14.91    9.98
   7  13  10   13.18    8.97
   7  14  -3   41.46   14.30
   7  14  -2    2.30    3.77
   7  14  -2    9.42    8.05
   7  14  -1   42.88   10.99
   7  14  -1  123.79   16.90
   7  14   0  111.09   15.80
   7  14   1  106.43   16.25
   7  14   1  124.60   16.30
   7  14   2  118.78   18.52
   7  14   2   74.30   14.96
   7  14   3  460.63   51.43
   7  14   3  431.20   43.06
   7  14   4    6.61    7.39
   7  14   4    4.37    6.54
   7  14   5   -1.13    5.69
   7  14   5    1.69    4.67
   7  14   6  416.41   46.17
   7  14   6  401.63   43.53
   7  14   7  317.86   39.19
   7  14   7  268.46   37.60
   7  14   8    9.83    8.43
   7  14   8    2.93    6.12
   7  15   2    7.93    5.78
   7  15   2    7.53    9.36
   7  15   3   40.07   12.89
   7  15   3   44.62   15.05
   8 -12  -1   46.68   13.76
  -8  12   1  227.19   21.59
   8 -12   0   26.04   10.57
  -8  12   0   50.72   12.30
   8 -11  -6   30.09   12.84
  -8  11   6  109.83   16.26
   8 -11  -5   12.81    7.97
   8 -11  -4   -2.63    7.47
  -8  11   4   19.85    6.56
   8 -11  -3    7.43    8.66
  -8  11   3   59.79   11.21
   8 -11  -2   78.50   16.28
  -8  11   2  283.26   24.49
   8 -11  -1  295.30   32.52
  -8  11   1  407.64   35.82
   8 -11   0  117.13   20.78
  -8  11   0  236.07   21.30
   8 -11   1   53.35   13.05
  -8  11  -1   95.20   14.11
   8 -11   2   86.13   15.56
  -8  11  -2  146.46   16.37
  -8  11  -2  118.43   16.21
   8 -11   3   12.10    8.86
  -8  11  -3   32.48    7.95
  -8  11  -3   16.82    8.98
   8 -11   4   -3.06    7.18
  -8  11  -4   14.25    6.07
  -8  11  -4    8.52    7.31
   8 -11   5   10.66    8.01
  -8  11  -5   22.99    9.62
  -8  11  -5   13.89    6.85
   8 -10  -8 1189.23  100.74
  -8  10   8 1367.49  102.28
   8 -10  -7  340.31   35.89
  -8  10   7  375.84   33.40
   8 -10  -6   69.21   16.47
  -8  10   6  243.08   23.44
   8 -10  -5    1.82    5.15
   8 -10  -4   74.82   11.59
   8 -10  -3   28.68   10.09
  -8  10   3   43.05   12.00
   8 -10  -2   99.28   17.54
  -8  10   2  162.69   19.80
   8 -10  -1   41.64   11.75
  -8  10   1   67.69   11.86
   8 -10   0  179.74   22.45
  -8  10   0  218.51   23.22
   8 -10   1  201.58   24.71
  -8  10  -1  280.82   25.24
  -8  10  -1  271.34   22.84
   8 -10   2  187.79   25.50
  -8  10  -2  271.46   24.00
  -8  10  -2  276.90   24.99
   8 -10   3   29.52    9.29
  -8  10  -3   28.74    8.79
  -8  10  -3   30.46    9.26
   8 -10   4  193.68   22.41
  -8  10  -4  217.02   20.40
  -8  10  -4  211.65   24.03
   8 -10   5   12.72   10.02
  -8  10  -5   57.12    7.40
  -8  10  -5   22.12   11.85
   8 -10   6   86.64   14.76
  -8  10  -6  127.62   17.53
   8 -10   7   79.69   14.27
  -8  10  -7   73.13   14.82
   8  -9  -9   42.29    8.96
  -8   9   9   30.43   12.78
   8  -9  -8  286.64   33.90
  -8   9   8  334.05   35.06
   8  -9  -7  192.67   25.74
  -8   9   7  217.26   26.64
   8  -9  -6  580.96   52.87
  -8   9   6  614.02   46.66
   8  -9  -5  122.41   19.58
  -8   9   5  167.15   19.26
   8  -9  -4   18.47    6.21
   8  -9  -3   17.15    7.77
   8  -9  -2   32.29   10.66
  -8   9   2   56.00   11.44
   8  -9  -1 1202.11   84.44
  -8   9   1 1237.90   80.14
   8  -9   0  767.56   59.41
  -8   9   0  783.02   49.95
  -8   9   0  752.21   46.24
   8  -9   1  107.41   14.70
  -8   9  -1  149.16   16.20
  -8   9  -1  145.43   14.31
   8  -9   2   20.52    8.66
  -8   9  -2   28.90    7.64
  -8   9  -2   22.87    7.39
   8  -9   3  186.26   22.56
  -8   9  -3  185.05   19.19
  -8   9  -3  203.04   21.02
   8  -9   4   25.37    7.44
  -8   9  -4   28.86    7.79
  -8   9  -4   32.78    9.38
   8  -9   5  107.40   17.78
  -8   9  -5  137.36   13.66
  -8   9  -5  154.25   17.43
   8  -9   6  107.57   15.93
  -8   9  -6  116.90   11.28
  -8   9  -6   43.35   13.32
   8  -9   7   49.23   11.51
  -8   9  -7   54.42   13.31
   8  -9   8   45.69   11.22
  -8   9  -8   23.71   11.61
   8  -9   9    9.52    7.76
  -8   9  -9    6.73    6.82
   8  -8 -10   14.32    9.24
  -8   8  10   21.54    9.52
   8  -8  -9   87.98   14.03
  -8   8   9  103.95   13.38
   8  -8  -8  271.82   31.01
  -8   8   8  294.43   26.89
   8  -8  -7   11.49    7.76
  -8   8   7   17.00    6.77
   8  -8  -6   12.62    7.00
  -8   8   6    8.30    7.88
   8  -8  -5  217.39   24.87
  -8   8   5  229.25   24.31
   8  -8  -4  492.54   38.14
  -8   8   4  504.84   39.61
   8  -8  -3   42.00   10.35
   8  -8  -2  453.68   38.57
  -8   8   2  466.87   32.78
   8  -8  -1  808.10   58.79
  -8   8   1  823.86   57.70
   8  -8   0 1324.71   91.20
  -8   8   0 1281.37   85.93
  -8   8   0 1213.32   72.10
   8  -8   1  380.79   33.72
  -8   8  -1  386.68   29.45
  -8   8  -1  383.56   24.77
   8  -8   2   25.06    8.09
  -8   8  -2   27.51    8.18
  -8   8  -2   18.44    6.18
   8  -8   3   22.50    8.41
  -8   8  -3   23.62    7.50
  -8   8  -3   18.71    7.08
   8  -8   4   87.02   13.60
  -8   8  -4   71.32   11.75
  -8   8  -4   99.37   12.46
   8  -8   5  295.26   32.01
  -8   8  -5  365.71   26.04
  -8   8  -5  379.53   33.39
   8  -8   6   52.83    9.76
  -8   8  -6   63.95   13.01
  -8   8  -6   61.90    9.07
   8  -8   7   82.04   15.07
  -8   8  -7  116.94   17.84
   8  -8   8  118.38   15.06
  -8   8  -8   34.83   10.18
   8  -8   9   11.82    8.53
  -8   8  -9   10.40    8.35
   8  -8  10   84.81   13.60
  -8   8 -10   27.63   14.31
   8  -7 -11   79.36   16.87
  -8   7  11  120.83   18.42
   8  -7 -10   26.05    9.79
  -8   7  10   22.19   10.11
   8  -7  -9   52.96   12.13
  -8   7   9   57.78   10.05
   8  -7  -8  697.19   58.22
  -8   7   8  721.12   50.17
   8  -7  -7  246.58   23.27
  -8   7   7  243.83   25.18
   8  -7  -6  292.01   28.67
  -8   7   6  295.54   27.63
   8  -7  -5 2223.32  153.14
  -8   7   5 2231.62  152.12
   8  -7  -4  617.56   46.79
  -8   7   4  593.95   43.28
   8  -7  -3  100.41   12.12
  -8   7   3  126.97   14.07
   8  -7  -2   71.53   10.05
   8  -7  -1   70.61   13.01
  -8   7   1   84.73    9.48
  -8   7   1   64.83    7.16
   8  -7   0  896.78   61.99
  -8   7   0  906.49   56.45
  -8   7   0  965.87   54.22
   8  -7   1 5363.41  394.44
  -8   7  -1 5078.77  373.17
  -8   7  -1 5058.65  355.34
   8  -7   2   58.55   10.92
  -8   7  -2   54.83    9.95
  -8   7  -2   56.27    9.22
   8  -7   3   50.02   10.78
  -8   7  -3   45.21    8.68
  -8   7  -3   40.33    8.53
   8  -7   4   88.41   14.13
  -8   7  -4  105.69   10.89
  -8   7  -4   81.39   12.42
   8  -7   5  137.45   17.83
  -8   7  -5  138.88   12.26
  -8   7  -5  152.56   17.05
   8  -7   6 2638.53  197.23
  -8   7  -6 2928.47  185.10
  -8   7  -6 3210.67  226.75
   8  -7   7  603.12   47.52
  -8   7  -7  667.66   52.63
   8  -7   8  287.96   32.20
  -8   7  -8  355.76   34.56
   8  -7   9   92.04   14.40
  -8   7  -9   20.88   12.16
   8  -7  10  112.04   15.63
  -8   7 -10   28.03   14.64
   8  -7  11  111.04   15.81
  -8   7 -11   22.73   14.98
   8  -6 -12  346.39   34.11
  -8   6  12  368.14   30.84
   8  -6 -11  254.36   29.95
  -8   6  11  268.92   27.91
   8  -6 -10   67.17   15.98
  -8   6  10  118.86   16.33
   8  -6  -9  118.32   18.86
  -8   6   9  147.78   18.97
   8  -6  -8   90.05   15.58
  -8   6   8  106.59   14.77
   8  -6  -7  638.61   48.87
  -8   6   7  593.37   45.83
   8  -6  -6  429.32   31.55
  -8   6   6  403.00   29.63
   8  -6  -5 1116.04   75.35
  -8   6   5 1033.18   68.50
   8  -6  -4  812.98   56.13
  -8   6   4  792.25   53.04
   8  -6  -3    6.49    6.56
  -8   6   3   14.84    5.10
   8  -6  -2  461.53   34.87
   8  -6  -1   30.61    9.93
  -8   6   1   39.38    5.01
   8  -6   0  744.35   49.69
  -8   6   0  735.64   47.54
  -8   6   0  687.11   38.54
   8  -6   1  159.99   16.80
  -8   6  -1  156.08   14.20
  -8   6  -1  127.13   12.22
   8  -6   2   90.67   12.84
  -8   6  -2   87.46   11.51
  -8   6  -2   91.64   10.01
   8  -6   3  581.49   44.87
  -8   6  -3  627.73   40.40
  -8   6  -3  583.32   39.62
   8  -6   4  207.93   21.37
  -8   6  -4  213.37   18.36
  -8   6  -4  205.46   19.68
   8  -6   5  191.12   17.72
  -8   6  -5  188.79   15.79
  -8   6  -5  185.94   19.62
   8  -6   6    8.67    4.17
   8  -6   6   11.25    6.94
  -8   6  -6   15.21    7.12
   8  -6   7  674.64   40.87
   8  -6   7  677.35   53.67
  -8   6  -7  713.24   57.06
   8  -6   8   59.17   12.55
  -8   6  -8   86.89   16.39
   8  -6   9  789.85   66.90
  -8   6  -9 1031.49   81.01
   8  -6  10   50.03   11.97
   8  -6  11   38.56   10.48
  -8   6 -11   11.71   11.18
   8  -6  12   10.64    6.56
  -8   6 -12   -3.71    5.36
   8  -5 -12   31.86   11.60
  -8   5  12   35.58    9.94
   8  -5 -11    2.14    4.36
  -8   5  11    0.21    5.01
   8  -5 -10   26.98    7.95
  -8   5  10    6.08    7.36
   8  -5  -9   14.03    8.71
  -8   5   9   27.89    8.27
   8  -5  -8   49.93   11.37
  -8   5   8   51.27   10.24
   8  -5  -7  130.75   19.11
  -8   5   7  179.96   16.60
   8  -5  -6  198.47   18.36
  -8   5   6  123.61   13.12
   8  -5  -5 7348.66  574.69
  -8   5   5 7232.26  569.05
   8  -5  -4  209.36   18.30
  -8   5   4  143.58   16.78
   8  -5  -3   22.59    7.09
  -8   5   3   13.10    5.33
   8  -5  -2  192.22   16.04
  -8   5   2  136.75   16.61
   8  -5  -1  754.69   45.45
  -8   5   1  707.52   35.48
   8  -5   0  875.36   51.54
  -8   5   0  856.52   44.23
   8  -5   1 1929.40  119.15
  -8   5  -1 1880.51  106.98
  -8   5  -1 1918.85  118.69
   8  -5   2  887.51   53.08
  -8   5  -2  909.66   55.64
  -8   5  -2  870.13   52.47
   8  -5   3   45.94    8.82
  -8   5  -3   75.58    7.81
  -8   5  -3   72.88   10.05
   8  -5   4  318.07   23.83
  -8   5  -4  282.42   20.94
  -8   5  -4  299.38   24.99
   8  -5   5  252.08   21.07
  -8   5  -5  244.64   18.23
  -8   5  -5  265.21   24.98
   8  -5   6 1921.04  118.21
   8  -5   6 2032.16  133.97
  -8   5  -6 1973.01  132.23
   8  -5   7  514.71   32.16
   8  -5   7  541.77   42.80
  -8   5  -7  563.29   40.47
   8  -5   8   17.08    4.78
   8  -5   8   19.64    6.49
  -8   5  -8   24.63    6.89
   8  -5   9  250.34   29.13
  -8   5  -9  254.81   24.85
   8  -5  10  360.28   36.95
  -8   5 -10  461.02   44.11
   8  -5  11    4.05    6.84
  -8   5 -11    5.91    7.44
   8  -5  12   15.40    6.04
  -8   5 -12    0.20    6.13
   8  -5  13   82.69   13.73
  -8   5 -13   10.95   13.61
   8  -4 -13  812.58   72.52
   8  -4 -12  214.12   26.03
  -8   4  12  252.15   24.10
   8  -4 -11  122.38   15.76
  -8   4  11   97.78   14.21
   8  -4 -10  393.96   35.43
  -8   4  10  361.97   26.40
   8  -4  -9  395.86   29.70
  -8   4   9  374.66   29.97
   8  -4  -8   80.93   12.32
  -8   4   8   98.33   12.54
   8  -4  -7  111.60   15.35
  -8   4   7  108.66   12.93
   8  -4  -6  859.97   58.40
  -8   4   6  811.25   52.39
   8  -4  -5  801.83   53.93
  -8   4   5  824.90   47.95
   8  -4  -4    6.94    4.46
  -8   4   4   14.15    4.68
   8  -4  -3  574.40   34.75
  -8   4   3  555.59   35.93
   8  -4  -2  899.65   59.04
  -8   4   2  934.18   43.13
  -8   4   2  958.71   54.64
   8  -4  -1   36.18    7.67
  -8   4   1   32.66    4.80
  -8   4   1   40.60    6.24
   8  -4   0   75.54   11.18
  -8   4   0   83.43    7.62
   8  -4   1  876.64   54.11
  -8   4  -1  842.37   45.69
   8  -4   2 1009.29   63.91
  -8   4  -2 1004.23   56.14
  -8   4  -2  989.07   59.98
   8  -4   3  264.66   19.31
  -8   4  -3  252.21   19.05
  -8   4  -3  255.48   20.36
   8  -4   4  190.82   16.39
  -8   4  -4  203.45   18.97
  -8   4  -4  195.66   15.59
   8  -4   5  199.76   20.27
   8  -4   5  195.51   16.75
  -8   4  -5  202.53   19.60
   8  -4   6  134.35   13.22
   8  -4   6  209.46   18.60
  -8   4  -6  173.11   17.22
   8  -4   7 3206.52  204.87
   8  -4   7 3310.32  225.30
  -8   4  -7 3368.86  228.37
   8  -4   8  203.60   14.97
   8  -4   8  230.09   24.48
  -8   4  -8  196.83   23.70
   8  -4   9   12.10    5.41
  -8   4  -9    5.76    7.37
   8  -4  10  111.51   15.64
  -8   4 -10  104.41   18.63
   8  -4  11   11.46    6.93
  -8   4 -11    2.62    5.77
   8  -4  12   11.00    5.83
  -8   4 -12    0.58    7.78
   8  -4  13   28.29   11.79
   8  -4  14   16.20   10.26
   8  -3 -13   97.26   13.40
   8  -3 -12  121.37   18.76
   8  -3 -11   14.39    7.70
  -8   3  11    8.18    6.37
   8  -3 -10  270.51   23.52
  -8   3  10  266.21   19.99
   8  -3  -9 1554.13  104.26
  -8   3   9 1523.03   95.85
   8  -3  -8  425.53   33.95
  -8   3   8  401.73   29.39
   8  -3  -7  183.64   19.44
  -8   3   7  190.81   18.17
   8  -3  -6  681.58   42.77
  -8   3   6  695.26   43.81
   8  -3  -5  685.20   44.02
  -8   3   5  686.73   39.94
   8  -3  -4 1284.36   72.82
  -8   3   4 1280.23   71.81
   8  -3  -3 1327.98   75.33
  -8   3   3 1247.18   73.46
   8  -3  -2  289.68   22.07
  -8   3   2  278.66   13.39
  -8   3   2  266.22   20.52
   8  -3  -1  702.27   43.98
  -8   3   1  701.64   42.08
  -8   3   1  670.64   31.71
   8  -3   0 2064.15  124.96
  -8   3   0 1880.93  100.98
  -8   3   0 2010.66  121.87
   8  -3   1 1142.76   64.63
  -8   3  -1 1073.69   59.33
   8  -3   2   13.79    5.14
  -8   3  -2    9.30    5.08
  -8   3  -2    5.99    4.34
   8  -3   3  871.71   53.35
  -8   3  -3  831.55   50.18
  -8   3  -3  881.01   52.26
   8  -3   4  977.89   60.86
  -8   3  -4  915.28   55.32
   8  -3   5  463.65   29.33
   8  -3   5  450.46   29.09
  -8   3  -5  451.05   32.19
   8  -3   6   17.59    5.85
   8  -3   6   25.44    5.76
  -8   3  -6   15.83    7.36
   8  -3   7  141.07   12.69
   8  -3   7  146.62   14.82
  -8   3  -7  177.44   16.67
   8  -3   8   33.62    6.19
   8  -3   8   40.70    9.21
  -8   3  -8   36.58    8.13
   8  -3   9   21.37    5.53
   8  -3   9   27.66    6.93
  -8   3  -9   28.96    7.21
   8  -3  10   26.20    9.26
  -8   3 -10   25.99   10.16
   8  -3  11   24.37    9.20
  -8   3 -11   26.99    8.09
   8  -3  12   -1.24    5.92
  -8   3 -12    7.56    5.39
   8  -3  13  123.14   16.73
   8  -3  14   22.53   10.69
  -8   2  11  262.06   22.05
  -8   2  10   18.05    6.33
  -8   2   9  117.26   11.86
  -8   2   8  459.32   27.21
  -8   2   7  224.74   18.08
  -8   2   6  385.34   26.26
  -8   2   5  795.30   47.53
   8  -2  -4 1032.30   57.17
  -8   2   4 1006.76   59.14
   8  -2  -3  417.39   27.73
  -8   2   3  407.63   23.30
  -8   2   3  374.27   16.91
   8  -2  -2   40.38    5.91
  -8   2   2   26.22    3.50
  -8   2   2   43.18    5.80
   8  -2  -1  115.50   11.74
  -8   2   1   93.99    7.43
  -8   2   1  106.51    9.64
   8  -2   0  184.87   16.29
  -8   2   0  195.81   12.46
  -8   2   0  194.73   15.73
   8  -2   1 2273.81  135.89
  -8   2  -1 2104.72  121.03
   8  -2   2   21.79    5.23
  -8   2  -2   17.85    5.54
   8  -2   3   63.69    9.76
   8  -2   3   54.59    6.59
  -8   2  -3   69.30    8.88
   8  -2   4  312.07   23.22
   8  -2   4  280.82   17.90
  -8   2  -4  288.31   22.25
   8  -2   5  101.88   10.98
   8  -2   5  134.27   11.51
  -8   2  -5   96.21   13.36
   8  -2   6  337.21   26.98
   8  -2   6  306.98   21.75
  -8   2  -6  308.54   26.97
   8  -2   7   15.55    5.88
   8  -2   7    9.37    6.42
  -8   2  -7   22.27    7.48
   8  -2   8  534.88   33.85
   8  -2   8  568.05   38.40
  -8   2  -8  525.05   37.96
   8  -2   9  298.58   21.48
   8  -2   9  319.90   29.68
  -8   2  -9  293.10   30.33
   8  -2  10    5.94    4.14
   8  -2  10   11.33    4.67
  -8   2 -10    6.56    7.33
   8  -2  11   36.30    8.64
  -8   2 -11   43.47    9.20
   8  -2  12   46.51    8.87
   8  -2  13  172.25   23.87
   8  -2  14   56.69   11.43
  -8   2 -14   46.70   15.76
   8  -1 -13  163.52   22.53
   8  -1 -12  921.01   74.50
   8  -1 -11  201.88   23.43
   8  -1 -10  207.95   23.22
  -8   1  10  194.34   16.79
  -8   1   9  857.17   51.49
  -8   1   8 2544.21  157.55
  -8   1   7  112.05   12.13
  -8   1   6  394.04   26.42
  -8   1   5   44.15    8.26
  -8   1   4   71.65    7.19
  -8   1   3  432.83   18.30
  -8   1   3  453.37   28.97
  -8   1   2  134.94    9.31
  -8   1   2  157.90   13.66
  -8   1   1  376.40   19.97
  -8   1   1  389.00   26.09
  -8   1   0   82.57    7.83
  -8   1   0   90.34    7.73
  -8   1  -1   43.67    6.44
  -8   1  -1   56.01    8.07
   8  -1   2  394.31   23.35
  -8   1  -2  380.59   24.41
   8  -1   3  602.09   37.59
  -8   1  -3  556.16   35.87
   8  -1   4  766.36   44.21
  -8   1  -4  680.71   42.60
   8  -1   5    9.71    4.84
  -8   1  -5    2.69    4.96
   8  -1   6   87.87    9.57
  -8   1  -6   87.03   11.84
   8  -1   7   42.82    7.04
  -8   1  -7   28.05    6.74
   8  -1   8 1413.15   83.80
  -8   1  -8 1410.69   90.82
   8  -1   9  673.77   41.79
  -8   1  -9  662.92   52.24
   8  -1  10   27.80    5.82
  -8   1 -10   17.24    6.61
   8  -1  11   16.22    4.93
  -8   1 -11   13.75    8.40
  -8   1 -14   10.26    7.32
  -8   1 -15   42.35   14.94
   8   0 -13  155.89   21.28
   8   0 -12  126.26   14.39
   8   0 -11  132.49   15.03
   8   0 -10   37.20    7.81
  -8   0  10   40.59    6.44
   8   0  -9  992.92   69.43
  -8   0   9  928.75   55.20
   8   0  -8  420.14   33.33
  -8   0   8  400.34   26.44
   8   0  -7  129.84   12.21
  -8   0   7  116.83   12.15
   8   0  -6  175.19   16.89
  -8   0   6  190.22   15.66
   8   0  -5 1918.60  114.11
  -8   0   5 1940.38  112.60
   8   0  -4  482.31   30.42
  -8   0   4  477.29   30.51
   8   0  -3  162.29   14.21
  -8   0   3  133.80    7.90
  -8   0   3  160.05   13.47
   8   0  -2  107.07    9.79
  -8   0   2  104.84    9.82
  -8   0   2   69.98    5.68
   8   0  -1  210.11   15.85
  -8   0   1  209.53   12.84
  -8   0   1  216.65   16.92
   8   0   0  113.31   11.33
  -8   0   0  108.72    9.53
   8   0   1  113.67   11.93
   8   0   1  143.38   12.54
  -8   0  -1  120.47   11.66
   8   0   2   63.55    7.87
   8   0   2   49.47    8.37
  -8   0  -2   65.70    8.80
   8   0   3  115.03    8.85
   8   0   3  110.25   11.30
  -8   0  -3  104.16   11.47
   8   0   4  324.77   22.06
   8   0   4  293.26   19.05
  -8   0  -4  267.32   21.41
   8   0   5 1035.87   58.04
   8   0   5 1013.53   61.34
  -8   0  -5 1059.47   64.04
   8   0   6  311.81   22.68
   8   0   6  280.79   18.74
  -8   0  -6  307.89   25.80
   8   0   7   19.45    4.90
   8   0   7   13.23    5.80
  -8   0  -7   13.68    5.82
   8   0   8 1088.53   68.22
   8   0   8 1120.24   67.88
  -8   0  -8 1047.61   76.98
   8   0   9 5264.47  371.19
  -8   0  -9 5155.67  398.90
   8   0  10  687.75   43.78
  -8   0 -10  724.99   53.44
   8   0  11   74.76    9.72
  -8   0 -11   81.40   14.99
  -8   0 -13   63.79   15.11
  -8   0 -14  266.01   34.49
  -8   0 -15  511.56   57.67
   8   1 -13   20.34    9.97
   8   1 -12  128.01   14.83
   8   1 -11  165.57   18.19
   8   1 -10   49.13   10.49
   8   1  -9  421.31   32.11
  -8  -1   9  378.24   24.48
   8   1  -8   68.18   10.69
  -8  -1   8   70.51    7.74
   8   1  -7 1032.49   63.38
  -8  -1   7  984.38   57.43
   8   1  -6  774.89   45.32
   8   1  -6  538.54   20.92
  -8  -1   6  762.64   41.85
   8   1  -5 1679.12   90.30
   8   1  -5 1324.16   59.34
  -8  -1   5 1638.02   92.50
   8   1  -4  308.30   20.86
   8   1  -4  277.07   13.22
  -8  -1   4  317.14   21.57
   8   1  -3  177.61   14.31
  -8  -1   3  154.47    8.62
  -8  -1   3  168.22   12.33
   8   1  -2 2938.45  178.13
   8   1  -2 3047.33  176.40
  -8  -1   2 2820.68  154.43
   8   1  -1  153.32   12.50
  -8  -1   1  132.69   10.17
   8   1   0   13.37    4.51
   8   1   0   10.60    5.18
  -8  -1   0    7.27    3.77
   8   1   1  276.89   18.07
   8   1   1  277.49   18.20
  -8  -1  -1  268.01   17.52
   8   1   2 5846.37  400.17
   8   1   2 5648.73  393.06
  -8  -1  -2 5826.45  406.46
   8   1   3  341.52   23.38
  -8  -1  -3  362.62   26.08
   8   1   4   84.39    9.49
   8   1   4   72.66    9.83
  -8  -1  -4   62.62   11.18
   8   1   5   87.77   10.16
   8   1   5   74.09    9.45
  -8  -1  -5   69.44   11.79
   8   1   6 1253.17   74.18
   8   1   6 1273.11   75.50
  -8  -1  -6 1189.80   73.14
   8   1   7   18.39    6.07
   8   1   7   20.95    6.27
  -8  -1  -7   15.70    6.35
   8   1   8  939.39   58.74
   8   1   8  974.52   62.82
  -8  -1  -8  867.26   63.80
   8   1   9   33.60    6.86
   8   1   9   35.67    7.93
  -8  -1  -9   22.77   10.24
   8   1  10  442.38   36.68
   8   1  10  389.91   28.17
  -8  -1 -10  413.24   38.86
   8   1  11    7.35    6.74
   8   1  11   12.60    5.46
   8   1  12  349.14   26.44
   8   1  12  319.71   32.86
   8   1  13  317.37   29.49
  -8  -1 -13  340.32   35.34
   8   1  14   35.87   10.30
  -8  -1 -14   10.15    8.66
   8   1  15   13.26    7.30
  -8  -1 -15   11.61    8.39
   8   2 -13  301.92   31.56
   8   2 -12  645.19   48.16
   8   2 -11  945.03   66.72
   8   2 -11  807.14   46.12
   8   2 -10  281.02   24.05
   8   2 -10  277.85   18.50
   8   2  -9  405.47   30.83
   8   2  -9  347.94   21.43
   8   2  -8   22.08    5.04
   8   2  -8   31.85    7.93
   8   2  -7 1847.44  108.37
   8   2  -7 2009.44  123.35
   8   2  -7 1502.87   69.97
   8   2  -6 1938.80  113.92
   8   2  -6 1615.86   78.87
   8   2  -6 2052.29  120.75
   8   2  -5  372.50   22.99
   8   2  -5  367.37   24.25
   8   2  -5  298.53   13.47
   8   2  -4   36.69    6.51
   8   2  -4   38.32    6.64
   8   2  -4   29.33    3.04
   8   2  -3  108.76    8.76
   8   2  -3   78.01    7.79
  -8  -2   3   67.88    6.02
   8   2  -2 4044.92  249.07
   8   2  -2 3944.62  254.67
  -8  -2   2 3466.89  210.51
   8   2  -1 2112.98  125.62
   8   2  -1 2177.63  120.08
  -8  -2   1 1878.19  106.23
   8   2   0  686.75   35.66
  -8  -2   0  602.27   34.01
   8   2   1  320.32   19.50
   8   2   1  314.66   21.85
  -8  -2  -1  331.63   21.54
   8   2   2 1221.23   64.17
   8   2   2 1204.78   72.50
  -8  -2  -2 1167.13   68.11
   8   2   3 3222.99  193.53
   8   2   3 3362.16  214.74
  -8  -2  -3 3277.88  208.16
   8   2   4 1269.99   69.44
   8   2   4 1203.70   69.78
  -8  -2  -4 1337.82   82.38
   8   2   5  980.78   55.58
   8   2   5  955.27   59.71
  -8  -2  -5 1005.19   66.71
   8   2   6 1306.98   76.21
   8   2   6 1237.97   72.76
  -8  -2  -6 1275.62   85.95
   8   2   7 1674.70  100.69
   8   2   7 1653.47   98.52
  -8  -2  -7 1712.79  113.91
   8   2   8  251.72   20.20
   8   2   8  274.78   21.24
  -8  -2  -8  209.44   24.59
   8   2   9 1505.71   94.07
   8   2   9 1541.76   98.10
  -8  -2  -9 1400.47  103.89
   8   2  10   14.84    6.48
   8   2  10   20.41    5.83
  -8  -2 -10   10.47    6.33
   8   2  11  661.59   50.76
   8   2  11  657.76   45.40
   8   2  12  196.75   18.57
   8   2  12  205.60   24.34
   8   2  13   82.34   10.41
   8   2  13   73.44   10.71
  -8  -2 -13   88.67   14.13
   8   2  14  129.18   16.60
  -8  -2 -14   59.35   15.02
   8   2  15   18.23    9.12
  -8  -2 -15    5.61   10.89
   8   3 -13   22.88    7.39
   8   3 -12  179.98   20.54
   8   3 -11  285.74   28.02
   8   3 -10  109.02   12.29
   8   3 -10   72.88    6.77
   8   3  -9  515.61   36.47
   8   3  -9  456.96   26.59
   8   3  -8  144.23   14.53
   8   3  -8  127.58    9.35
   8   3  -8  100.44    6.22
   8   3  -7   90.45    7.72
   8   3  -7   63.77    8.32
   8   3  -7   51.73    4.02
   8   3  -6   66.43    6.87
   8   3  -6   67.86    5.19
   8   3  -6   76.47    8.56
   8   3  -5  444.59   27.22
   8   3  -5  445.80   27.95
   8   3  -5  419.91   20.11
   8   3  -4  132.12   10.98
   8   3  -4  124.04    8.19
   8   3  -4  132.43   11.98
   8   3  -3  107.38    8.89
   8   3  -3   92.87    7.77
   8   3  -3   96.41   10.32
   8   3  -2  673.48   35.04
   8   3  -2  659.16   39.05
  -8  -3   2  609.06   33.58
   8   3  -1  450.93   29.14
   8   3  -1  454.47   24.90
  -8  -3   1  418.75   24.13
   8   3   0    8.10    3.70
  -8  -3   0   10.36    4.08
   8   3   1  902.20   45.91
  -8  -3  -1  948.28   53.54
   8   3   2  842.27   42.35
   8   3   2  824.24   50.21
  -8  -3  -2  755.35   46.62
   8   3   3  107.48    9.52
   8   3   3  111.67   11.60
  -8  -3  -3  102.94   10.87
   8   3   4   85.99    9.06
   8   3   4  128.72   12.42
  -8  -3  -4  103.26   10.07
   8   3   5  596.29   34.20
   8   3   5  617.54   40.44
  -8  -3  -5  617.44   42.39
   8   3   6 1619.57   93.15
   8   3   6 1622.10  101.40
  -8  -3  -6 1575.12  100.65
   8   3   7 1817.62  110.44
   8   3   7 1749.06  111.40
  -8  -3  -7 1934.78  124.49
   8   3   8   60.82   10.29
   8   3   8   62.72    9.67
  -8  -3  -8   86.22   10.10
   8   3   9   79.44    9.64
   8   3   9   93.94   11.28
  -8  -3  -9   98.65   15.95
   8   3  10  319.14   26.40
   8   3  10  302.56   24.50
  -8  -3 -10  259.77   24.98
   8   3  11  174.81   17.40
   8   3  11  122.89   14.29
   8   3  12 1059.96   74.56
   8   3  12 1049.76   77.96
  -8  -3 -12 1079.02   84.75
   8   3  13    9.15    5.68
   8   3  13   13.91    7.22
  -8  -3 -13    4.89    9.25
   8   3  14    6.90    8.64
  -8  -3 -14   20.51    7.44
   8   3  15   35.77   11.98
  -8  -3 -15   47.34   14.99
   8   4 -13  349.94   33.85
   8   4 -12    4.39    6.19
   8   4 -11  788.25   59.64
   8   4 -10  274.81   24.90
   8   4  -9   28.54    6.67
   8   4  -9   20.79    3.80
   8   4  -8  257.00   19.67
   8   4  -8  221.96   13.19
   8   4  -8  193.71   10.58
   8   4  -7   57.78    7.68
   8   4  -7   58.32    6.19
   8   4  -7   47.27    3.97
   8   4  -6  535.73   30.48
   8   4  -6  482.49   25.29
   8   4  -6  564.32   32.64
   8   4  -5 1155.43   62.27
   8   4  -5 1012.49   53.45
   8   4  -5 1149.90   63.08
   8   4  -4   93.55    8.79
   8   4  -4   82.68    7.52
   8   4  -4  136.49   10.08
   8   4  -3  424.81   23.18
   8   4  -3  392.05   21.22
   8   4  -3  419.23   27.11
   8   4  -2 3042.89  176.62
   8   4  -2 2951.13  171.43
   8   4  -2 2973.07  189.39
   8   4  -1  701.47   42.45
   8   4  -1  701.04   34.63
  -8  -4   1  643.39   37.67
   8   4   0  693.32   34.45
   8   4   0  685.22   43.26
  -8  -4   0  653.64   38.98
   8   4   1  333.37   18.42
  -8  -4  -1  299.42   22.74
   8   4   2   14.64    3.84
  -8  -4  -2   21.42    5.90
   8   4   3  821.82   41.58
   8   4   3  786.33   51.14
  -8  -4  -3  808.46   51.13
   8   4   4  951.98   51.26
   8   4   4  979.46   61.29
  -8  -4  -4  961.23   62.98
   8   4   5   43.50    5.54
   8   4   5   40.78    8.33
  -8  -4  -5   33.27    8.40
   8   4   6  224.97   16.23
   8   4   6  222.69   20.30
  -8  -4  -6  212.14   21.20
   8   4   7  279.42   18.77
   8   4   7  263.49   22.77
  -8  -4  -7  273.36   26.69
   8   4   8   25.81    6.70
   8   4   8   36.84    6.29
  -8  -4  -8   31.88    9.80
   8   4   9  100.55   11.09
   8   4   9  120.77   13.16
  -8  -4  -9  103.86   16.05
   8   4  10   95.13   11.58
   8   4  10   80.33   11.20
   8   4  11  331.31   28.53
   8   4  11  315.68   27.22
   8   4  12  684.51   49.23
   8   4  12  658.52   52.45
  -8  -4 -12  654.75   60.78
   8   4  13  337.31   28.64
   8   4  13  344.76   29.15
  -8  -4 -13  312.30   37.50
   8   4  14   44.92   10.55
   8   4  14   28.53    8.99
  -8  -4 -14   39.62   12.91
   8   4  15   61.93   13.19
  -8  -4 -15   66.44   14.41
   8   5 -12  143.46   17.36
   8   5 -11   48.98    9.53
   8   5 -10  462.58   34.76
   8   5  -9  355.89   24.82
   8   5  -9  308.36   17.09
   8   5  -9  283.40   15.34
   8   5  -8  412.95   27.29
   8   5  -8  358.25   19.23
   8   5  -8  379.99   20.69
   8   5  -7  332.41   22.41
   8   5  -7  297.19   17.08
   8   5  -7  306.55   18.57
   8   5  -6 1539.80   83.74
   8   5  -6 1674.13   91.53
   8   5  -6 1691.80   94.31
   8   5  -5 1945.60  108.09
   8   5  -5 1884.16  106.58
   8   5  -5 1887.57  109.74
   8   5  -4  118.97    8.58
   8   5  -4  104.35    9.17
   8   5  -4  112.53   10.74
   8   5  -3    6.40    2.33
   8   5  -3    7.87    2.86
   8   5  -3    5.16    4.19
   8   5  -2  298.89   20.37
   8   5  -2  296.82   16.68
   8   5  -2  296.71   21.49
   8   5  -1  114.66   12.49
   8   5  -1  123.48    8.34
   8   5   0  621.96   30.30
   8   5   0  655.01   41.12
  -8  -5   0  581.98   38.69
   8   5   1  161.03    9.67
   8   5   1  150.48   12.57
  -8  -5  -1  134.34   14.96
   8   5   2   33.84    4.25
  -8  -5  -2   21.88    7.48
   8   5   3  863.25   42.12
   8   5   3  869.82   54.17
  -8  -5  -3  795.15   52.53
   8   5   4  523.75   26.01
   8   5   4  482.40   32.79
  -8  -5  -4  471.43   35.34
   8   5   5   57.41    5.37
   8   5   5   43.44    8.61
  -8  -5  -5   50.01   10.14
   8   5   6 1932.13  110.66
   8   5   6 1906.91  120.17
  -8  -5  -6 1881.02  130.07
   8   5   7   14.38    4.47
   8   5   7   11.92    4.93
  -8  -5  -7   16.48    7.38
   8   5   8  706.49   40.50
   8   5   8  812.06   51.27
  -8  -5  -8  704.36   50.44
   8   5   9  147.01   14.59
   8   5   9  142.86   14.25
  -8  -5  -9  178.52   19.43
   8   5  10   -2.09    5.84
   8   5  10   12.00    4.43
   8   5  11    4.39    4.18
   8   5  11   -3.70    3.61
   8   5  12   95.55   13.12
   8   5  12   71.97   12.09
  -8  -5 -12   86.84   15.26
   8   5  13 1027.18   76.03
   8   5  13  894.89   68.76
  -8  -5 -13 1004.86   86.06
   8   5  14  185.80   20.94
   8   5  14  182.18   21.96
  -8  -5 -14  181.66   25.87
   8   5  15   10.58    8.30
  -8  -5 -15   16.69    9.77
   8   6 -12  310.22   27.77
   8   6 -11  889.75   62.32
   8   6 -10   13.45    5.42
   8   6  -9   30.64    5.46
   8   6  -9   21.63    3.81
   8   6  -8  592.63   35.02
   8   6  -8  501.90   28.30
   8   6  -8  491.22   26.14
   8   6  -7 1855.50  108.36
   8   6  -7 2238.27  128.76
   8   6  -7 1877.21  103.92
   8   6  -6   73.52    7.41
   8   6  -6   90.95    7.13
   8   6  -6   72.93    6.25
   8   6  -5  378.36   19.92
   8   6  -5  367.21   23.98
   8   6  -5  369.46   21.87
   8   6  -4  825.85   41.90
   8   6  -4  821.74   47.58
   8   6  -4  787.78   44.52
   8   6  -3   15.32    2.82
   8   6  -3   16.37    5.36
   8   6  -3   20.02    4.99
   8   6  -2    7.85    4.20
   8   6  -2    4.54    1.87
   8   6  -2    7.36    4.20
   8   6  -1  144.49    8.30
   8   6  -1  149.18   13.81
   8   6  -1  143.78   13.50
   8   6   0   40.36    3.39
   8   6   0   40.37    8.47
  -8  -6   0   35.92    8.90
   8   6   1   14.06    2.30
   8   6   1   18.00    5.80
  -8  -6  -1   21.16    4.79
   8   6   2  283.26   14.27
   8   6   2  296.42   23.81
  -8  -6  -2  264.62   23.15
   8   6   3    3.44    1.99
  -8  -6  -3    1.00    5.30
   8   6   4  140.37    8.83
   8   6   4  154.51   13.53
  -8  -6  -4  127.59   14.02
   8   6   5   81.61    6.85
   8   6   5   92.06   12.18
  -8  -6  -5   90.00   13.34
   8   6   6   37.53    4.08
   8   6   6   43.02    8.45
  -8  -6  -6   33.94    9.90
   8   6   7    0.33    5.19
   8   6   7    7.44    2.95
  -8  -6  -7    3.66    4.17
   8   6   8   26.24    4.89
   8   6   8   28.28    8.36
  -8  -6  -8   40.60    9.80
   8   6   9  635.53   49.06
   8   6   9  571.22   34.90
   8   6  10   34.46    9.62
   8   6  10   30.00    6.91
   8   6  11  168.76   18.90
   8   6  11  145.84   14.15
  -8  -6 -11  146.30   22.81
   8   6  12  342.57   31.80
   8   6  12  312.87   28.25
  -8  -6 -12  327.58   38.16
   8   6  13   30.75   10.04
   8   6  13   33.96    8.73
  -8  -6 -13   26.94   11.39
   8   6  14   77.19   13.25
   8   6  14   60.36   12.80
  -8  -6 -14   63.24   16.54
   8   6  15  124.06   18.35
   8   6  15  122.29   16.44
  -8  -6 -15  109.07   21.79
   8   7 -11   32.01    7.07
   8   7 -10   86.86    8.55
   8   7  -9    3.90    3.38
   8   7  -9    1.88    2.78
   8   7  -8   11.44    4.07
   8   7  -8   11.09    4.31
   8   7  -7   17.44    4.57
   8   7  -7   13.85    3.91
   8   7  -7   16.54    3.36
   8   7  -6   18.95    3.12
   8   7  -6   15.14    5.55
   8   7  -6   15.32    3.37
   8   7  -5  100.04    7.03
   8   7  -5  102.09   10.49
   8   7  -5  107.92    9.24
   8   7  -4  420.77   20.93
   8   7  -4  438.54   30.54
   8   7  -4  389.57   24.09
   8   7  -3  105.10    6.69
   8   7  -3  138.11   12.22
   8   7  -3  122.51   10.59
   8   7  -2   86.18   11.60
   8   7  -2  125.51   10.51
   8   7  -2   83.65    5.69
   8   7  -1  180.94    9.05
   8   7  -1  199.12   18.78
   8   7  -1  186.72   16.46
   8   7   0  222.30   11.45
   8   7   0  201.47   19.91
   8   7   0  206.93   18.53
   8   7   1  296.84   14.37
   8   7   1  295.59   23.83
  -8  -7  -1  268.10   21.44
   8   7   2  713.34   32.53
   8   7   2  733.32   49.44
  -8  -7  -2  696.07   47.37
   8   7   3  396.78   18.67
  -8  -7  -3  422.19   34.25
   8   7   4  572.50   27.10
  -8  -7  -4  621.13   45.49
   8   7   5  529.22   26.15
   8   7   5  537.29   37.04
  -8  -7  -5  583.32   44.42
   8   7   6  136.54   13.30
   8   7   6  104.20    7.78
  -8  -7  -6  181.07   17.95
   8   7   7    0.12    2.16
   8   7   7    0.56    4.97
  -8  -7  -7    7.94    5.15
   8   7   8   54.06    9.69
   8   7   8   34.36    5.05
  -8  -7  -8   56.94   11.35
   8   7   9 2826.72  199.84
   8   7   9 2352.24  149.71
   8   7  10   65.19   11.57
   8   7  10   54.41    7.54
   8   7  11   17.27    7.97
   8   7  11   11.01    5.31
  -8  -7 -11   21.48    9.12
   8   7  12  139.94   16.90
   8   7  12  111.62   12.70
  -8  -7 -12  112.52   17.41
   8   7  13  594.37   50.61
   8   7  13  516.59   41.71
  -8  -7 -13  522.59   54.68
   8   7  14  533.45   48.25
   8   7  14  461.20   40.50
  -8  -7 -14  458.65   51.47
   8   7  15   29.37   10.92
   8   7  15   26.78    9.68
  -8  -7 -15   41.20    9.67
   8   8  -9   50.50    6.37
   8   8  -9   63.02    8.27
   8   8  -8  111.53    9.72
   8   8  -8  121.90   12.17
   8   8  -7    1.47    3.55
   8   8  -7    3.45    2.39
   8   8  -6   77.21    6.69
   8   8  -6  118.81   10.89
   8   8  -6   79.20    6.68
   8   8  -5   21.10    2.88
   8   8  -5   24.84    5.78
   8   8  -5   20.74    4.66
   8   8  -4   58.53    4.38
   8   8  -4   88.40   10.06
   8   8  -4   70.84    7.64
   8   8  -3  149.71   14.64
   8   8  -3  107.62    6.76
   8   8  -3  109.95   10.38
   8   8  -2   11.48    1.95
   8   8  -2   10.35    6.12
   8   8  -2   27.31    5.39
   8   8  -1  286.99   12.63
   8   8  -1  290.59   23.57
   8   8  -1  284.82   21.80
   8   8   0  656.65   28.02
   8   8   0  815.29   54.35
   8   8   0  805.94   48.48
   8   8   1  110.82   14.72
   8   8   1   85.25    9.87
   8   8   2   25.38    5.02
   8   8   2   17.46    3.56
   8   8   2   12.04    1.73
   8   8   3   43.96    8.37
   8   8   3   25.35    2.28
  -8  -8  -3   37.87    9.35
   8   8   4  767.78   34.63
  -8  -8  -4 1074.84   71.08
   8   8   5  576.74   27.26
  -8  -8  -5  790.77   56.52
   8   8   6  697.25   49.72
   8   8   6  509.96   26.37
  -8  -8  -6  627.65   50.50
   8   8   7  311.89   31.01
  -8  -8  -7  293.36   32.39
   8   8   8   -4.04    5.18
   8   8   8    1.87    1.89
   8   8   9   99.72   13.45
   8   8   9   66.30    6.51
   8   8  10 1375.40   92.98
   8   8  10  909.07   57.72
  -8  -8 -10 1176.74   84.36
   8   8  11   27.88   10.12
   8   8  11   20.41    4.59
  -8  -8 -11   26.05   10.28
   8   8  12 1051.26   77.67
   8   8  12  832.99   59.24
  -8  -8 -12  840.20   76.10
   8   8  13  175.54   22.95
   8   8  13  137.34   16.76
  -8  -8 -13  196.36   24.59
   8   8  14  134.56   14.91
   8   8  14  150.38   21.27
  -8  -8 -14  142.78   21.65
   8   9 -10   23.81    6.02
   8   9  -9   32.88    7.94
   8   9  -8  458.27   35.66
   8   9  -7  147.22   15.03
   8   9  -6   11.97    3.04
   8   9  -6   13.12    6.28
   8   9  -5   21.62    3.98
   8   9  -5   20.35    7.47
   8   9  -4   22.80    4.42
   8   9  -4   24.86    7.89
   8   9  -3  111.84   10.02
   8   9  -3  112.92   13.79
   8   9  -2 3427.47  233.49
   8   9  -2 3588.62  263.23
   8   9  -1 1860.97  121.17
   8   9  -1 1892.44  132.19
   8   9   0    8.38    5.73
   8   9   0   13.29    7.00
   8   9   1   20.09    7.67
   8   9   1   34.13    8.51
   8   9   2  200.90   18.76
   8   9   2  168.06   20.07
   8   9   3 1523.14  108.11
   8   9   4  115.52   15.16
  -8  -9  -4  112.35   13.26
  -8  -9  -5   20.36    8.52
   8   9   6 1125.62   77.89
   8   9   6  789.87   39.49
  -8  -9  -6 1030.66   77.85
   8   9   7  268.05   27.74
  -8  -9  -7  259.02   30.73
   8   9   8  188.45   11.25
   8   9   8  341.35   28.89
   8   9   9   11.30    2.83
   8   9   9   22.05    8.40
   8   9  10  532.57   49.69
  -8  -9 -10  481.79   43.49
   8   9  11  192.37   23.79
   8   9  11  130.20   12.55
  -8  -9 -11  243.03   21.96
   8   9  12   49.67   13.74
   8   9  12   40.21    7.34
  -8  -9 -12   54.62   13.63
   8   9  13  357.07   34.79
   8   9  13  228.86   19.55
  -8  -9 -13  308.60   32.04
   8  10  -9   75.06   12.47
   8  10  -8   26.60    7.46
   8  10  -7   -3.29    5.38
   8  10  -6   93.60   13.59
   8  10  -5  656.33   50.25
   8  10  -5  566.98   32.81
   8  10  -4   28.71    4.98
   8  10  -4   30.49    8.96
   8  10  -3    6.46    3.92
   8  10  -3    3.56    6.32
   8  10  -2  799.50   51.23
   8  10  -2  848.75   60.84
   8  10  -1 1010.45   68.40
   8  10  -1 1043.71   74.18
   8  10   0  110.60   12.39
   8  10   0  111.25   15.49
   8  10   1  870.62   63.39
   8  10   1  929.42   73.42
   8  10   2    6.92    5.67
   8  10   3   10.66    6.99
   8  10   4  276.56   28.54
   8  10   4  266.60   31.41
   8  10   5   71.04   12.45
   8  10   5  100.32   14.18
  -8 -10  -6  607.92   51.35
   8  10   7    6.93    7.49
  -8 -10  -7    8.00    5.97
   8  10   8   49.13   12.65
   8  10   9   21.31    9.55
  -8 -10  -9   21.42   10.26
   8  10  10  288.65   33.12
  -8 -10 -10  239.03   32.68
   8  10  11   37.93   11.94
  -8 -10 -11   21.19   11.37
   8  10  12   26.77   11.40
  -8 -10 -12   27.58    9.95
   8  10  13   27.75    9.10
  -8 -10 -13   19.64   12.47
   8  11  -7  323.78   31.95
   8  11  -6   52.24   11.44
   8  11  -5   96.44   14.54
   8  11  -4   89.21    9.95
   8  11  -4  122.38   15.70
   8  11  -3  360.08   28.49
   8  11  -3  464.23   39.81
   8  11  -2   11.36    5.65
   8  11  -2    6.00    4.18
   8  11  -1  590.00   42.69
   8  11  -1  585.62   51.37
   8  11   0  470.09   37.79
   8  11   0  445.84   44.33
   8  11   1    5.34    6.24
   8  11   1    5.01    7.13
   8  11   2  186.53   22.14
   8  11   3   58.42    9.52
   8  11   4   10.38    7.27
   8  11   4    5.66    5.30
   8  11   5   25.78    9.02
   8  11   5    9.98    9.24
   8  11   6 1025.58   85.48
   8  11   6  980.00   84.93
   8  11   7  174.21   21.34
   8  11   8  316.46   35.84
   8  11   9  240.89   26.08
  -8 -11  -9  258.06   31.25
   8  11  10  143.98   22.97
  -8 -11 -10  142.22   22.11
   8  11  11  227.77   29.80
  -8 -11 -11  223.00   30.17
   8  11  12   12.98    8.70
  -8 -11 -12   -1.49    9.29
   8  12  -6   54.61   12.80
   8  12  -5  405.29   39.81
   8  12  -4   70.76   11.50
   8  12  -3    1.06    3.74
   8  12  -3    3.62    6.24
   8  12  -2  165.23   20.25
   8  12  -2  126.48   13.70
   8  12  -1   18.30    6.20
   8  12  -1   21.18    9.56
   8  12   0  189.13   20.35
   8  12   0  194.37   23.06
   8  12   1    2.97    4.51
   8  12   1   -4.25    4.40
   8  12   2   30.13    9.68
   8  12   3    4.79    6.66
   8  12   3    5.41    7.07
   8  12   4   60.75   10.48
   8  12   4   55.79   11.03
   8  12   5   25.58   10.51
   8  12   5   28.62   10.72
   8  12   6   56.76   12.97
   8  12   6   51.53   13.48
   8  12   7  131.33   22.55
   8  12   8   25.10   10.72
   8  12   9  226.47   23.71
   8  12   9   46.86   17.38
   8  12  10   10.59    9.70
   8  12  10   11.51    7.77
   8  12  11   18.17   10.83
   8  13  -4   -1.32    6.54
   8  13  -3   87.94   19.17
   8  13  -2   21.18    7.34
   8  13  -2   45.57   11.41
   8  13  -1   20.76    7.04
   8  13  -1   21.27   11.12
   8  13   0  288.71   27.73
   8  13   0  302.72   35.54
   8  13   1  212.89   20.80
   8  13   2  133.20   18.48
   8  13   3    5.82    7.61
   8  13   3   13.00    6.63
   8  13   4   16.07    9.42
   8  13   4   17.44   10.25
   8  13   5   50.97   12.43
   8  13   5   42.80   12.94
   8  13   6   50.68   13.18
   8  13   6   43.30   12.93
   8  13   7  107.84   16.60
   8  13   7   60.75   13.58
   8  13   8   -1.17    6.46
   8  13   9  184.90   24.79
   8  14  -1   13.73    7.04
   8  14  -1   19.53   10.64
   8  14   0    9.45    7.08
   8  14   0   16.75   10.36
   8  14   1  394.71   37.76
   8  14   2   19.67    9.87
   8  14   3  323.53   36.43
   8  14   3  379.58   43.85
   8  14   4   13.84    9.47
   8  14   4   13.59    9.70
   8  14   5  386.57   44.36
   8  14   5  443.10   51.85
   8  14   6  632.45   69.10
   8  14   6  621.68   64.33
   9 -11  -2    5.97    8.15
  -9  11   2   23.09    9.91
   9 -11  -1    6.23    7.44
  -9  11   1   50.72   10.83
   9 -11   0  499.33   52.53
  -9  11   0  885.19   63.37
   9 -11   1  382.30   41.77
  -9  11  -1  635.28   49.60
   9 -10  -6   26.20   10.10
  -9  10   6   93.88   13.21
   9 -10  -5   38.56   11.96
   9 -10  -4   25.06   10.08
   9 -10  -3    8.41    8.37
  -9  10   3   30.18    9.97
   9 -10  -2   16.17   11.16
  -9  10   2   92.03   11.49
   9 -10  -1   -0.08    6.73
  -9  10   1   10.91    6.94
   9 -10   0    8.91    7.43
  -9  10   0   72.73   11.08
   9 -10   1  763.16   67.94
  -9  10  -1 1281.84   84.49
   9 -10   2   54.31   14.60
  -9  10  -2  110.41   14.95
   9 -10   3   31.00   11.66
  -9  10  -3   68.65   11.41
  -9  10  -3   40.80   11.31
   9 -10   4   22.61   10.66
  -9  10  -4   59.43   10.26
  -9  10  -4   23.84   11.89
  -9  10  -5  312.04   28.00
  -9  10  -5  321.45   34.39
   9  -9  -7  285.86   36.19
  -9   9   7  323.96   30.62
   9  -9  -6  391.39   36.82
  -9   9   6  442.67   41.39
   9  -9  -5   92.64   16.22
  -9   9   5  157.99   16.82
   9  -9  -4   81.23   13.17
   9  -9  -3   54.89   12.38
   9  -9  -2   97.04   18.90
  -9   9   2  160.27   19.11
   9  -9  -1  178.49   22.62
  -9   9   1  178.73   17.55
   9  -9   0    8.04    6.41
  -9   9   0    3.17    4.99
   9  -9   1   71.98   14.76
  -9   9  -1   89.28   13.71
   9  -9   2   36.64   11.07
  -9   9  -2   38.71   10.34
  -9   9  -2   29.00    9.06
   9  -9   3    9.20    7.99
  -9   9  -3   19.93    7.79
  -9   9  -3   15.74    7.63
   9  -9   4   11.19   10.55
  -9   9  -4   48.93    9.62
  -9   9  -4   60.44   11.48
   9  -9   5   59.80   14.95
  -9   9  -5  103.52   12.57
  -9   9  -5   74.00   15.90
   9  -9   6   51.29   14.45
  -9   9  -6   77.63   10.94
  -9   9  -6   53.81   15.48
   9  -9   7  115.11   17.89
  -9   9  -7   66.66   15.57
   9  -8  -9   43.90   13.35
  -9   8   9   57.54   13.95
   9  -8  -8    2.34    7.13
  -9   8   8   12.60    8.14
   9  -8  -7  115.22   20.66
  -9   8   7  163.49   19.77
   9  -8  -6   97.47   18.87
  -9   8   6  137.07   14.36
   9  -8  -5  232.29   24.81
  -9   8   5  190.56   23.91
   9  -8  -4    8.56    7.59
  -9   8   4   15.87    8.29
   9  -8  -3  245.01   28.45
   9  -8  -2   83.20   15.59
  -9   8   2  106.41   15.48
   9  -8  -1 1694.77  126.14
  -9   8   1 1691.41  111.63
   9  -8   0  800.48   63.16
  -9   8   0  775.47   52.10
   9  -8   1  243.28   28.49
  -9   8  -1  262.56   25.12
  -9   8  -1  233.43   20.04
   9  -8   2   24.85   10.16
  -9   8  -2   37.32    9.60
  -9   8  -2   37.97    8.30
   9  -8   3  514.82   47.09
  -9   8  -3  556.77   40.21
  -9   8  -3  516.85   39.15
   9  -8   4  125.26   20.58
  -9   8  -4  184.25   17.26
  -9   8  -4  124.42   18.35
   9  -8   5   62.90   10.69
  -9   8  -5   54.81   10.22
  -9   8  -5   64.77   13.43
   9  -8   6   41.78   10.70
  -9   8  -6   36.31    7.96
  -9   8  -6   15.90    7.67
   9  -8   7    9.51    7.52
  -9   8  -7    4.19    7.85
   9  -8   8  119.69   16.53
  -9   8  -8   30.37   14.23
   9  -8   9  212.69   19.96
  -9   8  -9   64.97   15.51
   9  -7 -10    6.71    6.98
  -9   7  10   14.56    8.32
   9  -7  -9   62.65   15.55
  -9   7   9   89.37   16.26
   9  -7  -8  453.04   45.12
  -9   7   8  465.54   42.28
   9  -7  -7   19.05    9.48
  -9   7   7   28.46    9.72
   9  -7  -6  287.35   30.85
  -9   7   6  266.67   23.73
   9  -7  -5   13.34    8.26
  -9   7   5   16.95    8.33
   9  -7  -4  346.41   33.14
  -9   7   4  329.06   29.56
   9  -7  -3  153.88   19.53
  -9   7   3  148.03   15.65
   9  -7  -2  308.13   27.17
   9  -7  -1  182.22   19.78
  -9   7   1  183.21   16.57
   9  -7   0  200.63   20.69
  -9   7   0  212.57   17.68
   9  -7   1   52.48   11.87
  -9   7  -1   52.79   10.50
  -9   7  -1   39.35    8.47
   9  -7   2 3583.33  257.96
  -9   7  -2 3498.02  244.83
  -9   7  -2 3301.39  226.05
   9  -7   3 1632.50  108.40
  -9   7  -3 1617.82  106.06
  -9   7  -3 1534.20  100.78
   9  -7   4   64.05   12.12
  -9   7  -4   69.59   10.22
  -9   7  -4   50.90   11.83
   9  -7   5  161.49   20.58
  -9   7  -5  170.08   15.66
  -9   7  -5  144.27   19.50
   9  -7   6  343.73   24.22
   9  -7   6  419.23   37.47
  -9   7  -6  498.92   40.19
   9  -7   7  627.38   51.67
  -9   7  -7  843.45   65.34
   9  -7   8  241.88   22.62
  -9   7  -8   95.00   19.82
   9  -7   9   86.09   11.90
  -9   7  -9   38.44   15.25
   9  -7  10   20.47    8.15
  -9   7 -10   28.00   11.27
   9  -6 -11    2.36    5.95
  -9   6  11    7.38    7.06
   9  -6 -10   52.69   13.40
  -9   6  10   64.62   13.32
   9  -6  -9   17.03    8.56
  -9   6   9   11.21    6.14
   9  -6  -8  331.16   34.72
  -9   6   8  318.12   27.21
   9  -6  -7 1361.64  103.28
  -9   6   7 1398.52   94.48
   9  -6  -6  457.09   40.53
  -9   6   6  460.79   37.09
   9  -6  -5 1606.20  112.51
  -9   6   5 1611.53  109.21
   9  -6  -4    1.13    5.33
  -9   6   4    3.43    5.60
   9  -6  -3  717.25   50.85
  -9   6   3  692.28   49.68
   9  -6  -2  663.42   48.66
   9  -6  -1  166.40   16.95
   9  -6   0 3117.40  208.72
  -9   6   0 3044.35  208.82
  -9   6   0 2855.65  176.16
   9  -6   1  106.92   15.93
  -9   6  -1   89.40   11.76
  -9   6  -1  134.94   11.71
   9  -6   2 2167.87  141.31
  -9   6  -2 1945.87  121.19
  -9   6  -2 2111.81  139.75
   9  -6   3  673.40   52.64
  -9   6  -3  664.77   44.65
  -9   6  -3  655.38   45.32
   9  -6   4  571.36   41.58
  -9   6  -4  536.14   39.75
  -9   6  -4  559.04   38.02
   9  -6   5  149.37   18.47
  -9   6  -5  137.68   16.50
  -9   6  -5  114.41   11.28
   9  -6   6   41.48    8.38
   9  -6   6   39.44   10.47
  -9   6  -6   40.47    8.93
   9  -6   7  285.96   23.02
   9  -6   7  269.75   27.54
  -9   6  -7  304.17   31.13
   9  -6   8  246.85   30.92
  -9   6  -8  264.44   32.04
   9  -6   9  225.50   23.15
  -9   6  -9   77.13   18.80
   9  -6  10  264.89   26.10
  -9   6 -10  108.97   21.99
   9  -6  11   42.47    9.18
  -9   6 -11    5.14   11.16
   9  -5 -11  253.15   28.03
  -9   5  11  256.07   27.74
   9  -5 -10  127.24   19.26
  -9   5  10  142.16   17.46
   9  -5  -9  856.69   64.13
  -9   5   9  871.00   63.41
   9  -5  -8  531.18   41.47
  -9   5   8  495.71   41.32
   9  -5  -7   25.29   10.29
  -9   5   7   43.97    8.42
   9  -5  -6  742.56   50.25
  -9   5   6  683.45   49.28
   9  -5  -5  741.23   48.90
  -9   5   5  691.38   43.74
   9  -5  -4 3228.11  222.25
  -9   5   4 3010.67  200.92
   9  -5  -3  145.02   15.46
  -9   5   3  176.53   16.30
   9  -5  -2  337.12   29.84
  -9   5   2  348.14   28.09
   9  -5  -1    4.59    4.03
   9  -5   0  246.43   24.40
  -9   5   0  254.69   17.80
   9  -5   1 1077.74   71.34
  -9   5  -1 1024.10   59.98
  -9   5  -1 1110.00   71.65
   9  -5   2  784.65   55.75
  -9   5  -2  673.58   43.27
  -9   5  -2  737.42   44.82
   9  -5   3   -2.04    3.86
  -9   5  -3    1.09    4.16
  -9   5  -3    8.99    3.72
   9  -5   4  267.55   26.95
  -9   5  -4  274.27   23.06
  -9   5  -4  273.60   22.52
   9  -5   5  164.14   18.45
   9  -5   5  129.06   11.50
  -9   5  -5  187.27   17.98
   9  -5   6  920.20   58.41
   9  -5   6  964.00   65.28
  -9   5  -6  882.85   64.77
   9  -5   7  195.83   16.02
   9  -5   7  190.74   24.36
  -9   5  -7  205.67   20.84
   9  -5   8    7.11    4.35
   9  -5   8    0.96    6.02
  -9   5  -8   -2.40    6.25
   9  -5   9  358.55   36.60
  -9   5  -9  348.46   37.63
   9  -5  10   97.90   17.38
  -9   5 -10   65.73   14.86
   9  -5  11   15.27    8.95
  -9   5 -11    9.20    9.43
   9  -5  12   -2.75    6.67
  -9   5 -12    3.35    5.09
   9  -4 -12  532.68   51.94
  -9   4  12  509.20   43.05
   9  -4 -11 1450.14  104.46
  -9   4  11 1499.08   99.71
   9  -4 -10   28.64   10.31
  -9   4  10   33.23    9.76
   9  -4  -9   28.36    7.90
  -9   4   9   32.86    9.06
   9  -4  -8 1345.63   90.37
  -9   4   8 1333.22   84.51
   9  -4  -7  271.19   27.46
  -9   4   7  278.67   24.40
   9  -4  -6  142.02   15.82
  -9   4   6  148.18   17.11
   9  -4  -5  768.24   49.91
  -9   4   5  783.61   52.03
   9  -4  -4 1983.74  129.86
  -9   4   4 1941.26  123.48
   9  -4  -3  194.07   16.66
  -9   4   3  204.49   18.94
   9  -4  -2   13.56    5.48
  -9   4   2   20.81    7.14
   9  -4  -1  914.51   59.73
  -9   4   1  800.37   43.15
  -9   4   1  917.25   55.11
   9  -4   0  109.38   12.29
  -9   4   0   71.71    7.24
   9  -4   1   89.51   11.86
  -9   4  -1   77.56    9.06
   9  -4   2 1621.77  104.92
  -9   4  -2 1541.39   97.16
  -9   4  -2 1481.35   90.21
   9  -4   3  109.73   11.25
  -9   4  -3   81.37   12.05
  -9   4  -3  106.62   12.65
   9  -4   4   65.75   10.37
  -9   4  -4   63.82   11.35
  -9   4  -4   98.77    8.88
   9  -4   5   31.85    7.91
   9  -4   5   30.08    7.63
  -9   4  -5   15.42    8.21
   9  -4   6   29.70    9.25
   9  -4   6   35.50    6.83
  -9   4  -6   25.01    8.59
   9  -4   7  578.22   38.20
   9  -4   7  587.12   43.22
  -9   4  -7  533.75   39.70
   9  -4   8  292.27   22.03
   9  -4   8  275.90   30.34
  -9   4  -8  293.03   31.06
   9  -4   9  351.46   35.83
  -9   4  -9  358.64   32.53
   9  -4  10  121.20   14.68
  -9   4 -10   31.58   10.73
   9  -4  11    5.67    6.82
  -9   4 -11    4.70    6.23
   9  -4  12   11.83    7.98
  -9   4 -12    3.83    6.32
   9  -4  13    6.16    6.94
  -9   4 -13   14.16    9.91
   9  -3 -12   34.03    8.97
   9  -3 -11  250.16   25.94
  -9   3  11  244.29   23.07
   9  -3 -10  362.68   35.32
  -9   3  10  349.29   29.33
   9  -3  -9  124.39   13.64
  -9   3   9  112.49   15.29
   9  -3  -8  698.96   47.85
  -9   3   8  646.17   44.65
   9  -3  -7  733.47   54.24
  -9   3   7  700.04   42.91
   9  -3  -6  314.28   24.47
  -9   3   6  333.16   26.29
   9  -3  -5  121.64   13.73
  -9   3   5  194.35   15.85
   9  -3  -4 1869.79  119.64
  -9   3   4 1769.22  111.03
   9  -3  -3 2330.21  148.12
  -9   3   3 2222.38  140.97
   9  -3  -2  764.85   51.03
  -9   3   2  735.27   44.19
   9  -3  -1   20.31    5.59
  -9   3   1   22.39    5.59
  -9   3   1   15.47    3.70
   9  -3   0  179.87   18.18
  -9   3   0  166.96   13.88
  -9   3   0  156.34   12.84
   9  -3   1  126.53   14.19
  -9   3  -1   98.43    9.58
   9  -3   2  458.64   32.92
  -9   3  -2  396.81   27.38
  -9   3  -2  430.36   31.19
   9  -3   3  330.90   26.39
  -9   3  -3  300.31   23.30
  -9   3  -3  287.25   23.57
   9  -3   4 1807.70  119.81
   9  -3   4 1800.34  113.24
  -9   3  -4 1818.45  109.78
   9  -3   5  193.36   20.94
   9  -3   5  205.77   18.45
  -9   3  -5  203.56   21.10
   9  -3   6    8.60    4.64
   9  -3   6    0.90    4.62
  -9   3  -6   10.32    6.00
   9  -3   7   46.20    7.85
   9  -3   7   31.70    9.23
  -9   3  -7   32.42   10.12
   9  -3   8 1139.48   72.28
   9  -3   8 1231.80   90.49
  -9   3  -8 1174.36   87.49
   9  -3   9  156.32   14.38
   9  -3   9  167.12   22.32
  -9   3  -9  169.16   19.42
   9  -3  10  277.15   31.82
  -9   3 -10  279.90   33.31
   9  -3  11   -0.92    6.39
  -9   3 -11   12.08    7.19
   9  -3  12    7.52    6.70
  -9   3 -12   -1.56    7.32
   9  -3  13  349.15   35.22
  -9   3 -13  292.95   33.27
  -9   2  11 1111.45   74.23
  -9   2  10   64.22   11.27
  -9   2   9   32.08    8.75
  -9   2   8   33.51    8.36
  -9   2   7 1020.06   63.69
  -9   2   6  213.26   18.77
  -9   2   5  114.22   12.99
  -9   2   4   99.26   12.28
  -9   2   3  426.51   31.42
  -9   2   2  423.73   28.88
  -9   2   2  373.47   19.17
  -9   2   1  469.25   25.99
  -9   2   1  493.35   32.87
  -9   2   0 1003.47   63.51
  -9   2   0 1037.35   55.09
  -9   2  -1  287.66   20.61
  -9   2  -2 1787.77  108.89
   9  -2   3  764.26   44.52
  -9   2  -3  693.59   43.83
   9  -2   4   29.85    5.62
   9  -2   4   14.12    6.87
  -9   2  -4   21.39    7.06
   9  -2   5   64.15   10.46
   9  -2   5   57.95    9.28
  -9   2  -5   55.54    9.77
   9  -2   6  960.66   60.89
   9  -2   6  901.11   55.35
  -9   2  -6  814.24   56.86
   9  -2   7  642.61   43.22
   9  -2   7  632.01   41.98
   9  -2   8  212.67   18.41
   9  -2   8  228.51   24.52
  -9   2  -8  185.54   19.62
   9  -2   9   92.99   10.55
   9  -2   9   56.31   11.58
  -9   2  -9   71.70   14.56
   9  -2  10  573.21   37.58
   9  -2  10  565.05   44.60
  -9   2 -10  581.22   47.15
   9  -2  11  101.07   13.39
  -9   2 -11   81.92   16.39
   9  -2  12    0.63    4.57
  -9   2 -12    5.87    6.96
   9  -2  13   -4.42    5.83
  -9   2 -13    3.75    6.27
   9  -2  14   53.00   14.21
   9  -1 -12  460.57   41.66
   9  -1 -11   -3.26    4.71
   9  -1 -10  598.83   48.69
  -9   1  10  574.31   39.85
   9  -1  -9  208.05   22.86
  -9   1   9  188.12   18.23
   9  -1  -8  547.64   43.14
  -9   1   8  506.18   35.80
   9  -1  -7  437.95   30.62
  -9   1   7  389.27   29.46
   9  -1  -6   42.75    9.20
  -9   1   6   39.28    9.44
   9  -1  -5  358.39   25.18
  -9   1   5  365.34   25.91
   9  -1  -4  511.08   36.37
  -9   1   4  509.60   33.91
  -9   1   3  123.72   12.29
  -9   1   2   18.03    3.07
  -9   1   2   33.80    7.05
  -9   1   1  566.26   30.16
  -9   1   1  554.17   36.69
  -9   1   0  750.17   42.15
  -9   1   0  785.10   49.99
   9  -1   1   55.20    4.90
  -9   1  -1   60.10    8.22
   9  -1   2 3735.88  254.40
  -9   1  -2 3693.00  239.26
   9  -1   3 3046.96  193.21
  -9   1  -3 3047.98  194.93
   9  -1   4  123.29   13.81
  -9   1  -4  147.82   15.23
   9  -1   5  145.67   12.43
  -9   1  -5  186.24   17.62
   9  -1   6    9.61    5.59
  -9   1  -6    8.95    7.01
   9  -1   7  132.40   14.33
  -9   1  -7  175.16   18.95
   9  -1   8  130.98   14.18
  -9   1  -8  159.58   16.38
   9  -1   9  176.80   16.56
  -9   1  -9  181.85   20.65
   9  -1  10   50.51    8.43
  -9   1 -10   41.55   12.29
   9  -1  11    2.39    4.49
  -9   1 -11   11.13    5.72
  -9   1 -12    9.94    8.80
   9   0 -12    3.06    7.11
   9   0 -11   -1.95    6.15
   9   0 -10   14.64    5.99
   9   0  -9 1507.85  104.96
  -9   0   9 1510.31   94.00
   9   0  -8   15.87    7.15
  -9   0   8   20.39    6.66
   9   0  -7    4.22    5.08
  -9   0   7    2.54    4.09
   9   0  -6  101.85   13.07
  -9   0   6   96.53   11.16
   9   0  -5  865.87   55.57
  -9   0   5  826.38   51.43
   9   0  -4  122.65   13.62
  -9   0   4  134.20   12.55
   9   0  -3  694.80   44.68
  -9   0   3  685.35   43.79
   9   0  -2   48.93    8.86
  -9   0   2   43.81    5.30
  -9   0   2   70.16    9.38
   9   0  -1    9.38    3.70
  -9   0   1    8.64    2.75
   9   0   0   32.03    6.96
   9   0   0   35.89    6.16
  -9   0   0   27.62    4.89
   9   0   1   62.91    8.82
   9   0   1   68.13    9.72
  -9   0  -1   68.14    8.27
   9   0   2  281.38   22.11
   9   0   2  276.60   19.22
  -9   0  -2  262.13   21.27
   9   0   3  316.00   23.66
   9   0   3  285.24   20.09
  -9   0  -3  278.25   23.94
   9   0   4 1105.25   65.39
   9   0   4 1003.03   62.74
  -9   0  -4  972.07   60.52
   9   0   5  144.97   13.38
   9   0   5  143.98   15.64
  -9   0  -5  172.90   17.96
   9   0   6  152.96   16.15
   9   0   6  124.96   14.32
  -9   0  -6  152.03   18.15
   9   0   7  122.34   13.10
   9   0   7   98.60   12.60
  -9   0  -7   84.39   13.79
   9   0   8  412.34   30.85
   9   0   8  397.41   29.77
  -9   0  -8  382.27   37.37
   9   0   9  845.11   55.85
   9   0   9  885.33   66.33
  -9   0  -9  818.84   66.68
   9   0  10  658.31   44.93
   9   0  10  677.14   53.41
  -9   0 -10  701.77   61.62
   9   0  11  147.80   16.98
   9   0  11  140.68   13.70
  -9   0 -11  140.55   22.48
   9   0  12  230.38   29.10
  -9   0 -12  293.51   31.21
   9   0  13   13.25    8.22
   9   0  14   11.13    5.67
  -9   0 -14   -4.28    5.71
   9   1 -12   43.86   11.74
   9   1 -11   42.03   11.64
   9   1 -10  314.27   28.81
   9   1  -9 1290.82   88.17
  -9  -1   9 1230.38   75.16
   9   1  -8 1608.18  104.79
  -9  -1   8 1548.22   95.12
   9   1  -7   54.77    9.49
  -9  -1   7   50.69    8.94
   9   1  -6  377.99   28.38
  -9  -1   6  386.70   26.80
   9   1  -5  414.72   28.10
   9   1  -5  307.77   13.62
  -9  -1   5  376.51   26.53
   9   1  -4  752.63   46.36
   9   1  -4  639.98   28.50
   9   1  -3 1160.12   65.09
   9   1  -3 1141.21   63.08
  -9  -1   3  877.37   43.93
   9   1  -2  964.06   59.47
   9   1  -2  931.64   55.00
  -9  -1   2  816.16   41.11
   9   1  -1  514.93   31.84
  -9  -1   1  432.88   24.13
   9   1   0   12.04    4.53
  -9  -1   0    6.81    3.53
   9   1   1   19.20    5.40
   9   1   1   11.75    4.85
  -9  -1  -1   15.85    5.40
   9   1   2 3534.83  218.58
   9   1   2 3445.15  229.96
  -9  -1  -2 3349.24  217.16
   9   1   3  176.36   15.40
   9   1   3  166.31   16.72
  -9  -1  -3  170.85   16.78
   9   1   4  505.86   33.64
   9   1   4  510.93   36.94
  -9  -1  -4  502.66   37.06
   9   1   5    6.99    5.37
   9   1   5   14.50    4.73
  -9  -1  -5   11.55    6.50
   9   1   6  141.01   15.87
   9   1   6  138.59   15.04
  -9  -1  -6  158.19   18.49
   9   1   7  511.93   35.93
   9   1   7  513.38   36.15
  -9  -1  -7  421.10   39.12
   9   1   8  185.13   19.83
   9   1   8  177.82   17.86
  -9  -1  -8  184.58   23.22
   9   1   9  130.04   15.05
   9   1   9  142.67   15.40
  -9  -1  -9  171.11   21.27
   9   1  10  455.82   34.23
   9   1  10  460.03   39.19
  -9  -1 -10  446.22   43.72
   9   1  11   33.03    9.17
   9   1  11   23.73    7.05
  -9  -1 -11   33.44   11.29
   9   1  12  211.74   25.31
   9   1  12  193.17   17.92
   9   1  13  100.74   16.53
   9   1  14   65.77   15.81
  -9  -1 -14  128.26   20.39
   9   1  15   45.03   14.79
  -9  -1 -15   62.27   17.89
   9   2 -12  179.40   19.40
   9   2 -11  184.37   20.79
   9   2 -11  157.58   12.62
   9   2 -10  380.38   24.02
   9   2 -10  421.84   31.98
   9   2  -9  278.24   19.04
   9   2  -9  298.53   26.39
   9   2  -8   34.66    6.50
   9   2  -8   42.34    8.69
   9   2  -7  572.64   35.86
   9   2  -7  563.47   37.44
   9   2  -6  130.13   12.86
   9   2  -6  143.00   13.94
   9   2  -6   97.99    6.29
   9   2  -5 1100.21   62.70
   9   2  -5 1060.12   63.82
   9   2  -5  808.60   37.51
   9   2  -4   55.79    8.60
   9   2  -4   43.88    4.82
   9   2  -4   65.31    8.55
   9   2  -3  141.48   12.45
   9   2  -3  149.49   14.46
  -9  -2   3  114.60    8.65
   9   2  -2  589.89   34.51
   9   2  -2  599.40   35.85
  -9  -2   2  520.18   28.53
   9   2  -1  602.59   38.77
   9   2  -1  599.31   31.99
  -9  -2   1  553.96   30.14
   9   2   0  719.42   40.51
  -9  -2   0  608.83   35.74
   9   2   1   59.84    8.22
   9   2   1   65.78    7.63
  -9  -2  -1   55.05    8.53
   9   2   2   17.02    4.97
   9   2   2   13.39    6.34
  -9  -2  -2    9.46    5.90
   9   2   3  580.04   34.56
   9   2   3  575.37   39.53
  -9  -2  -3  540.61   37.76
   9   2   4 1085.93   63.12
   9   2   4 1057.54   66.75
  -9  -2  -4 1084.29   69.40
   9   2   5 2817.63  176.72
   9   2   5 2803.75  187.32
  -9  -2  -5 2800.72  190.82
   9   2   6 1252.90   77.18
   9   2   6 1237.54   81.77
  -9  -2  -6 1208.75   84.06
   9   2   7  250.91   21.98
   9   2   7  257.52   21.47
  -9  -2  -7  198.13   24.84
   9   2   8 2064.62  133.97
   9   2   8 2094.50  127.89
  -9  -2  -8 1776.69  133.63
   9   2   9 1232.73   83.61
   9   2   9 1243.39   77.57
  -9  -2  -9 1322.49   92.50
   9   2  10  660.91   49.35
   9   2  10  630.00   45.16
  -9  -2 -10  516.22   49.24
   9   2  11  147.00   17.08
   9   2  11  147.38   14.69
  -9  -2 -11  113.91   22.04
   9   2  12   10.00    6.27
   9   2  12   15.79    6.09
   9   2  13  122.82   13.43
   9   2  13   61.88   14.06
   9   2  14   17.62    7.33
  -9  -2 -14   12.24   11.16
   9   2  15    3.65    7.68
  -9  -2 -15    2.36    6.41
   9   3 -12   78.41   14.57
   9   3 -11    2.68    5.99
   9   3 -10    5.95    3.06
   9   3 -10   10.06    5.96
   9   3  -9  999.34   55.96
   9   3  -9 1054.04   69.41
   9   3  -8  516.20   31.78
   9   3  -8  560.21   38.02
   9   3  -7   -1.86    3.73
   9   3  -7    6.32    2.64
   9   3  -7    0.25    1.15
   9   3  -6  520.30   33.92
   9   3  -6  486.71   30.39
   9   3  -6  448.15   23.07
   9   3  -5  248.41   18.75
   9   3  -5  194.22   11.48
   9   3  -5  248.55   18.95
   9   3  -4 2241.35  135.24
   9   3  -4 2018.51  110.14
   9   3  -4 2294.55  140.54
   9   3  -3 1400.52   80.32
   9   3  -3 1353.42   72.50
   9   3  -3 1365.08   85.12
   9   3  -2  497.38   33.36
   9   3  -2  502.13   29.26
  -9  -3   2  419.83   26.61
   9   3  -1   19.72    6.95
   9   3  -1   20.51    4.89
  -9  -3   1   19.83    4.20
   9   3   0    3.03    3.74
  -9  -3   0    6.95    3.58
   9   3   1  357.78   21.70
  -9  -3  -1  302.87   23.55
   9   3   2   56.49    8.59
   9   3   2   81.30   12.80
  -9  -3  -2  148.10   14.03
   9   3   3   26.07    5.74
   9   3   3   29.94    7.91
  -9  -3  -3   22.93    7.43
   9   3   4  150.62   13.54
   9   3   4  150.00   14.41
  -9  -3  -4  153.28   16.95
   9   3   5  299.59   21.21
   9   3   5  297.25   21.56
  -9  -3  -5  275.68   22.56
   9   3   6  938.05   56.23
   9   3   6  924.98   57.48
  -9  -3  -6  938.97   63.65
   9   3   7  210.44   15.72
   9   3   7  210.77   19.80
  -9  -3  -7  177.79   21.68
   9   3   8  463.10   32.66
   9   3   8  450.81   35.53
  -9  -3  -8  423.23   40.97
   9   3   9    0.05    5.18
   9   3   9    6.41    4.43
  -9  -3  -9    5.58    6.53
   9   3  10  164.45   19.37
   9   3  10  183.41   18.70
  -9  -3 -10  186.76   24.44
   9   3  11   69.79   12.80
   9   3  11   74.55   11.37
  -9  -3 -11   88.57   14.39
   9   3  12   39.76    8.85
   9   3  12   33.22    9.79
   9   3  13   -0.40    4.73
   9   3  13    2.54    5.70
  -9  -3 -13    5.71    7.30
   9   3  14   25.27   11.16
  -9  -3 -14   51.15   11.58
   9   3  15    7.79    8.32
  -9  -3 -15    9.31   10.07
   9   4 -12   36.91   10.58
   9   4 -11  172.41   20.22
   9   4 -10  227.77   22.37
   9   4  -9  105.76    9.24
   9   4  -9  102.77   13.53
   9   4  -8  172.94   13.25
   9   4  -8  168.96   16.39
   9   4  -7  176.39   16.25
   9   4  -7  180.81   13.09
   9   4  -7  162.94    9.67
   9   4  -6  330.68   23.02
   9   4  -6  263.84   15.15
   9   4  -6  310.40   20.05
   9   4  -5   36.50    6.57
   9   4  -5   37.58    4.02
   9   4  -5   49.68    7.29
   9   4  -4  439.75   26.83
   9   4  -4  363.08   22.28
   9   4  -4  426.55   29.04
   9   4  -3 1127.26   62.34
   9   4  -3 1363.92   75.18
   9   4  -3 1387.00   83.34
   9   4  -2  594.33   39.97
   9   4  -2  631.38   35.53
   9   4  -1  480.56   33.68
   9   4  -1  504.03   26.80
  -9  -4   1  425.33   29.60
   9   4   0  134.80   10.74
   9   4   0  138.24   12.34
  -9  -4   0  126.37   12.00
   9   4   1   99.31    8.03
  -9  -4  -1   74.35   10.15
   9   4   2 1180.85   63.45
  -9  -4  -2 1170.57   72.38
   9   4   3   29.54    5.66
   9   4   3   36.60    8.35
  -9  -4  -3   26.82    5.66
   9   4   4  824.85   46.08
   9   4   4  840.01   52.18
  -9  -4  -4  726.39   48.33
   9   4   5   88.94    9.04
   9   4   5   80.11   11.77
  -9  -4  -5   77.49   12.91
   9   4   6  722.26   42.96
   9   4   6  731.09   51.03
  -9  -4  -6  703.79   55.53
   9   4   7  214.70   18.21
   9   4   7  209.87   20.76
  -9  -4  -7  215.61   23.87
   9   4   8   82.64   11.31
   9   4   8   54.27    9.59
  -9  -4  -8   73.88   13.25
   9   4   9   18.80    5.18
   9   4   9    8.67    6.83
  -9  -4  -9   -2.98    8.24
   9   4  10   69.33   10.52
   9   4  10   80.25   12.67
  -9  -4 -10   75.93   12.87
   9   4  11   -3.65    4.78
   9   4  11   -0.08    4.70
   9   4  12  130.09   15.33
   9   4  12   95.65   14.57
   9   4  13  435.65   36.85
   9   4  13  433.17   41.08
  -9  -4 -13  393.85   45.99
   9   4  14   35.15    9.42
   9   4  14   13.16    9.97
  -9  -4 -14   38.36   10.10
   9   4  15   61.24   14.46
  -9  -4 -15   83.68   18.59
   9   5 -11   20.51    8.17
   9   5 -10  314.56   27.92
   9   5  -9 1539.20  101.04
   9   5  -8  481.34   27.91
   9   5  -8  503.26   32.87
   9   5  -7   24.18    5.02
   9   5  -7   12.50    3.06
   9   5  -7   22.25    4.46
   9   5  -6  103.80    9.30
   9   5  -6   92.25    8.27
   9   5  -6   99.16    9.79
   9   5  -5  115.74   10.23
   9   5  -5  102.55    8.36
   9   5  -5   99.58   10.48
   9   5  -4   81.17    7.77
   9   5  -4   59.31    7.18
   9   5  -4   90.23    9.96
   9   5  -3  505.74   30.89
   9   5  -3  557.73   31.07
   9   5  -3  548.24   36.58
   9   5  -2   68.84    7.76
   9   5  -2   66.58    9.31
   9   5  -2   59.61    6.78
   9   5  -1  192.39   12.40
   9   5  -1  175.74   16.72
  -9  -5   1  169.73   16.13
   9   5   0   71.16    6.59
   9   5   0   74.92   10.78
  -9  -5   0   81.16   11.09
   9   5   1   94.35    7.72
   9   5   1   98.89   11.37
  -9  -5  -1   93.16   12.28
   9   5   2   90.91    8.43
  -9  -5  -2   98.13   12.93
   9   5   3   24.97    4.59
  -9  -5  -3   23.08    7.68
   9   5   4  714.69   39.86
   9   5   4  700.67   50.26
  -9  -5  -4  704.06   50.52
   9   5   5  216.44   15.80
   9   5   5  240.57   22.12
  -9  -5  -5  202.22   19.31
   9   5   6   21.39    4.39
   9   5   6   29.39    8.19
  -9  -5  -6   21.11    8.37
   9   5   7    9.22    3.93
   9   5   7   11.64    6.52
  -9  -5  -7    9.90    5.46
   9   5   8  176.96   17.08
   9   5   8  188.51   21.18
  -9  -5  -8  236.47   25.21
   9   5   9   75.30   11.49
   9   5   9   60.08    8.62
  -9  -5  -9   63.85   13.89
   9   5  10 1317.97   94.76
   9   5  10 1141.19   78.76
  -9  -5 -10 1168.35   96.84
   9   5  11  116.72   14.97
   9   5  11  104.44   12.52
   9   5  12   40.73    7.80
   9   5  12   36.73    9.17
   9   5  13  176.32   20.30
   9   5  13  182.58   20.26
  -9  -5 -13  197.75   23.80
   9   5  14  248.56   25.13
   9   5  14  131.81   19.47
  -9  -5 -14  287.13   33.56
   9   6 -11   51.84    9.72
   9   6 -10   31.15    6.60
   9   6  -9   30.94    6.16
   9   6  -8    9.40    3.02
   9   6  -8   11.43    2.92
   9   6  -8    8.73    4.22
   9   6  -7  116.22   10.49
   9   6  -7  105.81    9.55
   9   6  -7  122.90    9.91
   9   6  -6   25.44    4.42
   9   6  -6   30.21    5.25
   9   6  -6   37.00    5.66
   9   6  -5   39.67    4.59
   9   6  -5   36.70    5.86
   9   6  -5   33.29    6.64
   9   6  -4   58.45    4.73
   9   6  -4   36.26    6.41
   9   6  -4   43.96    7.68
   9   6  -3  148.32   12.48
   9   6  -3  151.35   10.72
   9   6  -3  139.76   14.50
   9   6  -2   22.93    5.89
   9   6  -2   26.15    6.50
   9   6  -2   20.56    3.23
   9   6  -1   11.93    2.70
   9   6  -1   13.98    5.24
   9   6  -1   15.95    6.53
   9   6   0   81.40    6.52
   9   6   0  105.90   12.10
  -9  -6   0   88.24   12.06
   9   6   1   47.37    4.86
   9   6   1   62.62    9.98
  -9  -6  -1   64.17   10.06
   9   6   2    5.75    2.21
   9   6   2    9.85    5.59
  -9  -6  -2    9.08    5.53
   9   6   3  216.65   13.03
  -9  -6  -3  188.81   18.35
   9   6   4   20.72    3.57
   9   6   4   26.32    8.12
  -9  -6  -4   20.14    7.84
   9   6   5   59.67    6.76
   9   6   5   83.32    8.83
  -9  -6  -5   70.26   12.01
   9   6   6   99.74    9.08
   9   6   6  198.77   15.34
  -9  -6  -6  116.48   14.41
   9   6   7  889.13   52.78
   9   6   7  970.08   70.88
  -9  -6  -7  946.88   67.91
   9   6   8  320.40   29.20
   9   6   8  288.64   21.45
  -9  -6  -8  295.50   32.44
   9   6   9  194.73   18.58
   9   6   9  169.20   16.12
  -9  -6  -9  231.10   25.91
   9   6  10   66.25   12.33
   9   6  10   52.95    7.25
   9   6  11 1229.10   93.28
   9   6  11 1047.65   75.72
   9   6  12  406.31   38.40
   9   6  12  326.92   31.23
  -9  -6 -12  356.02   42.05
   9   6  13  182.59   20.07
   9   6  13  108.74   16.65
  -9  -6 -13  157.18   22.11
   9   6  14   38.38   10.64
   9   6  14   19.51    8.72
  -9  -6 -14   36.08   12.63
   9   7 -10  218.34   17.57
   9   7  -9   83.17    8.68
   9   7  -8    4.47    3.07
   9   7  -8    5.98    3.54
   9   7  -7    8.67    3.20
   9   7  -7   12.02    3.73
   9   7  -7   12.13    3.49
   9   7  -6    3.65    2.64
   9   7  -6    1.52    3.11
   9   7  -6    3.56    2.99
   9   7  -5    2.54    2.19
   9   7  -5    5.74    3.68
   9   7  -5    2.03    3.52
   9   7  -4   44.17    4.02
   9   7  -4   39.88    6.67
   9   7  -4   34.22    6.92
   9   7  -3   67.74    9.42
   9   7  -3   82.69    6.52
   9   7  -3   76.34    9.81
   9   7  -2  285.84   14.83
   9   7  -2  276.39   24.24
   9   7  -2  275.41   20.72
   9   7  -1 1354.20   68.13
   9   7  -1 1371.38   89.93
   9   7  -1 1410.21   90.07
   9   7   0  133.17    8.62
   9   7   0  140.42   16.13
   9   7   0  144.33   15.23
   9   7   1  200.35   12.39
   9   7   1  214.51   20.42
  -9  -7  -1  213.52   21.89
   9   7   2  550.99   27.71
   9   7   2  616.02   44.89
  -9  -7  -2  597.06   47.01
   9   7   3  908.52   44.56
  -9  -7  -3  793.25   56.79
   9   7   4   24.46    3.21
  -9  -7  -4   34.98    7.36
   9   7   5  802.42   42.57
   9   7   5 1126.90   74.34
  -9  -7  -5 1092.69   76.98
   9   7   6    2.01    3.74
   9   7   6   -2.17    1.55
  -9  -7  -6    8.53    3.31
   9   7   7  164.43   18.30
  -9  -7  -7  146.21   17.26
   9   7   8  389.24   29.85
   9   7   8  271.26   18.93
  -9  -7  -8  379.29   36.75
   9   7   9   73.49   11.60
   9   7   9   42.81    7.09
  -9  -7  -9   55.36   13.85
   9   7  10   38.43    8.08
   9   7  10   26.44    5.56
   9   7  11  112.94   15.85
   9   7  11  101.65    9.74
   9   7  12  997.99   79.10
   9   7  12  737.08   51.71
  -9  -7 -12  831.87   70.75
   9   7  13  857.88   69.95
   9   7  13  611.42   49.57
  -9  -7 -13  660.96   67.78
   9   7  14  636.86   55.51
   9   7  14  506.19   44.94
  -9  -7 -14  518.51   57.38
   9   8  -8   35.31    6.64
   9   8  -7    3.21    3.42
   9   8  -6    7.56    2.70
   9   8  -6   16.02    5.36
   9   8  -6   14.88    3.97
   9   8  -5   41.29    4.08
   9   8  -5   43.43    8.21
   9   8  -5   39.60    5.64
   9   8  -4  366.34   29.08
   9   8  -4  361.46   18.59
   9   8  -4  360.23   25.66
   9   8  -3   16.17    5.09
   9   8  -3    5.69    4.21
   9   8  -3    2.76    1.66
   9   8  -2    9.19    1.78
   9   8  -2   23.57    5.96
   9   8  -2   11.50    5.65
   9   8  -1  412.68   19.55
   9   8  -1  397.44   33.46
   9   8  -1  446.30   33.13
   9   8   0  232.55   11.69
   9   8   0  248.84   24.50
   9   8   0  278.33   23.55
   9   8   1  232.07   24.98
   9   8   1  223.44   11.90
   9   8   1  250.70   23.02
   9   8   2   14.31    2.22
   9   8   2   31.40    7.38
  -9  -8  -2   18.54    6.00
   9   8   3   64.04   11.61
  -9  -8  -3   70.52   12.99
   9   8   4   84.10    6.51
  -9  -8  -4  144.71   16.60
   9   8   5  634.54   31.99
  -9  -8  -5  966.24   64.27
   9   8   6 1424.61   96.58
   9   8   6  957.06   52.11
  -9  -8  -6 1375.90   94.58
   9   8   7  729.02   54.44
   9   8   7  483.84   27.78
  -9  -8  -7  671.75   52.25
   9   8   8   17.32    7.62
   9   8   8    8.85    2.95
  -9  -8  -8    5.67    8.02
   9   8   9    9.85    6.15
   9   8   9    5.10    3.03
  -9  -8  -9   15.97    5.67
   9   8  10   10.57    7.79
   9   8  10   11.21    4.10
   9   8  11  112.24   17.14
   9   8  11   84.00   10.43
  -9  -8 -11  127.36   15.59
   9   8  12   24.80    8.99
   9   8  12    6.35    4.75
  -9  -8 -12   16.84    9.63
   9   8  13   97.37   16.34
   9   8  13  114.21   14.05
  -9  -8 -13  137.29   21.76
   9   9  -8  625.88   46.12
   9   9  -7  144.56   14.24
   9   9  -6  376.29   31.07
   9   9  -5   46.06    7.27
   9   9  -5   51.41    9.46
   9   9  -4    8.47    4.40
   9   9  -4    6.55    5.91
   9   9  -3  666.62   46.23
   9   9  -3  746.76   55.34
   9   9  -2   45.40    8.02
   9   9  -2   38.26    9.25
   9   9  -1 1695.10  114.90
   9   9  -1 1786.03  126.55
   9   9   0  777.16   56.36
   9   9   0  769.10   60.40
   9   9   1   73.88   12.23
   9   9   1   90.32   13.01
   9   9   2   64.77   11.93
   9   9   2   63.73   12.16
   9   9   3  184.81   18.09
   9   9   3  136.01   16.36
   9   9   4  168.31   21.28
  -9  -9  -4  201.42   23.48
  -9  -9  -5   30.31   10.40
  -9  -9  -6  212.89   27.27
   9   9   7  219.23   25.50
  -9  -9  -7  242.29   29.59
   9   9   8   65.59   11.51
  -9  -9  -8   33.36   10.02
   9   9   9  121.21   18.01
   9   9  10   27.68   11.22
   9   9  11  212.73   26.24
  -9  -9 -11  189.29   28.68
   9   9  12   85.55   12.50
  -9  -9 -12   31.82   11.63
   9   9  13  252.33   32.95
  -9  -9 -13  214.17   32.35
   9  10  -8   16.67    7.07
   9  10  -7  260.58   26.72
   9  10  -6   78.66   12.60
   9  10  -5  218.10   17.05
   9  10  -5  258.44   25.54
   9  10  -4   36.35    6.63
   9  10  -4   31.34    9.13
   9  10  -3   -4.78    4.15
   9  10  -3   -3.34    4.76
   9  10  -2  104.70   12.30
   9  10  -2   98.50   15.70
   9  10  -1 1150.81   79.80
   9  10  -1 1236.58   92.41
   9  10   0 1165.22   84.14
   9  10   0 1187.11   88.10
   9  10   1  145.64   14.48
   9  10   1  159.49   19.89
   9  10   2  494.96   40.98
   9  10   2  468.05   43.75
   9  10   3  106.60   14.81
   9  10   4   72.32   13.41
   9  10   5  344.78   34.39
  -9 -10  -6    5.12    5.60
   9  10   7    7.64    6.22
  -9 -10  -7   -0.58    5.48
   9  10   8   85.20   12.85
  -9 -10  -8   90.19   17.73
   9  10   9   17.52    9.46
   9  10  10  204.89   25.53
  -9 -10 -10  138.95   22.90
   9  10  11   12.21   11.55
  -9 -10 -11   28.78    8.99
   9  10  12    9.18    6.97
  -9 -10 -12    9.20   10.08
   9  11  -6   51.06   11.49
   9  11  -5   10.76    7.82
   9  11  -4   24.50    5.28
   9  11  -4   25.37    9.37
   9  11  -3   52.01    8.52
   9  11  -3   50.67   12.13
   9  11  -2  650.58   47.89
   9  11  -2  758.00   60.68
   9  11  -1   56.24    9.46
   9  11  -1   42.76    9.48
   9  11   0    3.53    4.49
   9  11   0   -3.29    5.51
   9  11   1   98.85   13.13
   9  11   1   95.56   17.39
   9  11   2  386.29   36.63
   9  11   2  414.83   41.49
   9  11   3  125.38   14.43
   9  11   4   60.43   13.49
   9  11   5   75.02   13.76
   9  11   5   61.00   15.06
   9  11   6  207.75   24.08
   9  11   6  249.07   31.00
   9  11   8   34.81   12.52
   9  11   9   16.93   10.25
   9  11  10   65.09   13.07
  -9 -11 -10   96.92   18.65
   9  11  11   69.09   17.39
  -9 -11 -11   71.96   18.83
   9  12  -5   -4.10    7.01
   9  12  -4  178.78   23.42
   9  12  -3  276.76   23.54
   9  12  -3  311.89   33.02
   9  12  -2   37.98    7.64
   9  12  -2   41.74   12.41
   9  12  -1   -1.23    5.07
   9  12  -1   -7.93    7.16
   9  12   0  138.48   15.86
   9  12   0   98.17   20.68
   9  12   1    9.76    6.62
   9  12   1   -0.77    7.68
   9  12   2   20.89    8.01
   9  12   2    8.56    7.66
   9  12   3   27.71    9.45
   9  12   4    7.49    7.30
   9  12   5   96.49   14.67
   9  12   5  105.47   17.35
   9  12   6  208.30   28.71
   9  12   6  188.61   28.83
   9  12   7   52.48   15.01
   9  12   8   45.19   14.30
   9  12   9  150.23   19.19
   9  12   9   38.53   14.09
   9  13  -2   12.27    5.28
   9  13  -2    2.33    8.78
   9  13  -1  868.28   65.96
   9  13  -1 1035.10   87.85
   9  13   0   16.54    7.25
   9  13   0   11.65    7.52
   9  13   1    1.51    7.05
   9  13   1   20.31    8.97
   9  13   2   70.04   14.24
   9  13   3   30.50    8.07
   9  13   4   22.59   11.30
   9  13   4   43.03   12.42
   9  13   5  246.62   26.86
   9  13   5  254.10   31.52
   9  13   6   17.77   10.24
   9  13   6   12.05    9.85
   9  13   7   66.32   16.74
   9  13   7   67.38   16.56
  10 -10  -1    9.25    9.47
 -10  10   1   30.31   10.67
  10 -10   0   84.67   20.05
 -10  10   0  376.32   29.59
  10 -10   1   17.28   10.82
 -10  10  -1   27.54   10.25
  10  -9  -5  105.21   19.76
 -10   9   5  124.20   20.34
  10  -9  -4   45.03   13.85
  10  -9  -3   21.23    9.95
  10  -9  -2  312.07   36.23
 -10   9   2  505.59   42.86
  10  -9  -1   11.21    9.06
 -10   9   1   86.27   10.65
  10  -9   0  128.78   21.10
 -10   9   0  167.89   17.73
  10  -9   1   21.19   12.83
 -10   9  -1  148.39   14.07
  10  -9   2  121.57   17.41
 -10   9  -2  374.38   27.94
  10  -9   3   -7.22    7.44
 -10   9  -3   18.43    7.12
 -10   9  -3   10.24    6.90
  10  -9   4    1.33    6.62
 -10   9  -4    4.15    5.65
 -10   9  -4    1.40    6.33
  10  -9   5    6.27    7.62
 -10   9  -5    8.55    6.82
 -10   9  -5    3.15    7.34
  10  -8  -7  140.76   25.18
 -10   8   7  181.48   25.13
  10  -8  -6   80.79   16.18
 -10   8   6  110.42   18.56
  10  -8  -5   43.20   12.73
 -10   8   5   39.16    9.87
  10  -8  -4   22.27   10.27
 -10   8   4   26.36   10.52
  10  -8  -3   28.35   11.10
  10  -8  -2  399.70   40.00
 -10   8   2  475.19   40.00
  10  -8  -1  110.22   19.05
 -10   8   1  138.61   14.68
  10  -8   0  164.52   23.60
 -10   8   0  219.41   23.42
  10  -8   1 1087.79   82.14
 -10   8  -1 1258.11   82.55
  10  -8   2   27.87    8.71
 -10   8  -2  128.78   13.82
  10  -8   3   11.84   11.45
 -10   8  -3   44.02   10.64
 -10   8  -3   62.64   10.77
 -10   8  -4  496.22   42.34
 -10   8  -4  537.77   41.28
  10  -8   5   27.52   16.20
 -10   8  -5   94.93   12.74
 -10   8  -5  111.37   13.51
  10  -8   6   53.14   12.64
 -10   8  -6   26.52   11.83
  10  -8   7   15.57    9.07
 -10   8  -7    4.44    8.66
  10  -7  -8  576.25   53.70
 -10   7   8  654.54   56.30
  10  -7  -7   40.53   11.30
 -10   7   7   21.74    8.62
  10  -7  -6  140.01   25.60
 -10   7   6  210.97   22.51
  10  -7  -5    3.71    6.72
 -10   7   5    7.36    5.76
  10  -7  -4  227.89   28.54
 -10   7   4  253.38   22.10
  10  -7  -3    8.29    8.13
 -10   7   3   18.71    6.61
  10  -7  -2  287.43   27.87
  10  -7  -1   72.47   16.22
 -10   7   1   91.42   12.75
  10  -7   0 2392.63  176.60
 -10   7   0 2397.76  163.21
  10  -7   1  124.95   19.41
 -10   7  -1  141.85   13.89
  10  -7   2 2410.09  177.23
 -10   7  -2 2026.87  138.97
 -10   7  -2 2762.75  187.42
  10  -7   3  122.43   18.19
 -10   7  -3  132.73   16.19
 -10   7  -3  149.61   15.83
  10  -7   4   21.01   12.40
 -10   7  -4   68.69   12.05
 -10   7  -4  106.67   12.83
  10  -7   5   21.37   10.05
 -10   7  -5   24.30    9.08
 -10   7  -5   23.03    8.47
  10  -7   6  545.12   40.04
  10  -7   6  419.38   44.73
  10  -7   7  421.80   37.59
 -10   7  -7  206.33   26.96
  10  -7   8   65.33   14.16
 -10   7  -8   33.27   13.81
  10  -7   9   49.58    9.93
 -10   7  -9   12.00    8.63
  10  -6  -9   20.80    9.58
 -10   6   9   25.24   11.69
  10  -6  -8   37.98   12.77
 -10   6   8   48.36   12.21
  10  -6  -7  936.75   73.22
 -10   6   7  945.97   73.96
  10  -6  -6 1040.07   83.73
 -10   6   6 1033.63   78.05
  10  -6  -5 1271.57   98.25
 -10   6   5 1261.28   90.25
  10  -6  -4   11.60    6.79
 -10   6   4    1.93    7.37
  10  -6  -3    1.44    5.99
 -10   6   3    6.98    6.72
  10  -6  -2  681.34   50.66
 -10   6   2  680.88   51.49
  10  -6  -1 2543.44  181.75
  10  -6   0  669.15   54.23
 -10   6   0  687.51   52.17
  10  -6   1   32.59   10.42
 -10   6  -1   29.15    7.28
 -10   6  -1   46.42    9.82
  10  -6   2  192.71   21.50
 -10   6  -2  134.30   15.17
 -10   6  -2  168.88   19.09
  10  -6   3  926.11   68.71
 -10   6  -3  735.29   51.90
 -10   6  -3  889.48   56.67
  10  -6   4   50.54   11.77
 -10   6  -4   72.38   12.55
 -10   6  -4   84.63    9.89
  10  -6   5  129.60   15.17
  10  -6   5  121.27   12.61
 -10   6  -5  132.08   17.28
  10  -6   6   16.92    6.88
  10  -6   6   12.64    7.85
 -10   6  -6    6.85    7.70
  10  -6   7   34.86    8.01
  10  -6   7   23.26   10.81
 -10   6  -7   21.42   10.03
  10  -6   8  210.42   23.45
 -10   6  -8  106.41   19.81
  10  -6   9  161.89   19.69
 -10   6  -9   51.85   16.96
  10  -6  10  456.27   35.66
 -10   6 -10  138.88   27.25
  10  -5 -10   20.32    8.29
 -10   5  10   30.33   10.94
  10  -5  -9  913.10   78.18
 -10   5   9  903.97   63.67
  10  -5  -8  126.03   19.95
 -10   5   8  122.81   15.04
  10  -5  -7   26.65    7.90
 -10   5   7   41.52   10.26
  10  -5  -6  255.42   30.08
 -10   5   6  251.08   25.91
  10  -5  -5 1364.31   98.12
 -10   5   5 1353.02   93.44
  10  -5  -4 1279.56   90.64
 -10   5   4 1245.03   79.72
  10  -5  -3  987.21   74.85
 -10   5   3 1003.63   69.53
  10  -5  -2   10.35    5.57
 -10   5   2    6.93    7.16
  10  -5  -1  132.38   15.18
  10  -5   0 1940.81  128.79
  10  -5   1  857.41   58.56
 -10   5  -1  713.65   45.54
 -10   5  -1  818.70   56.67
  10  -5   2  937.91   68.43
 -10   5  -2  744.15   46.88
 -10   5  -2  894.85   55.87
  10  -5   3  225.48   23.51
 -10   5  -3  167.52   18.16
 -10   5  -3  188.29   19.78
  10  -5   4    6.02    5.45
 -10   5  -4   17.13    6.60
 -10   5  -4   11.84    5.16
  10  -5   5   66.22   13.19
  10  -5   5   78.30   10.99
 -10   5  -5   65.05   12.92
  10  -5   6  686.48   47.84
  10  -5   6  695.70   58.31
 -10   5  -6  675.65   55.26
  10  -5   7   26.28    7.05
  10  -5   7   16.92    8.73
 -10   5  -7   11.78    7.06
  10  -5   8    8.33    4.92
  10  -5   8    3.24    6.88
 -10   5  -8    0.21    6.86
  10  -5   9    6.64    6.77
 -10   5  -9    1.32    5.47
  10  -5  10  247.39   27.35
 -10   5 -10  105.12   20.54
  10  -5  11   21.51   10.33
 -10   5 -11   12.62   11.09
  10  -4 -10  228.93   27.53
 -10   4  10  183.57   24.11
  10  -4  -9    2.34    7.16
 -10   4   9    6.37    6.94
  10  -4  -8  556.79   49.30
 -10   4   8  575.25   43.86
  10  -4  -7  711.11   52.19
 -10   4   7  677.95   51.71
  10  -4  -6  239.13   25.77
 -10   4   6  221.48   22.63
  10  -4  -5  135.91   16.89
 -10   4   5  138.45   16.04
  10  -4  -4  196.92   20.99
 -10   4   4  166.02   18.88
  10  -4  -3   62.47   13.00
 -10   4   3   72.65   12.80
  10  -4  -2  233.12   25.81
 -10   4   2  244.98   20.05
  10  -4  -1  989.47   72.35
 -10   4   1 1000.58   68.30
  10  -4   0   14.02    6.85
 -10   4   0    7.45    4.16
  10  -4   1 2004.65  131.80
 -10   4  -1 1658.18  100.89
  10  -4   2  674.64   51.04
 -10   4  -2  571.86   38.81
 -10   4  -2  654.53   45.62
  10  -4   3  822.86   61.87
 -10   4  -3  740.44   51.01
 -10   4  -3  790.47   54.93
  10  -4   4  718.62   51.55
  10  -4   4  711.49   49.64
 -10   4  -4  651.05   47.15
  10  -4   5   18.39    8.52
  10  -4   5   23.04    6.97
 -10   4  -5   12.95    6.22
  10  -4   6  811.27   61.79
  10  -4   6  800.61   54.34
 -10   4  -6  722.68   58.14
  10  -4   7  248.03   21.58
  10  -4   7  255.44   26.30
 -10   4  -7  248.19   28.36
  10  -4   8  154.09   17.36
  10  -4   8  181.12   23.64
 -10   4  -8  191.42   20.04
  10  -4   9   24.65    8.92
 -10   4  -9    9.32   10.02
  10  -4  10    6.64    6.17
 -10   4 -10   -4.22    6.15
  10  -4  11   17.99    8.35
 -10   4 -11    2.74    6.57
  10  -4  12   -2.72    5.64
 -10   4 -12   -6.17    6.21
 -10   3  11  253.28   25.54
 -10   3  10    5.51    6.87
 -10   3   9  918.26   60.12
 -10   3   8   85.16   14.82
 -10   3   7   39.38    8.14
  10  -3  -6  698.54   56.61
 -10   3   6  699.18   49.91
  10  -3  -5 1464.57  103.22
 -10   3   5 1427.90   90.22
  10  -3  -4 1755.21  120.59
 -10   3   4 1730.11  109.52
  10  -3  -3  734.73   52.41
 -10   3   3  733.81   51.22
  10  -3  -2 1089.05   70.32
 -10   3   2 1094.46   73.72
  10  -3  -1   25.42    5.99
 -10   3   1   11.86    7.91
  10  -3   0  163.85   18.52
 -10   3   0  145.13   16.53
  10  -3   1  280.06   25.57
 -10   3  -1  231.20   19.56
  10  -3   2   64.32   11.34
 -10   3  -2   50.39    9.54
 -10   3  -2   60.26    8.38
  10  -3   3  657.54   44.76
  10  -3   3  659.82   42.23
 -10   3  -3  598.22   40.92
  10  -3   4  240.81   23.59
  10  -3   4  230.27   20.60
 -10   3  -4  153.35   18.54
  10  -3   5  552.49   37.37
  10  -3   5  558.04   38.49
 -10   3  -5  386.50   34.21
  10  -3   6   12.95    8.28
  10  -3   6   16.57    7.00
 -10   3  -6   14.75    5.86
  10  -3   7   94.45   13.75
  10  -3   7  118.67   13.13
 -10   3  -7   90.32   13.45
  10  -3   8  453.27   34.16
  10  -3   8  471.86   45.44
  10  -3   9 1373.38   88.54
  10  -3   9 1373.08  107.43
 -10   3  -9 1222.46   99.71
  10  -3  10  271.91   29.88
 -10   3 -10  201.33   23.94
  10  -3  11   57.62   12.56
 -10   3 -11   43.81   14.10
  10  -3  12    4.82    5.91
 -10   3 -12   10.29    8.29
  10  -2 -11  509.09   48.86
 -10   2  10   26.39    8.87
 -10   2   9  159.35   17.82
 -10   2   8   74.55   10.14
 -10   2   7   92.30   14.04
 -10   2   6  160.56   17.54
 -10   2   5 3732.73  263.01
 -10   2   4  404.32   28.00
 -10   2   3  257.54   22.41
 -10   2   2  206.19   19.99
 -10   2   1  161.66   16.65
 -10   2   0  233.33   18.98
 -10   2   0  352.51   26.78
 -10   2  -1 1280.09   78.55
 -10   2  -1 1405.41   92.49
  10  -2   2  246.21   24.42
 -10   2  -2  214.38   19.96
  10  -2   3  119.84   13.07
 -10   2  -3  155.61   14.94
  10  -2   4   16.12    6.88
 -10   2  -4   15.14    6.80
  10  -2   5  290.89   24.74
 -10   2  -5  222.76   24.70
  10  -2   6 1105.58   64.58
 -10   2  -6  794.22   65.45
  10  -2   7   13.74    7.05
 -10   2  -7   10.82    8.54
  10  -2   8   13.44    6.73
 -10   2  -8   17.18    8.68
  10  -2   9  687.09   47.40
 -10   2  -9  609.80   56.79
  10  -2  10  811.33   54.40
 -10   2 -10  669.55   57.81
 -10   2 -11  217.59   29.56
 -10   2 -12  387.90   46.50
 -10   2 -13   -0.46    5.37
  10  -1 -11   -1.79    6.11
  10  -1 -10  678.71   59.92
 -10   1  10  677.52   47.27
  10  -1  -9  442.45   39.88
 -10   1   9  454.64   34.36
  10  -1  -8  299.97   29.77
 -10   1   8  289.20   24.82
  10  -1  -7  157.31   19.31
 -10   1   7  173.01   17.48
  10  -1  -6   15.49    6.61
 -10   1   6   35.96    7.75
  10  -1  -5  427.79   30.56
 -10   1   5  405.60   32.11
  10  -1  -4  282.91   25.02
 -10   1   4  264.02   23.85
  10  -1  -3    7.18    4.24
 -10   1   3    2.06    5.42
  10  -1  -2  486.89   31.33
 -10   1   2  484.93   34.90
  10  -1  -1  317.55   24.51
 -10   1   1  196.35   13.97
 -10   1   1  292.64   20.40
  10  -1   0   20.69    6.61
  10  -1   0   14.52    3.78
 -10   1   0   19.70    4.40
  10  -1   1  510.75   36.36
  10  -1   1  487.29   34.31
 -10   1  -1  414.53   29.33
  10  -1   2 1361.32   84.85
  10  -1   2 1328.73   86.40
 -10   1  -2 1005.05   66.90
  10  -1   3  687.09   48.50
  10  -1   3  676.80   47.43
 -10   1  -3  612.26   43.16
  10  -1   4  211.74   18.67
  10  -1   4  145.95   17.43
 -10   1  -4  157.65   17.83
  10  -1   5 1116.08   70.23
 -10   1  -5  783.57   59.28
  10  -1   6  183.10   16.50
 -10   1  -6  123.77   18.38
  10  -1   7  497.80   35.42
 -10   1  -7  433.04   40.59
  10  -1   8   32.61    7.12
 -10   1  -8    7.60    7.12
  10  -1   9  180.05   16.07
 -10   1  -9   99.97   17.88
  10  -1  10  375.56   29.92
 -10   1 -10  375.07   41.00
 -10   1 -11    8.31    9.19
 -10   1 -12  159.16   23.85
 -10   1 -13  101.67   18.34
  10   0 -11    2.73    6.33
  10   0 -10  168.27   21.15
  10   0  -9 1056.87   73.17
 -10   0   9 1050.00   68.38
  10   0  -8   81.27   10.61
 -10   0   8   72.12   11.41
  10   0  -7    0.65    5.52
 -10   0   7    6.71    5.26
  10   0  -6  318.74   24.30
 -10   0   6  295.38   24.95
  10   0  -5  579.96   37.93
 -10   0   5  571.27   40.92
  10   0  -4  105.56   12.89
 -10   0   4   83.22   12.64
  10   0  -3  533.99   37.63
 -10   0   3  527.20   36.94
  10   0  -2  345.88   26.05
  10   0  -1  120.93   13.18
 -10   0   1   83.87    8.04
  10   0   0  775.33   48.59
  10   0   0  751.52   46.23
 -10   0   0  559.85   34.11
  10   0   1  486.56   32.98
  10   0   1  475.66   29.61
 -10   0  -1  316.25   23.68
  10   0   2  182.19   18.91
  10   0   2  171.77   17.03
 -10   0  -2  152.13   16.95
  10   0   3  162.81   18.12
  10   0   3  162.20   17.39
 -10   0  -3  154.01   17.59
  10   0   4  112.98   13.54
  10   0   4  104.33   12.46
 -10   0  -4   81.48   13.86
  10   0   5   61.01   10.04
  10   0   5   61.43   10.14
 -10   0  -5   39.66   10.83
  10   0   6 2405.70  159.60
  10   0   6 2321.97  153.79
 -10   0  -6 1923.44  141.27
  10   0   7  208.87   23.02
  10   0   7  214.96   21.17
 -10   0  -7  228.23   23.00
  10   0   8   83.09   14.78
  10   0   8  109.40   10.19
 -10   0  -8   58.19   12.88
  10   0   9  192.64   19.77
  10   0   9  169.41   18.50
 -10   0  -9  184.26   24.21
  10   0  10  195.05   16.98
  10   0  10  177.00   21.97
 -10   0 -10  128.64   24.76
  10   0  11  515.26   48.59
  10   0  11  515.68   39.19
 -10   0 -11  468.16   42.58
  10   0  12   57.39   11.18
 -10   0 -12  123.67   18.18
  10   0  13  105.15   20.97
 -10   0 -13  220.25   23.96
  10   1 -11    2.77    5.53
  10   1 -11    0.87    3.72
  10   1 -10   24.07    8.49
  10   1 -10   14.43    6.01
  10   1  -9  412.38   36.58
  10   1  -9  369.18   25.97
  10   1  -8  359.54   30.69
  10   1  -8  344.33   24.21
  10   1  -7    5.12    5.81
  10   1  -7    5.02    3.91
  10   1  -6 1135.00   74.98
  10   1  -6 1069.08   65.84
  10   1  -5  146.41   16.97
  10   1  -5  146.93   16.48
  10   1  -4  619.56   40.70
  10   1  -4  433.38   20.34
  10   1  -4  630.31   40.73
  10   1  -3  641.96   44.90
  10   1  -3  678.71   46.54
  10   1  -2 1380.93   90.09
  10   1  -2 1375.11   79.30
 -10  -1   2 1095.18   59.87
  10   1  -1  648.10   39.50
 -10  -1   1  441.01   27.78
  10   1   0  378.74   27.02
 -10  -1   0  295.11   21.23
  10   1   1  608.15   39.07
  10   1   1  622.18   42.02
 -10  -1  -1  510.49   33.61
  10   1   2  969.90   53.55
  10   1   2  974.38   63.50
 -10  -1  -2  733.75   49.77
  10   1   3  818.57   52.39
  10   1   3  829.39   55.69
 -10  -1  -3  748.65   51.10
  10   1   4 1070.69   69.23
  10   1   4 1060.21   66.53
 -10  -1  -4 1007.93   71.83
  10   1   5 1143.52   72.23
  10   1   5 1142.98   70.14
 -10  -1  -5  926.59   70.84
  10   1   6  268.85   24.47
  10   1   6  264.36   23.44
 -10  -1  -6  205.79   20.81
  10   1   7  551.88   42.38
  10   1   7  562.90   42.63
 -10  -1  -7  446.95   43.80
  10   1   8  406.26   30.90
  10   1   8  423.38   34.16
 -10  -1  -8  393.86   34.97
  10   1   9  430.86   30.02
  10   1   9  484.94   42.65
 -10  -1  -9  340.41   38.16
  10   1  10  139.79   14.92
  10   1  10  128.60   18.56
 -10  -1 -10  112.99   20.63
  10   1  11   -0.34    6.85
  10   1  11    3.93    5.33
 -10  -1 -11   12.11    8.04
  10   1  12  110.25   18.91
  10   1  12  162.20   17.16
 -10  -1 -12  184.51   20.96
  10   1  13   54.08   11.16
 -10  -1 -13   81.62   17.26
  10   1  14   12.33    9.33
  10   2 -11   95.01   15.67
  10   2 -10   89.57   11.82
  10   2 -10  113.72    9.94
  10   2  -9 1003.60   73.12
  10   2  -9  930.26   58.52
  10   2  -8  402.79   32.70
  10   2  -8  400.08   28.85
  10   2  -7  236.38   23.00
  10   2  -7  230.43   20.06
  10   2  -6  190.95   19.15
  10   2  -6  175.29   16.96
  10   2  -5  135.23   14.25
  10   2  -5  140.39   14.08
  10   2  -5   96.46    6.49
  10   2  -4  152.05   14.15
  10   2  -4  145.62   15.14
  10   2  -3  191.05   19.13
  10   2  -3  190.95   17.38
  10   2  -2  656.80   43.81
  10   2  -2  641.09   36.53
 -10  -2   2  530.99   30.24
  10   2  -1  443.77   29.67
  10   2  -1  442.68   28.56
 -10  -2   1  372.16   23.74
  10   2   0  695.61   38.47
 -10  -2   0  581.69   37.13
  10   2   1  445.76   29.39
  10   2   1  450.45   32.82
 -10  -2  -1  308.67   24.95
  10   2   2   35.24    8.74
  10   2   2   72.40    7.87
 -10  -2  -2   50.19    9.57
  10   2   3  479.23   33.23
  10   2   3  472.08   36.06
 -10  -2  -3  461.26   35.92
  10   2   4 1723.76  105.51
  10   2   4 1685.15  111.76
 -10  -2  -4 1691.60  113.12
  10   2   5  949.51   59.06
  10   2   5  954.29   59.76
 -10  -2  -5  792.52   61.49
  10   2   6  160.72   17.35
  10   2   6  158.68   19.30
 -10  -2  -6  168.62   19.49
  10   2   7 1885.63  117.35
  10   2   7 1946.83  128.54
 -10  -2  -7 1573.57  121.58
  10   2   8  554.19   41.35
  10   2   8  568.15   42.21
 -10  -2  -8  490.53   47.85
  10   2   9  124.52   13.11
  10   2   9  110.73   14.25
 -10  -2  -9   66.84   15.68
  10   2  10   62.12   10.44
  10   2  10   72.86   11.51
 -10  -2 -10   48.50   14.51
  10   2  11  215.64   21.99
  10   2  11  177.87   21.18
 -10  -2 -11  172.36   25.95
  10   2  12   45.11    8.63
  10   2  12   34.04    9.78
 -10  -2 -12   51.44   14.93
  10   2  13    1.51    5.89
  10   2  14    1.78    6.56
  10   3 -11    7.19    7.13
  10   3 -10   75.17   11.31
  10   3 -10   54.55    7.84
  10   3  -9  299.98   25.95
  10   3  -9  268.43   20.33
  10   3  -8 1875.50  123.70
  10   3  -8 1715.72  107.07
  10   3  -7  170.73   14.69
  10   3  -7  110.94   12.68
  10   3  -6  131.47   14.38
  10   3  -6  114.55   12.88
  10   3  -5  419.94   29.83
  10   3  -5  339.13   18.27
  10   3  -5  406.70   30.01
  10   3  -4  778.09   47.73
  10   3  -4  607.89   32.49
  10   3  -4  710.17   47.36
  10   3  -3  221.60   14.63
  10   3  -3  280.76   23.74
  10   3  -3  284.33   20.98
  10   3  -2  941.15   62.84
  10   3  -2  989.18   56.75
 -10  -3   2  776.51   46.41
  10   3  -1  535.10   34.40
  10   3  -1  551.03   35.51
 -10  -3   1  501.80   32.45
  10   3   0  188.89   14.32
  10   3   0  180.03   18.89
 -10  -3   0  142.89   14.11
  10   3   1  178.35   15.15
 -10  -3  -1  147.64   16.33
  10   3   2   27.78    6.08
  10   3   2   36.16    8.77
 -10  -3  -2   20.30    7.46
  10   3   3   82.18    9.47
  10   3   3   79.30    9.08
 -10  -3  -3   57.40   10.99
  10   3   4  139.76   14.20
  10   3   4  220.73   19.21
 -10  -3  -4  148.89   19.35
  10   3   5  241.39   19.69
  10   3   5  253.62   22.84
 -10  -3  -5  231.06   24.55
  10   3   6   57.68    8.54
  10   3   6   64.81    8.39
 -10  -3  -6   46.25   11.18
  10   3   7  126.27   15.00
  10   3   7  138.24   14.42
 -10  -3  -7  185.03   20.06
  10   3   8 1027.04   71.85
  10   3   8 1131.44   78.57
 -10  -3  -8 1061.44   77.93
  10   3   9 1061.72   74.47
  10   3   9  966.84   69.97
 -10  -3  -9 1024.61   84.36
  10   3  10   50.64    9.02
  10   3  10   54.36    8.02
 -10  -3 -10   24.25   12.67
  10   3  11   66.69   12.30
  10   3  11   82.84   12.43
 -10  -3 -11   81.09   17.22
  10   3  12  139.37   15.45
  10   3  12  109.91   16.23
 -10  -3 -12  112.39   21.91
  10   3  13   22.72    7.89
  10   3  13    7.95    9.13
  10   3  14    7.89    8.84
 -10  -3 -14   14.52   11.08
  10   4 -11  127.22   16.68
  10   4 -10  517.22   41.78
  10   4  -9  290.49   25.14
  10   4  -9  279.14   19.31
  10   4  -8   81.24   10.53
  10   4  -8   71.73    7.81
  10   4  -7 1215.30   78.79
  10   4  -7 1158.97   71.92
  10   4  -6   20.65    5.44
  10   4  -6    9.20    2.59
  10   4  -6   18.35    5.58
  10   4  -5  364.82   26.16
  10   4  -5  291.03   17.78
  10   4  -5  347.07   26.07
  10   4  -4  315.88   21.71
  10   4  -4  280.83   17.41
  10   4  -4  328.20   26.06
  10   4  -3  182.38   14.36
  10   4  -3  220.19   16.56
  10   4  -3  220.32   17.29
  10   4  -2 1462.26   90.62
  10   4  -2 1465.20   87.70
  10   4  -1  272.03   19.49
  10   4  -1  289.20   24.93
 -10  -4   1  270.02   21.18
  10   4   0  573.73   33.17
  10   4   0  592.78   41.51
 -10  -4   0  528.64   37.70
  10   4   1  134.42   13.17
 -10  -4  -1  154.03   14.41
  10   4   2  411.44   26.15
 -10  -4  -2  365.29   29.86
  10   4   3  235.12   18.63
  10   4   3  234.96   23.69
 -10  -4  -3  199.20   18.53
  10   4   4   93.27    9.87
  10   4   4  112.47   10.33
 -10  -4  -4   93.04   11.52
  10   4   5  127.74   14.23
  10   4   5  212.48   18.67
 -10  -4  -5  162.04   19.12
  10   4   6   10.10    4.67
  10   4   6    3.33    7.11
 -10  -4  -6    8.73    7.35
  10   4   7  163.50   16.32
  10   4   7  179.53   17.16
 -10  -4  -7  186.29   20.49
  10   4   8 1077.13   72.48
  10   4   8 1204.11   80.25
 -10  -4  -8 1139.69   90.83
  10   4   9   10.16    4.25
  10   4   9   10.40    5.32
 -10  -4  -9   11.35    6.48
  10   4  10  132.63   14.31
  10   4  10  133.74   16.61
 -10  -4 -10  119.26   20.95
  10   4  11   46.86   10.43
  10   4  11   32.78    7.30
 -10  -4 -11   35.83   13.13
  10   4  12  692.81   53.99
  10   4  12  644.66   56.15
  10   4  13  261.25   26.89
  10   4  13  199.18   24.01
  10   4  14    8.98    5.73
  10   4  14   11.77    6.75
 -10  -4 -14  -11.32    6.95
  10   5 -10    5.70    5.50
  10   5  -9  124.95   14.04
  10   5  -8  303.41   24.30
  10   5  -8  298.09   20.28
  10   5  -7    3.94    4.17
  10   5  -7    3.37    3.80
  10   5  -6   13.36    4.10
  10   5  -6    2.78    2.69
  10   5  -6    5.56    3.92
  10   5  -5    9.67    3.81
  10   5  -5   10.80    3.04
  10   5  -5    9.74    4.84
  10   5  -4   70.48    7.24
  10   5  -4   69.55    7.92
  10   5  -4   86.73   10.70
  10   5  -3   15.90    3.96
  10   5  -3   17.65    4.70
  10   5  -3   17.86    6.72
  10   5  -2  228.25   17.93
  10   5  -2  234.32   21.30
  10   5  -2  232.07   16.14
  10   5  -1  537.89   31.35
  10   5  -1  532.94   38.84
 -10  -5   1  448.23   34.38
  10   5   0    7.98    3.10
  10   5   0    8.85    6.04
 -10  -5   0    7.54    5.29
  10   5   1    4.85    2.96
  10   5   1    7.83    5.60
 -10  -5  -1    2.72    5.23
  10   5   2  340.82   22.11
 -10  -5  -2  310.72   27.14
  10   5   3  617.28   35.36
 -10  -5  -3  601.07   46.61
  10   5   4   32.68    5.93
  10   5   4   45.68   10.14
 -10  -5  -4   51.55   10.13
  10   5   5 1065.11   64.17
  10   5   5 1184.17   79.47
 -10  -5  -5 1021.68   76.51
  10   5   6 1169.68   70.84
  10   5   6 1238.67   87.46
 -10  -5  -6 1046.63   81.42
  10   5   7  202.34   18.05
  10   5   7  212.03   22.44
 -10  -5  -7  193.28   21.14
  10   5   8    9.34    7.92
  10   5   8   16.70    5.47
 -10  -5  -8   23.50   10.32
  10   5   9 1047.33   73.40
  10   5   9 1370.41   97.56
 -10  -5  -9 1204.02  100.58
  10   5  10   66.91   13.16
  10   5  10   70.46   10.17
 -10  -5 -10   53.54   14.19
  10   5  11  349.25   33.27
  10   5  11  271.01   25.92
 -10  -5 -11  276.89   30.54
  10   5  12  180.48   19.58
  10   5  12  138.76   17.71
  10   5  13   13.01    7.75
  10   5  13    8.55    7.59
  10   5  14  282.16   28.20
  10   5  14  172.84   22.69
 -10  -5 -14  239.29   31.28
  10   6 -10   12.73    5.90
  10   6  -9   37.31    7.39
  10   6  -8  121.78   12.39
  10   6  -7   18.04    4.98
  10   6  -7   10.19    3.41
  10   6  -7   13.76    4.49
  10   6  -6   48.62    6.82
  10   6  -6   38.69    5.64
  10   6  -6   48.18    7.27
  10   6  -5    6.43    3.85
  10   6  -5   17.43    5.21
  10   6  -4  347.75   24.74
  10   6  -4  405.10   24.96
  10   6  -4  395.09   28.80
  10   6  -3  296.05   22.33
  10   6  -3  325.56   26.37
  10   6  -3  317.98   19.32
  10   6  -2  166.39   13.03
  10   6  -2  179.01   16.34
  10   6  -2  177.57   17.58
  10   6  -1  373.64   22.47
  10   6  -1  340.74   28.87
  10   6  -1  370.23   29.15
  10   6   0   16.49    3.37
  10   6   0   24.37    7.90
 -10  -6   0   17.62    6.98
  10   6   1  707.32   37.90
  10   6   1  721.89   49.12
 -10  -6  -1  630.80   49.28
  10   6   2  103.16    8.61
  10   6   2  119.67   14.05
 -10  -6  -2   90.59   15.06
  10   6   3   41.91    5.35
 -10  -6  -3   85.17   11.96
  10   6   4   76.58    7.86
  10   6   4  127.04   12.28
 -10  -6  -4  122.83   15.47
  10   6   5  432.24   27.82
  10   6   5  495.00   36.07
 -10  -6  -5  459.83   39.37
  10   6   6  627.49   36.91
  10   6   6  817.81   60.00
 -10  -6  -6  709.01   56.68
  10   6   7 1292.44   94.20
  10   6   7 1081.96   66.81
 -10  -6  -7 1227.08   92.88
  10   6   8   51.89    8.01
  10   6   8   89.49   12.89
 -10  -6  -8   65.32   14.12
  10   6   9  286.70   27.71
  10   6   9  229.42   20.80
 -10  -6  -9  244.36   25.29
  10   6  10   43.33   10.57
  10   6  10   40.87    7.65
 -10  -6 -10   41.09   10.33
  10   6  11  236.91   26.73
  10   6  11  165.58   19.45
 -10  -6 -11  272.34   28.50
  10   6  12 1441.19  108.54
  10   6  12 1101.82   84.62
  10   6  13  147.68   19.39
  10   6  13  132.55   15.95
 -10  -6 -13  106.49   18.89
  10   7  -9    8.94    4.71
  10   7  -8   55.44    7.22
  10   7  -7   -0.76    2.86
  10   7  -7    4.06    3.09
  10   7  -7    2.55    2.65
  10   7  -6  283.64   18.15
  10   7  -6  258.61   18.91
  10   7  -6  267.24   19.15
  10   7  -5  357.22   21.48
  10   7  -5  310.25   22.18
  10   7  -5  313.08   23.36
  10   7  -4   82.12    8.30
  10   7  -4   64.52    6.70
  10   7  -4   70.98    9.00
  10   7  -3   93.20    9.79
  10   7  -3   97.62   11.08
  10   7  -3   89.90    6.89
  10   7  -2 1243.74   64.87
  10   7  -2 1041.26   72.29
  10   7  -2 1235.93   81.18
  10   7  -1  873.28   45.54
  10   7  -1  844.85   58.60
  10   7  -1  909.46   62.67
  10   7   0  216.52   13.20
  10   7   0  235.55   20.36
  10   7   0  239.68   19.92
  10   7   1   32.68    4.18
  10   7   1   68.19   10.40
 -10  -7  -1   62.02   10.63
  10   7   2   27.51    3.68
  10   7   2   53.74    9.50
 -10  -7  -2   34.74    9.51
  10   7   3  951.21   51.22
  10   7   3 1257.35   80.08
 -10  -7  -3 1127.60   82.93
  10   7   4   78.42    6.03
 -10  -7  -4   63.45   11.89
  10   7   5  690.75   39.81
  10   7   5  832.00   61.54
 -10  -7  -5  671.67   59.82
  10   7   6   92.03   13.21
  10   7   6   66.77    6.88
 -10  -7  -6   57.43   13.46
  10   7   7  919.39   68.88
  10   7   7  615.45   37.60
 -10  -7  -7  868.66   69.22
  10   7   8   28.21    6.79
  10   7   8   18.74    5.18
 -10  -7  -8   18.54   10.24
  10   7   9   62.17   13.03
  10   7   9   44.04    7.09
 -10  -7  -9   43.14   14.11
  10   7  10    1.66    5.91
  10   7  10    2.32    3.79
 -10  -7 -10    1.94    7.30
  10   7  11   72.93   12.99
  10   7  11   46.78    8.96
  10   7  12  212.13   25.21
  10   7  12  150.29   18.02
  10   7  13  639.46   51.21
  10   7  13  427.34   37.71
 -10  -7 -13  499.45   51.08
  10   8  -7  221.96   18.92
  10   8  -6   94.02    9.23
  10   8  -6   20.29    6.87
  10   8  -5  287.00   21.82
  10   8  -5  251.93   18.68
  10   8  -4   67.25   10.23
  10   8  -4   69.62    9.43
  10   8  -3   89.82   12.84
  10   8  -3   98.30   11.76
  10   8  -2   25.12    7.30
  10   8  -2   26.06    7.23
  10   8  -1   88.36   14.28
  10   8  -1  127.34   12.89
  10   8   0  336.66   29.47
  10   8   0  389.76   31.05
  10   8   1  328.68   31.01
  10   8   1  285.17   15.68
  10   8   1  371.59   31.93
  10   8   2  293.35   15.54
  10   8   2  430.29   33.56
 -10  -8  -2  382.81   34.48
  10   8   3  109.11   15.23
 -10  -8  -3  116.61   16.82
  10   8   4   15.63    2.47
 -10  -8  -4   27.44    9.57
  10   8   5    2.02    1.65
 -10  -8  -5   -1.29    4.81
  10   8   6 1327.54  104.44
 -10  -8  -6 1285.44  105.34
  10   8   7  540.12   44.62
  10   8   7  340.50   21.89
 -10  -8  -7  496.57   41.81
  10   8   8  100.51   15.02
  10   8   8   55.82    7.16
 -10  -8  -8   89.36   14.56
  10   8   9  120.00   19.34
 -10  -8  -9  129.19   16.13
  10   8  10  158.39   14.50
  10   8  10   79.92    9.83
 -10  -8 -10   92.28   15.90
  10   8  11  289.06   30.13
  10   8  11  221.00   21.12
  10   8  12   22.62    8.70
  10   8  12   21.21    5.80
 -10  -8 -12   25.17   12.18
  10   9  -7  346.29   28.87
  10   9  -6  250.08   24.30
  10   9  -5   39.36    8.08
  10   9  -5  136.13   11.99
  10   9  -4   14.84    5.28
  10   9  -4    1.67    3.99
  10   9  -3    9.48    6.33
  10   9  -3   11.33    5.64
  10   9  -2   99.37   17.41
  10   9  -2  138.69   14.74
  10   9  -1  190.64   21.83
  10   9  -1  189.54   20.19
  10   9   0  171.08   20.42
  10   9   0  158.32   18.07
  10   9   1   51.79   10.82
  10   9   1   49.21   10.39
  10   9   2   71.90   13.11
  10   9   2   73.89   14.01
  10   9   3   69.98   13.29
  10   9   4   73.28   13.37
 -10  -9  -4   62.74   10.62
 -10  -9  -5  192.89   26.45
 -10  -9  -6   82.00   15.91
  10   9   7   38.21   11.37
 -10  -9  -7   33.87   11.63
  10   9   8  160.75   19.49
 -10  -9  -8  115.76   20.81
  10   9   9  533.36   47.13
 -10  -9  -9  420.85   51.82
  10   9  10  194.16   26.36
  10   9  11   60.28   15.63
  10   9  12   79.39   17.01
 -10  -9 -12   51.19   17.47
  10  10  -6    9.91    6.36
  10  10  -5  204.69   21.04
  10  10  -4   54.22    8.45
  10  10  -4   57.77   11.37
  10  10  -3  187.71   18.37
  10  10  -3  177.64   21.30
  10  10  -2  112.20   12.20
  10  10  -2   48.82   11.51
  10  10  -1  154.74   18.97
  10  10  -1  159.24   17.03
  10  10   0 1513.89  111.93
  10  10   0 1559.61  120.68
  10  10   1  565.58   46.91
  10  10   1  506.70   46.25
  10  10   2  124.08   16.36
  10  10   2  106.69   17.14
  10  10   3   10.30    6.66
  10  10   3   22.63    9.26
  10  10   4   74.05   12.08
  10  10   4   76.70   16.11
  10  10   5   90.88   14.88
 -10 -10  -5   54.54   15.43
 -10 -10  -6  244.96   31.94
 -10 -10  -7   49.47   14.03
  10  10   8   83.70   17.22
 -10 -10  -8  104.15   14.59
  10  10   9  670.90   61.59
 -10 -10  -9  531.55   61.52
  10  10  10   29.43   12.63
  10  10  11    9.59    6.22
 -10 -10 -11  -10.06    6.90
  10  11  -5   55.50   12.70
  10  11  -4    2.19    3.49
  10  11  -4   -1.88    5.22
  10  11  -3   32.84    7.85
  10  11  -3   46.19   11.26
  10  11  -2  276.67   25.86
  10  11  -2  320.50   33.56
  10  11  -1  144.59   17.53
  10  11  -1  176.45   22.56
  10  11   0    5.21    6.63
  10  11   0   13.29    7.59
  10  11   1   15.85    7.71
  10  11   1    9.88    8.79
  10  11   2  150.80   15.50
  10  11   2   78.05   17.86
  10  11   3  193.97   22.63
  10  11   3  134.08   20.91
  10  11   4   34.12   11.05
  10  11   5   73.59   14.87
  10  11   6   50.83   12.63
  10  11   6   32.42   11.00
 -10 -11  -7   57.74   11.90
  10  11   8    2.77    7.35
 -10 -11  -8    1.56    7.40
  10  11   9  116.27   18.48
  10  11  10   63.05   16.66
  10  12  -3   45.52    9.33
  10  12  -3   56.32   13.52
  10  12  -2  311.83   28.02
  10  12  -2  400.30   39.28
  10  12  -1  105.13   14.93
  10  12  -1   93.52   19.01
  10  12   0    4.16    6.26
  10  12   0    5.82    5.74
  10  12   1   13.98    8.12
  10  12   1    9.30    6.88
  10  12   2   20.83    8.99
  10  12   2   16.97    8.26
  10  12   3   33.32    8.26
  10  12   3   12.19   11.26
  10  12   4    7.36    8.57
  10  12   5   57.91   14.54
  10  12   6  350.20   39.29
  10  12   6  282.52   40.04
  10  12   7   24.70   10.33
  10  12   7    9.16    7.68
  10  12   8   78.79   18.72
  10  13   0   13.49    7.72
  10  13   0   12.73   10.57
  10  13   1    5.30    7.01
  10  13   1    4.04    7.68
  10  13   2   63.80   14.22
  10  13   2   64.83   17.17
  10  13   3    3.79    5.87
  10  13   3   -1.37    4.94
  10  13   4   -0.97    4.58
  10  13   5   17.50   10.86
  10  13   5   16.61   11.40
  11  -8  -4   86.28   14.12
 -11   8   4   91.62   18.42
  11  -8  -3    3.36    5.85
  11  -8  -2   68.57   13.48
 -11   8   2  130.17   14.28
  11  -8  -1   36.50   11.92
 -11   8   1   38.47   13.72
  11  -8   0  688.51   66.83
 -11   8   0 1002.57   74.53
  11  -8   1  655.90   65.42
 -11   8  -1  848.29   65.98
  11  -8   2   86.68   20.21
 -11   8  -2  360.52   28.09
  11  -8   3    3.73   10.05
 -11   8  -3   27.97    9.48
  11  -8   4    1.40    8.01
 -11   8  -4   19.10    8.93
 -11   8  -4   67.25   10.22
  11  -7  -6   29.81   11.70
 -11   7   6   27.31   11.36
  11  -7  -5   46.42    9.74
 -11   7   5   45.57   10.71
  11  -7  -4  483.43   43.81
 -11   7   4  616.06   45.23
  11  -7  -3  107.20   20.46
 -11   7   3  154.96   17.51
  11  -7  -1   45.25   13.13
 -11   7   1   70.81   13.49
  11  -7   0   64.59   22.03
 -11   7   0  246.58   22.20
  11  -7   1 1875.78  154.61
 -11   7  -1 2628.83  184.75
  11  -7   2   84.00   14.61
 -11   7  -2  358.48   24.87
  11  -7   3   48.95   16.89
 -11   7  -3  203.26   19.65
  11  -7   4    6.02    5.40
 -11   7  -4    0.25    4.94
 -11   7  -4   -4.12    5.28
  11  -7   5   73.56   11.73
  11  -7   5   35.94   13.03
 -11   7  -5   24.90   10.94
  11  -7   6    7.80    7.38
  11  -7   6   19.05    9.17
 -11   7  -6    3.55    7.77
  11  -7   7  119.66   14.85
 -11   7  -7   48.29   16.46
  11  -6  -7  600.67   58.01
 -11   6   7  652.33   57.65
  11  -6  -6  578.24   57.26
 -11   6   6  600.47   51.45
  11  -6  -5  467.01   43.40
 -11   6   5  451.20   41.39
  11  -6  -4  440.93   40.53
 -11   6   4  545.97   43.62
  11  -6  -3    2.08    5.14
 -11   6   3    8.23    7.05
  11  -6  -2   26.03    9.94
 -11   6   2   19.93   10.76
  11  -6  -1  472.25   44.59
  11  -6   0  213.40   22.74
 -11   6   0  186.68   20.00
  11  -6   1   88.15   15.94
 -11   6  -1  103.32   13.27
  11  -6   2    9.60    8.61
 -11   6  -2   26.62    9.28
  11  -6   3    5.76    9.73
 -11   6  -3   28.07    8.30
 -11   6  -3   39.05    9.82
  11  -6   4  187.16   26.81
 -11   6  -4  591.77   38.31
  11  -6   5   11.74   11.99
  11  -6   5   63.45    9.07
 -11   6  -5   57.99   12.02
  11  -6   6   28.69    8.40
  11  -6   6   24.95   10.07
 -11   6  -6    2.90    9.29
  11  -6   7   75.12   11.50
  11  -6   7   70.01   12.06
 -11   6  -7   23.50   13.11
  11  -6   8  349.09   27.02
 -11   6  -8   95.04   17.63
  11  -5  -8  285.15   37.19
 -11   5   8  278.80   26.15
  11  -5  -7   97.39   18.63
 -11   5   7  157.19   19.51
  11  -5  -6   31.19   10.64
 -11   5   6   49.33   12.28
  11  -5  -5  691.39   60.24
 -11   5   5  736.95   57.13
  11  -5  -4  203.94   21.05
 -11   5   4  178.58   18.98
  11  -5  -3  220.47   26.54
 -11   5   3  234.07   22.16
  11  -5  -2  505.37   47.03
 -11   5   2  508.68   41.86
  11  -5  -1  415.52   35.53
  11  -5   0   35.06    9.87
  11  -5   1  498.90   47.33
 -11   5  -1  499.95   40.66
  11  -5   2  649.83   53.73
 -11   5  -2  453.29   32.44
 -11   5  -2  633.70   42.04
  11  -5   3   90.56   16.13
 -11   5  -3   70.09   12.85
 -11   5  -3   96.97   14.71
  11  -5   4  362.10   38.06
  11  -5   4  361.51   32.22
 -11   5  -4  264.81   27.53
  11  -5   5    4.65    6.08
  11  -5   5    5.06    6.25
 -11   5  -5    4.06    6.10
  11  -5   6   47.45   12.34
  11  -5   6   58.79   11.31
 -11   5  -6   44.12    9.90
  11  -5   7   11.21    7.14
  11  -5   7   20.81    8.24
 -11   5  -7    6.30    6.62
  11  -5   8   85.05   14.96
 -11   5  -8   18.06   13.68
  11  -5   9   80.50   12.81
 -11   5  -9   18.39   14.15
  11  -4  -9   33.03   12.14
 -11   4   9   50.00   12.63
  11  -4  -8   72.00   15.36
 -11   4   8   77.03   15.81
  11  -4  -7   93.81   19.50
 -11   4   7  146.44   18.21
  11  -4  -6  442.72   39.80
 -11   4   6  453.87   41.74
  11  -4  -5   52.89   12.05
 -11   4   5   69.89   13.84
  11  -4  -4   73.30   15.59
 -11   4   4   88.84   12.09
  11  -4  -3  401.07   38.33
 -11   4   3  415.90   31.53
  11  -4  -2  445.73   34.81
 -11   4   2  420.28   35.12
  11  -4  -1   61.86   13.38
 -11   4   1   71.16   10.05
  11  -4   0   26.91    9.15
  11  -4   1  893.32   69.80
  11  -4   2 1253.28   86.36
 -11   4  -2  736.21   55.67
 -11   4  -2 1178.81   77.83
  11  -4   3 2822.52  198.65
  11  -4   3 2750.28  183.54
 -11   4  -3 2055.64  148.45
  11  -4   4    9.09    7.71
  11  -4   4   15.01    7.46
 -11   4  -4    8.91    6.64
  11  -4   5   15.03    7.93
  11  -4   5   17.44    8.22
 -11   4  -5    9.09    7.70
  11  -4   6   35.54   11.91
  11  -4   6   72.59   10.71
 -11   4  -6   46.85   11.61
  11  -4   7  239.88   28.71
  11  -4   7  264.36   23.26
 -11   4  -7  196.88   25.61
  11  -4   8   86.26   13.20
  11  -4   8   68.77   16.16
 -11   4  -8   85.00   15.87
  11  -4   9    7.97    8.01
 -11   4  -9    6.53    6.60
  11  -4  10   55.74   13.73
 -11   4 -10   40.67   13.85
 -11   3   9  272.42   29.90
 -11   3   8   20.76    8.94
 -11   3   7   41.13   12.23
 -11   3   6  241.53   26.37
 -11   3   5 1676.68  119.73
 -11   3   4   79.48   14.61
 -11   3   3  111.44   16.11
 -11   3   2   96.17   11.80
 -11   3   1   28.04    9.04
 -11   3   0  441.06   36.40
  11  -3   1   68.85   12.49
 -11   3  -1   39.72    8.60
  11  -3   2 2911.93  204.87
  11  -3   2 2798.78  188.59
 -11   3  -2 2246.90  150.60
  11  -3   3  518.94   44.62
  11  -3   3  559.36   43.03
 -11   3  -3  433.49   33.51
  11  -3   4   83.76   14.87
  11  -3   4  151.57   16.21
 -11   3  -4  119.91   16.67
  11  -3   5   87.99   15.15
  11  -3   5  110.04   14.78
 -11   3  -5   88.82   14.20
  11  -3   6   96.01   17.01
  11  -3   6  117.69   13.61
 -11   3  -6   80.24   14.99
  11  -3   7  268.24   32.16
  11  -3   7  308.64   26.54
 -11   3  -7  199.10   27.81
  11  -3   8  174.23   19.53
  11  -3   8  183.08   25.04
 -11   3  -8  203.19   26.25
  11  -3   9  550.23   40.63
  11  -3   9  492.15   49.73
 -11   3  -9  424.62   46.18
  11  -3  10  435.39   45.30
 -11   3 -10  378.37   38.09
  11  -3  11  238.20   33.77
 -11   3 -11  278.67   35.48
  11  -2 -10   25.05    8.21
 -11   2  10   22.70    9.36
  11  -2  -9  114.70   19.41
 -11   2   9  114.54   16.40
  11  -2  -8  146.23   21.70
 -11   2   8  156.90   18.87
  11  -2  -7   34.44   10.03
 -11   2   7   22.23    9.49
  11  -2  -6   42.76    8.77
 -11   2   6   57.00    8.93
 -11   2   5 1400.02   98.39
 -11   2   4  593.97   45.83
 -11   2   3  239.01   24.88
 -11   2   2  697.79   52.43
 -11   2   1   39.51   10.22
 -11   2   0  112.28   12.59
  11  -2   1  449.92   36.54
 -11   2  -1  364.69   27.61
  11  -2   2  211.04   21.05
 -11   2  -2  146.74   17.28
  11  -2   3  182.64   16.81
 -11   2  -3  162.75   16.88
  11  -2   4  325.58   27.55
 -11   2  -4  224.83   24.62
  11  -2   5  305.67   24.79
 -11   2  -5  277.53   28.98
  11  -2   6 1171.50   79.26
 -11   2  -6  873.13   73.89
  11  -2   7  548.90   41.23
 -11   2  -7  339.14   38.58
  11  -2   8  115.08   14.55
 -11   2  -8   96.82   16.90
  11  -2   9  277.99   26.46
 -11   2  -9  271.44   29.96
  11  -2  10  741.00   53.70
 -11   2 -10  518.49   59.97
 -11   2 -11  101.74   20.92
 -11   2 -12   71.31   19.86
  11  -1 -10   10.21    8.53
  11  -1  -9  216.35   26.51
 -11   1   9  188.73   22.31
  11  -1  -8   70.76   13.86
 -11   1   8   61.29    9.31
  11  -1  -7    6.92    7.11
 -11   1   7   10.49    7.22
  11  -1  -6   70.74   11.33
 -11   1   6   93.37   13.75
  11  -1  -5   99.91   15.28
 -11   1   5  102.50   11.62
  11  -1  -4 2110.32  148.10
 -11   1   4 1999.36  141.07
  11  -1  -3   44.86   10.77
 -11   1   3   38.91   10.69
  11  -1  -2   78.41   12.79
 -11   1   2   62.05    9.60
  11  -1  -1  313.70   27.97
  11  -1  -1  264.39   21.79
  11  -1   0   -3.21    4.11
  11  -1   0    6.79    6.41
 -11   1   0    9.65    3.65
  11  -1   1  201.34   21.51
  11  -1   1  205.99   20.45
 -11   1  -1  166.46   16.48
  11  -1   2 1930.03  128.86
  11  -1   2 1895.30  130.18
 -11   1  -2 1641.24  108.22
  11  -1   3   52.75    8.91
  11  -1   3   61.50   10.98
 -11   1  -3   33.02    8.70
  11  -1   4  189.31   22.33
  11  -1   4  176.38   16.69
 -11   1  -4  203.21   19.99
  11  -1   5  302.72   29.68
  11  -1   5  313.46   28.23
 -11   1  -5  258.77   28.20
  11  -1   6   11.20    6.85
  11  -1   6    7.75    5.05
 -11   1  -6    3.69    6.82
  11  -1   7 1013.72   69.16
  11  -1   7 1031.21   71.64
 -11   1  -7  793.92   69.55
  11  -1   8  492.50   47.31
  11  -1   8  492.31   36.08
 -11   1  -8  459.16   41.05
  11  -1   9 1070.88   75.71
  11  -1   9 1036.44   85.35
 -11   1  -9  736.75   72.95
  11  -1  10   38.56    9.69
  11  -1  10   43.12   11.57
 -11   1 -10   25.71    9.53
  11  -1  11   13.94    6.96
 -11   1 -11   16.52   10.63
  11  -1  12  186.96   27.31
 -11   1 -12  204.00   28.58
  11   0 -10   98.97   14.27
  11   0  -9  447.06   43.80
  11   0  -8 1348.65  100.56
 -11   0   8 1288.90   89.44
  11   0  -7  252.95   28.09
 -11   0   7  239.11   23.90
  11   0  -6   98.31   12.58
  11   0  -5  790.67   59.07
  11   0  -4 1418.92   95.96
  11   0  -4 1972.28  120.67
  11   0  -3 1905.20  131.95
  11   0  -3 1943.38  133.96
  11   0  -2  192.84   21.59
  11   0  -2  193.40   21.32
  11   0  -1  149.22   17.89
  11   0   0  148.30   15.50
  11   0   0  133.28   13.05
 -11   0   0   85.52   10.66
  11   0   1  865.67   54.70
  11   0   1  871.06   54.16
 -11   0  -1  559.30   41.81
  11   0   2  787.31   52.59
  11   0   2  770.56   48.82
 -11   0  -2  568.57   41.89
  11   0   3  121.85   15.01
  11   0   3  118.64   14.54
 -11   0  -3   80.77   13.30
  11   0   4  137.78   14.05
  11   0   4  155.68   16.93
 -11   0  -4  128.35   16.99
  11   0   5 1906.58  128.24
  11   0   5 1954.46  125.36
 -11   0  -5 1479.01  113.26
  11   0   6  285.54   27.41
  11   0   6  272.67   25.55
 -11   0  -6  211.51   27.51
  11   0   7  523.95   45.36
  11   0   7  556.35   41.64
 -11   0  -7  487.84   51.25
  11   0   8  317.55   27.76
  11   0   8  325.67   29.22
 -11   0  -8  235.31   31.02
  11   0   9  345.62   29.84
  11   0   9  329.35   30.30
 -11   0  -9  280.28   36.05
  11   0  10  128.59   15.14
  11   0  10  131.86   14.89
 -11   0 -10   98.25   20.50
  11   0  11  425.13   34.08
  11   0  11  372.46   35.17
 -11   0 -11  343.71   44.63
  11   0  12   73.49   16.72
 -11   0 -12   79.82   20.02
  11   1 -10   63.37   13.25
  11   1 -10   57.86   10.38
  11   1  -9  268.37   29.62
  11   1  -9  262.13   24.92
  11   1  -8  139.07   21.28
  11   1  -8  165.90   17.77
  11   1  -7   70.47   14.09
  11   1  -7   86.72   12.79
  11   1  -6   40.08    9.06
  11   1  -6   37.01    9.50
  11   1  -5   76.16   12.65
  11   1  -5   84.48   13.75
  11   1  -4  529.35   41.45
  11   1  -4  545.52   41.77
  11   1  -3  139.41   18.38
  11   1  -3  164.19   16.90
  11   1  -2 2811.54  199.78
  11   1  -2 2803.19  189.62
  11   1  -1   16.74    6.67
  11   1   0   11.71    5.74
 -11  -1   0    7.44    4.47
  11   1   1  602.24   41.05
  11   1   1  580.72   43.28
 -11  -1  -1  448.76   34.63
  11   1   2 2671.05  165.77
  11   1   2 2537.77  166.82
 -11  -1  -2 1721.46  122.31
  11   1   3  688.26   43.72
  11   1   3  752.94   53.33
 -11  -1  -3  522.91   41.72
  11   1   4   -0.26    4.40
  11   1   4   -0.62    5.34
 -11  -1  -4    5.52    4.10
  11   1   5    7.20    5.44
  11   1   5    2.92    5.88
 -11  -1  -5    3.85    4.56
  11   1   6   68.35   11.38
  11   1   6   60.40   11.59
 -11  -1  -6   48.16   12.67
  11   1   7   71.98   14.38
  11   1   7  124.09   15.58
 -11  -1  -7   98.29   17.09
  11   1   8    8.80    4.98
  11   1   8    3.75    6.84
 -11  -1  -8    2.18    8.47
  11   1   9  586.33   46.02
  11   1   9  575.76   51.57
 -11  -1  -9  512.65   47.45
  11   1  10   33.53    7.27
  11   1  10   28.03   10.34
 -11  -1 -10   34.29   12.72
  11   1  11   93.74   15.67
  11   1  11   93.83   13.97
 -11  -1 -11  108.45   20.33
  11   1  12    0.97    6.57
  11   1  12   23.03    7.53
 -11  -1 -12   20.63    8.41
  11   1  13  118.21   20.67
 -11  -1 -13  273.31   31.17
  11   2 -10  507.87   45.11
  11   2 -10  498.47   37.27
  11   2  -9  137.90   18.28
  11   2  -9  116.26   13.90
  11   2  -8  503.65   42.16
  11   2  -8  449.14   33.50
  11   2  -7  104.67   14.57
  11   2  -7   99.51   13.71
  11   2  -6  384.00   32.02
  11   2  -6  356.77   29.59
  11   2  -5   76.74    9.59
  11   2  -5   61.40   11.61
  11   2  -4 1095.16   60.17
  11   2  -4 1542.68   95.78
  11   2  -4 1531.11   97.47
  11   2  -3   16.87    7.67
  11   2  -3   13.47    6.17
  11   2  -2  227.71   19.37
  11   2  -2  234.45   21.00
  11   2  -1  161.31   16.10
  11   2  -1  147.54   16.92
 -11  -2   1  102.69   11.83
  11   2   0   22.27    6.10
 -11  -2   0    9.52    4.68
  11   2   1  257.12   21.16
 -11  -2  -1  196.47   18.27
  11   2   2  312.09   22.14
  11   2   2  343.70   28.95
 -11  -2  -2  257.69   23.66
  11   2   3  238.55   20.62
  11   2   3  239.26   19.84
 -11  -2  -3  189.25   22.15
  11   2   4    9.48    6.53
  11   2   4   22.23    8.41
 -11  -2  -4   19.51    7.47
  11   2   5  129.95   14.57
  11   2   5  128.06   13.19
 -11  -2  -5   90.18   16.86
  11   2   6  667.09   48.13
  11   2   6  689.53   47.02
 -11  -2  -6  532.98   43.71
  11   2   7  598.92   45.01
  11   2   7  614.73   43.28
 -11  -2  -7  489.04   46.42
  11   2   8   39.52   10.65
  11   2   8   56.20    8.45
 -11  -2  -8   38.99   13.37
  11   2   9   24.81    9.49
  11   2   9   30.95    9.61
 -11  -2  -9   33.64    9.21
  11   2  10  137.43   18.26
  11   2  10  124.31   18.95
 -11  -2 -10  185.60   23.01
  11   2  11   17.31    8.34
  11   2  11   16.35    7.66
 -11  -2 -11   16.24   10.60
  11   2  12   96.89   16.18
  11   2  12  113.12   15.54
 -11  -2 -12  117.45   20.68
  11   2  13    5.48    6.35
 -11  -2 -13   15.70   10.43
  11   3 -10  256.18   27.92
  11   3  -9  570.40   45.72
  11   3  -9  524.12   35.17
  11   3  -8 1083.62   72.56
  11   3  -8 1077.66   72.60
  11   3  -7  180.66   19.41
  11   3  -7  151.12   14.99
  11   3  -6  138.68   15.85
  11   3  -5   62.92    9.42
  11   3  -5   54.26   10.35
  11   3  -4  269.74   16.82
  11   3  -4  368.14   28.71
  11   3  -4  382.55   29.70
  11   3  -3  122.50   11.42
  11   3  -3  165.43   17.52
  11   3  -3  162.87   16.32
  11   3  -2 1074.89   74.79
  11   3  -2 1052.62   68.66
  11   3  -1  145.83   15.04
  11   3  -1  142.16   14.22
 -11  -3   1  117.18   13.07
  11   3   0  321.23   23.28
  11   3   0  334.11   27.89
 -11  -3   0  218.39   20.43
  11   3   1    3.34    4.28
 -11  -3  -1    3.00    4.46
  11   3   2  881.83   55.47
  11   3   2  859.01   56.67
 -11  -3  -2  705.40   51.85
  11   3   3  142.99   16.76
  11   3   3  192.55   18.31
 -11  -3  -3  124.78   16.88
  11   3   4   49.59    9.13
  11   3   4   69.98   12.06
 -11  -3  -4   53.25   11.82
  11   3   5  162.80   17.57
  11   3   5  163.56   17.02
 -11  -3  -5  204.10   21.54
  11   3   6   22.62    6.69
  11   3   6   10.65    9.39
 -11  -3  -6   26.81    9.33
  11   3   7  444.03   35.47
  11   3   7  511.73   42.31
 -11  -3  -7  434.06   39.30
  11   3   8 1011.98   73.88
  11   3   8 1163.49   82.19
 -11  -3  -8  887.59   71.28
  11   3   9  688.78   55.58
  11   3   9  638.13   51.38
 -11  -3  -9  655.02   56.02
  11   3  10  634.04   50.65
  11   3  10  554.13   45.56
 -11  -3 -10  614.46   59.83
  11   3  11   69.02   14.32
  11   3  11   98.35   11.30
 -11  -3 -11   99.80   18.14
  11   3  12  272.78   27.84
  11   3  12  211.89   26.82
 -11  -3 -12  271.69   32.86
  11   3  13    2.94    5.23
  11   3  13    2.82    4.27
 -11  -3 -13   -7.29    6.86
  11   4  -9   46.41   10.51
  11   4  -9   52.91    6.87
  11   4  -8    4.27    4.28
  11   4  -8   -1.29    3.70
  11   4  -7   13.27    6.02
  11   4  -7    7.68    5.95
  11   4  -6  144.22   16.25
  11   4  -6  139.03   15.85
  11   4  -5   33.99    7.22
  11   4  -5   19.36    3.46
  11   4  -5   30.73    7.54
  11   4  -4   95.50    7.85
  11   4  -4  113.19   10.78
  11   4  -4  116.93   12.23
  11   4  -3  235.13   17.54
  11   4  -3  264.84   25.42
  11   4  -3  277.55   21.04
  11   4  -2  619.63   40.84
  11   4  -2  599.74   44.98
  11   4  -1  302.56   22.62
  11   4  -1  300.17   27.10
 -11  -4   1  234.72   21.52
  11   4   0  550.82   34.89
  11   4   0  567.58   38.24
 -11  -4   0  425.45   32.82
  11   4   1  386.28   26.26
  11   4   1  400.70   33.78
 -11  -4  -1  340.49   28.39
  11   4   2  169.48   16.56
 -11  -4  -2  182.14   17.07
  11   4   3   31.61    6.78
  11   4   3   35.99    9.24
 -11  -4  -3   29.45    8.79
  11   4   4  149.00   15.17
  11   4   4  219.59   20.31
 -11  -4  -4  169.73   20.47
  11   4   5   12.23    4.39
  11   4   5    3.28    5.25
 -11  -4  -5    8.23    7.33
  11   4   6  283.39   23.67
  11   4   6  355.72   32.02
 -11  -4  -6  257.15   30.36
  11   4   7  234.72   22.79
  11   4   7  295.42   25.61
 -11  -4  -7  247.28   30.62
  11   4   8  444.64   35.59
  11   4   8  552.40   45.71
 -11  -4  -8  506.35   50.41
  11   4   9  656.55   52.74
  11   4   9  520.31   44.68
 -11  -4  -9  616.97   58.61
  11   4  10  152.75   17.57
  11   4  10  153.01   18.65
 -11  -4 -10  156.82   23.71
  11   4  11  130.45   16.85
  11   4  11  143.20   19.08
 -11  -4 -11  148.23   22.36
  11   4  12  582.95   48.74
  11   4  12  491.48   43.98
 -11  -4 -12  505.64   51.35
  11   4  13  446.40   41.87
  11   4  13  344.45   36.12
  11   5  -9  411.00   35.63
  11   5  -8   91.89   12.02
  11   5  -8   83.46   10.31
  11   5  -7    8.98    5.26
  11   5  -7    6.43    4.79
  11   5  -6   34.90    7.24
  11   5  -6   32.67    8.04
  11   5  -5  121.54   11.93
  11   5  -5   85.66    7.37
  11   5  -5  122.11   13.75
  11   5  -4  136.14   12.66
  11   5  -4  176.51   17.60
  11   5  -4  189.47   15.94
  11   5  -3   17.95    5.43
  11   5  -3   65.06    7.74
  11   5  -3   45.74    6.97
  11   5  -2   36.16    6.23
  11   5  -2   22.43    5.68
  11   5  -2   37.92    9.56
  11   5  -1  545.60   35.55
  11   5  -1  571.75   43.69
 -11  -5   1  465.41   35.68
  11   5   0  491.06   30.29
  11   5   0  533.28   37.10
 -11  -5   0  421.18   35.06
  11   5   1   24.27    5.23
  11   5   1   26.70    8.78
 -11  -5  -1   23.28    7.53
  11   5   2   93.48    9.37
 -11  -5  -2   87.83   14.32
  11   5   3  930.68   56.30
 -11  -5  -3  880.57   67.32
  11   5   4 1084.07   64.76
  11   5   4 1226.35   89.87
 -11  -5  -4 1020.48   80.45
  11   5   5  746.21   48.36
  11   5   5  903.19   61.40
 -11  -5  -5  715.32   58.95
  11   5   6 1434.75   89.99
  11   5   6 1629.96  117.30
 -11  -5  -6 1290.68  105.10
  11   5   7  435.74   33.41
  11   5   7  523.17   45.76
 -11  -5  -7  476.48   40.77
  11   5   8  218.58   25.34
  11   5   8  157.78   17.78
 -11  -5  -8  228.48   27.33
  11   5   9  674.60   53.08
  11   5   9  843.14   59.92
 -11  -5  -9  758.51   68.07
  11   5  10  145.98   18.51
  11   5  10  203.72   25.14
 -11  -5 -10  232.22   28.70
  11   5  11   21.52    8.38
  11   5  11    9.36    6.84
 -11  -5 -11   12.22   10.44
  11   5  12    8.14    7.45
  11   5  12   12.98    6.03
 -11  -5 -12   -4.17    6.80
  11   5  13   53.35   10.02
  11   5  13   27.70    8.56
  11   6  -8  116.46   13.47
  11   6  -7   16.29    5.25
  11   6  -7   10.13    4.50
  11   6  -6  130.20   12.56
  11   6  -6  127.62   13.13
  11   6  -5  143.53   12.64
  11   6  -5  109.56   11.37
  11   6  -5  135.42   15.05
  11   6  -4   99.91    8.83
  11   6  -4  121.96   13.37
  11   6  -4   67.59    9.53
  11   6  -3  323.83   24.07
  11   6  -3  375.35   29.55
  11   6  -3  398.72   26.91
  11   6  -2   24.08    4.91
  11   6  -2   32.90    6.10
  11   6  -2   34.91    8.95
  11   6  -1    1.54    2.56
  11   6  -1    7.68    4.32
  11   6  -1    2.79    5.56
  11   6   0   -0.21    2.01
  11   6   0   -1.01    3.31
 -11  -6   0    0.17    3.76
  11   6   1  449.12   28.29
  11   6   1  555.98   42.07
 -11  -6  -1  423.97   35.81
  11   6   2   67.64    7.69
  11   6   2   67.89   12.91
 -11  -6  -2   60.31    9.62
  11   6   3   80.52    7.73
 -11  -6  -3   76.75   13.24
  11   6   4   -3.67    2.57
 -11  -6  -4    6.79    5.88
  11   6   5  840.58   50.69
  11   6   5 1112.99   74.47
 -11  -6  -5  938.45   75.37
  11   6   6  452.77   29.96
  11   6   6  598.42   43.91
 -11  -6  -6  499.08   48.07
  11   6   7  241.68   21.01
  11   6   7  329.67   32.89
 -11  -6  -7  258.59   30.44
  11   6   8   45.97    6.77
  11   6   8   45.63   12.76
 -11  -6  -8   40.14   10.58
  11   6   9   35.54   10.30
  11   6   9   21.17    6.75
 -11  -6  -9   40.07    9.01
  11   6  10   27.17   10.76
  11   6  10   13.27    5.51
 -11  -6 -10   36.40    8.43
  11   6  11  158.99   20.37
  11   6  11  126.45   15.10
 -11  -6 -11  157.37   23.60
  11   6  12  577.43   52.95
  11   6  12  437.61   39.00
 -11  -6 -12  508.31   53.97
  11   7  -6   87.33    8.76
  11   7  -6   91.16    8.20
  11   7  -6   68.73    9.24
  11   7  -5  503.53   35.84
  11   7  -5  574.25   33.48
  11   7  -5  579.18   40.20
  11   7  -4    6.60    4.44
  11   7  -4   10.04    5.77
  11   7  -4    9.02    3.46
  11   7  -3  102.15   10.39
  11   7  -3   78.71   11.40
  11   7  -3  124.77   13.62
  11   7  -2  527.83   30.93
  11   7  -2  520.64   39.93
  11   7  -2  544.83   41.76
  11   7  -1  809.92   45.96
  11   7  -1  933.76   62.53
  11   7  -1  895.64   65.39
  11   7   0  276.11   17.46
  11   7   0  342.99   30.03
  11   7   0  333.84   27.00
  11   7   1   23.22    4.02
  11   7   1   32.14    7.17
 -11  -7  -1   28.16    6.93
  11   7   2    6.72    2.80
  11   7   2   31.19    7.44
 -11  -7  -2   12.55    7.78
  11   7   3   40.57    4.77
  11   7   3   59.81   11.28
 -11  -7  -3   56.07   11.53
  11   7   4  321.79   20.34
 -11  -7  -4  418.79   38.35
  11   7   5  131.33   11.47
  11   7   5  180.61   18.43
 -11  -7  -5  125.22   17.88
  11   7   6   35.32    5.22
  11   7   6   53.59    8.74
 -11  -7  -6   38.49   11.28
  11   7   7   65.29    8.54
  11   7   7  101.75   12.01
 -11  -7  -7   62.31   12.79
  11   7   8   57.04   12.07
  11   7   8   37.32    6.50
 -11  -7  -8   46.25   12.64
  11   7   9 1051.39   83.90
  11   7   9  709.57   50.49
 -11  -7  -9  858.29   71.76
  11   7  10  273.99   25.92
  11   7  10  174.19   18.88
 -11  -7 -10  297.94   31.92
  11   7  11    4.83    6.94
  11   7  11    4.43    4.59
 -11  -7 -11   -3.33    8.21
  11   7  12   15.81    9.37
  11   7  12   10.26    5.29
  11   8  -6    8.52    4.73
  11   8  -6   10.06    4.79
  11   8  -5    7.91    5.16
  11   8  -5    9.41    5.13
  11   8  -4  338.76   28.50
  11   8  -4  341.39   28.67
  11   8  -3  188.57   18.80
  11   8  -3  186.43   18.24
  11   8  -2    4.36    5.10
  11   8  -2    5.47    5.51
  11   8  -1  186.41   22.47
  11   8  -1  228.26   22.39
  11   8   0  490.85   42.81
  11   8   0  579.33   46.77
  11   8   1  377.28   35.21
  11   8   1  449.42   36.06
  11   8   2  251.74   23.04
 -11  -8  -2  235.92   28.46
  11   8   3  464.46   41.91
 -11  -8  -3  411.58   40.71
  11   8   4   58.23   13.54
 -11  -8  -4   44.19   12.95
 -11  -8  -5  123.76   20.83
  11   8   6  131.94   17.49
 -11  -8  -6  178.14   21.62
  11   8   7  745.47   65.01
 -11  -8  -7  677.47   68.52
  11   8   8   96.28   16.36
 -11  -8  -8   73.95   17.59
  11   8   9  116.68   15.83
 -11  -8  -9  103.96   20.76
  11   8  10   79.85   16.58
 -11  -8 -10   66.44   16.87
  11   8  11   18.39    8.71
 -11  -8 -11    1.92   10.52
  11   9  -6  330.50   29.67
  11   9  -5  557.38   41.61
  11   9  -5  446.38   31.94
  11   9  -4   29.93    8.40
  11   9  -4   29.01    7.70
  11   9  -3   17.36    7.40
  11   9  -3   15.60    6.73
  11   9  -2   72.60   12.42
  11   9  -2   79.84   12.09
  11   9  -1  178.36   21.50
  11   9  -1  157.95   19.58
  11   9   0  155.76   19.46
  11   9   0  172.82   18.61
  11   9   1   52.32   13.17
  11   9   1   73.22   13.11
  11   9   2  126.59   18.45
  11   9   2  115.66   17.95
  11   9   3  255.68   29.92
  11   9   4   40.08    7.97
 -11  -9  -4   17.56   11.30
 -11  -9  -5  128.32   22.00
 -11  -9  -6   12.74    9.50
  11   9   7  341.94   38.02
 -11  -9  -7  303.14   39.52
  11   9   8  536.74   53.15
 -11  -9  -8  407.24   43.90
  11   9   9    2.76    7.42
 -11  -9  -9    6.38    8.39
  11   9  10   42.89   12.93
 -11  -9 -10   28.13   14.00
  11  10  -5   63.56   11.98
  11  10  -4  257.56   23.13
  11  10  -4  302.89   29.99
  11  10  -3  167.37   17.46
  11  10  -3  173.41   20.55
  11  10  -2    6.34    5.89
  11  10  -2    6.56    6.67
  11  10  -1   32.97    9.04
  11  10  -1   27.75   10.32
  11  10   0  111.25   15.31
  11  10   0   88.88   13.25
  11  10   1  474.98   44.13
  11  10   1  458.34   45.31
  11  10   2   49.47   10.77
  11  10   2   24.62   11.09
  11  10   3   70.03   12.77
  11  10   3   44.80   14.03
  11  10   4   15.88   10.01
  11  10   4   20.66    8.11
  11  10   5   16.90    8.10
 -11 -10  -5   -1.97    9.04
 -11 -10  -6  133.37   21.75
 -11 -10  -7    6.85    8.77
  11  10   8    2.12    5.98
 -11 -10  -8   10.00    6.82
  11  10   9    0.65    7.74
 -11 -10  -9   14.80    9.61
  11  11  -3   13.13    7.04
  11  11  -3   16.64    8.32
  11  11  -2   11.93    7.07
  11  11  -2   20.03    9.00
  11  11  -1    4.47    5.01
  11  11  -1   -1.08    6.60
  11  11   0    9.68    6.33
  11  11   0   -0.48    7.18
  11  11   1   14.99    8.37
  11  11   1   13.76    7.14
  11  11   2    0.51    4.26
  11  11   2    1.06    5.63
  11  11   3    2.93    6.10
  11  11   3    0.51    6.49
  11  11   4   11.65    8.08
  11  11   4    1.81    8.77
  11  11   5   22.17    9.69
  11  11   5    6.19    9.64
  11  11   6  103.48   20.73
 -11 -11  -7   97.69   20.42
  11  11   8    8.84   10.23
 -11 -11  -8   12.94    7.72
  11  12   0  219.70   26.32
  11  12   0  263.84   32.34
  11  12   1   59.14   13.44
  11  12   1   54.77   15.26
  11  12   2  128.75   18.80
  11  12   2  110.43   21.48
  11  12   3    4.60    5.57
  11  12   3    1.87    5.82
  11  12   4   44.35   15.16
  11  12   4   46.50   14.12
  11  12   5    0.18    5.78
  12  -7  -2    9.64    6.80
  12  -7  -1   28.07   11.67
 -12   7   1   35.45   13.50
  12  -7   0   95.06   17.42
 -12   7   0  130.65   16.62
  12  -7   1  271.19   36.70
 -12   7  -1  403.20   37.43
  12  -7   2  117.46   25.32
 -12   7  -2  468.38   31.21
  12  -7   3   52.05   18.77
 -12   7  -3  225.67   22.05
  12  -6  -5  254.19   31.85
 -12   6   5  351.41   35.53
  12  -6  -4  641.16   67.07
 -12   6   4  876.54   64.97
  12  -6  -3   83.97   17.30
 -12   6   3  102.44   15.09
  12  -6  -2   15.41    9.57
 -12   6   2   31.60   10.54
  12  -6  -1   21.92   10.20
  12  -6   0  451.83   46.63
 -12   6   0  667.03   52.46
  12  -6   1   95.09   18.92
 -12   6  -1  127.50   18.11
  12  -6   2    4.06    7.71
 -12   6  -2    6.75    7.03
  12  -6   3   -2.08    6.39
  12  -6   4   39.30   11.22
  12  -6   4  131.54   16.10
  12  -6   5   10.88    9.79
  12  -6   5   32.67    9.30
 -12   6  -5   16.28    9.03
  12  -6   6    9.62    7.59
  12  -6   6    9.97    8.66
 -12   6  -6    6.26    8.08
  12  -5  -6    1.26    6.65
 -12   5   6    2.26    7.15
  12  -5  -5   82.74   17.02
 -12   5   5   82.90   16.60
  12  -5  -4  341.15   35.01
 -12   5   4  476.94   41.89
  12  -5  -3  440.94   48.61
 -12   5   3  562.44   46.98
  12  -5  -2   12.20    8.36
 -12   5   2   19.85    9.76
  12  -5  -1    5.50    5.29
  12  -5   0   29.18   10.43
  12  -5   1  239.80   26.21
 -12   5  -1  322.20   30.58
  12  -5   2  172.85   23.93
 -12   5  -2  184.93   19.18
  12  -5   3    5.59    6.16
  12  -5   3    0.53    6.86
  12  -5   4   -1.38    5.41
  12  -5   4   16.85    7.48
 -12   5  -4   10.98    6.69
  12  -5   5   -6.12    6.83
  12  -5   5    7.18    5.19
 -12   5  -5   10.61    6.58
  12  -5   6   41.00   10.18
  12  -5   6   28.22    9.64
 -12   5  -6   11.64    7.54
  12  -5   7  186.85   18.18
  12  -5   7  104.93   20.12
 -12   5  -7   65.39   17.10
  12  -4  -7   18.50    7.92
 -12   4   7   18.40    8.40
  12  -4  -6  235.16   31.08
 -12   4   6  220.04   26.49
  12  -4  -5   76.49   15.86
 -12   4   5   93.86   17.20
  12  -4  -4   19.72   10.17
 -12   4   4   25.48   10.63
  12  -4  -3   97.34   17.67
 -12   4   3  101.48   17.18
  12  -4  -2  169.31   23.23
 -12   4   2  195.73   22.64
  12  -4  -1   98.07   17.32
 -12   4   1  129.34   17.95
  12  -4   0  217.10   27.66
  12  -4   1   52.87   10.50
  12  -4   2  765.68   70.99
  12  -4   2  978.38   68.50
  12  -4   3   35.13   14.41
  12  -4   3  171.63   17.35
 -12   4  -3   78.67   13.12
  12  -4   4    1.76    8.26
  12  -4   4   28.67    7.09
 -12   4  -4   23.50    8.28
  12  -4   5    5.83    6.63
  12  -4   5   28.51    8.92
 -12   4  -5   20.35    8.98
  12  -4   6   17.93    9.19
  12  -4   6   45.02    8.24
 -12   4  -6   20.85   10.26
  12  -4   7   28.49   12.67
  12  -4   7   80.07   12.55
 -12   4  -7   32.54   12.56
  12  -4   8   40.72   10.34
  12  -4   8   18.11   11.44
 -12   4  -8   20.11   12.12
 -12   3   7   -0.24    5.07
 -12   3   6   82.06   16.04
 -12   3   5  477.06   44.33
 -12   3   4   14.94    7.00
 -12   3   3   -2.22    4.71
 -12   3   2  234.39   22.35
 -12   3   1  275.76   29.08
  12  -3   1   14.78    6.58
  12  -3   2  234.06   24.31
  12  -3   3  966.53   68.85
 -12   3  -3  577.84   48.69
  12  -3   4  324.19   29.32
 -12   3  -4  237.06   27.23
  12  -3   5  758.24   51.03
 -12   3  -5  490.26   46.72
  12  -3   6   66.25    9.94
 -12   3  -6   40.38   13.79
  12  -3   7   75.83   12.41
 -12   3  -7   26.59   13.29
  12  -3   8  177.51   19.76
 -12   3  -8  128.90   19.70
  12  -3   9  516.30   43.67
 -12   3  -9  396.30   42.76
  12  -2  -8  122.84   21.34
 -12   2   8  134.06   18.61
  12  -2  -7   10.00    7.66
 -12   2   7    5.75    7.66
  12  -2  -6  141.58   22.18
 -12   2   6  185.41   20.98
  12  -2  -5 1310.91   98.82
 -12   2   5 1220.06   85.45
  12  -2  -4  418.23   37.30
 -12   2   4  414.43   36.75
  12  -2  -3   29.28    7.95
 -12   2   3   31.74   10.53
  12  -2  -2  267.23   30.45
 -12   2   2  274.80   27.79
  12  -2  -1   39.55    8.95
  12  -2  -1   35.93    8.47
  12  -2   0  699.12   58.25
  12  -2   0  708.85   55.18
  12  -2   1  286.68   31.90
  12  -2   1  278.65   28.38
  12  -2   2 1137.03   79.69
  12  -2   2 1121.50   77.27
 -12   2  -2  667.84   53.22
  12  -2   3   97.41   11.10
 -12   2  -3   58.05   12.41
  12  -2   4   36.31   10.70
 -12   2  -4   37.85   10.52
  12  -2   5   89.56   14.44
 -12   2  -5   59.17   11.22
  12  -2   6 1020.26   72.32
 -12   2  -6  698.77   56.39
  12  -2   7   62.28   11.63
 -12   2  -7   42.99   13.98
  12  -2   8    1.31    4.51
 -12   2  -8    4.75    7.20
  12  -2   9  164.03   19.03
 -12   2  -9  122.55   24.74
  12  -2  10  394.25   35.08
 -12   2 -10  277.61   39.67
  12  -1  -8  127.65   22.52
 -12   1   8  155.28   19.31
  12  -1  -7  183.82   24.89
 -12   1   7  175.86   22.46
  12  -1  -6   65.44   14.09
 -12   1   6   60.76   13.20
  12  -1  -5   39.38   11.09
 -12   1   5   34.02    8.97
  12  -1  -4  490.50   45.08
  12  -1  -3    8.96    5.71
  12  -1  -3    4.04    6.51
  12  -1  -2  231.25   28.30
  12  -1  -1 2013.48  147.15
  12  -1   0    1.27    3.67
  12  -1   0    2.19    5.56
  12  -1   1  356.82   28.49
  12  -1   1  345.50   32.44
  12  -1   2  138.08   15.83
  12  -1   2  153.72   17.00
 -12   1  -2  107.68   13.55
  12  -1   3  836.12   62.55
  12  -1   3  845.29   57.32
 -12   1  -3  620.28   49.76
  12  -1   4 1406.68  103.93
  12  -1   4 1386.51   97.05
 -12   1  -4 1029.89   82.34
  12  -1   5  192.67   24.83
  12  -1   5  214.60   20.45
 -12   1  -5  166.66   22.90
  12  -1   6   24.62    9.99
  12  -1   6   31.88    7.91
 -12   1  -6   23.90   10.18
  12  -1   7   67.78   15.53
  12  -1   7  210.73   20.21
 -12   1  -7  137.12   21.58
  12  -1   8   29.86   13.15
  12  -1   8  107.60   13.85
  12  -1   9  371.95   29.32
 -12   1  -9  261.71   35.60
  12  -1  10   81.10   14.04
  12  -1  10   78.37   16.04
 -12   1 -10   75.30   18.67
  12  -1  11    7.34    9.02
 -12   1 -11   15.78    8.21
  12   0  -8  179.20   23.99
  12   0  -8  183.20   21.70
  12   0  -7    4.65    7.62
  12   0  -7   12.72    7.07
  12   0  -6  699.06   56.02
  12   0  -6  678.18   52.90
  12   0  -5   52.63   11.81
  12   0  -5   44.44   11.61
  12   0  -4 1948.57  133.89
  12   0  -4 1924.21  142.97
  12   0  -3  886.96   62.96
  12   0  -3  901.48   71.53
  12   0  -2  478.72   40.29
  12   0  -2  474.37   36.15
  12   0  -1   14.95    6.21
  12   0   0  792.02   56.59
  12   0   0  780.91   53.92
  12   0   1   47.32    9.60
  12   0   1   61.93   12.50
 -12   0  -1   47.85    7.09
  12   0   2  679.02   49.90
  12   0   2  652.09   48.70
 -12   0  -2  447.92   36.47
  12   0   3  113.29   15.59
  12   0   3  101.74   12.41
 -12   0  -3   95.45   14.09
  12   0   4   75.82   13.08
  12   0   4   79.06   13.44
 -12   0  -4   65.27   12.95
  12   0   5 1405.01   94.79
  12   0   5 1546.74  102.03
 -12   0  -5 1133.17   90.44
  12   0   6  237.68   27.65
  12   0   6  246.04   26.97
 -12   0  -6  202.79   27.47
  12   0   7  213.38   26.61
  12   0   7  221.26   24.23
 -12   0  -7  197.51   26.19
  12   0   8    8.37    8.84
  12   0   8   41.27    8.55
 -12   0  -8   23.01   12.14
  12   0   9  831.71   75.07
  12   0   9  963.09   69.56
 -12   0  -9  655.98   63.06
  12   0  10  104.92   12.38
  12   0  10  103.96   16.63
 -12   0 -10   41.55   19.20
  12   0  11  217.80   23.09
  12   0  11  187.97   23.02
 -12   0 -11   81.99   31.80
  12   1  -8  198.70   24.04
  12   1  -8  179.96   20.06
  12   1  -7  154.06   18.79
  12   1  -7  178.97   20.03
  12   1  -6  253.04   26.26
  12   1  -6  268.04   29.48
  12   1  -5  588.56   46.38
  12   1  -5  608.26   49.60
  12   1  -4  112.82   16.66
  12   1  -4  133.83   17.73
  12   1  -3   91.63   14.40
  12   1  -3   89.16   15.16
  12   1  -2 1073.53   76.67
  12   1  -2 1021.61   76.84
  12   1  -1 1114.97   72.79
  12   1   0   18.39    5.34
  12   1   1    4.23    5.94
  12   1   1    6.12    6.97
 -12  -1  -1    8.96    4.20
  12   1   2   -1.59    4.75
  12   1   2   -0.60    6.55
 -12  -1  -2    9.73    4.63
  12   1   3   79.92   13.34
  12   1   3  103.47   15.06
 -12  -1  -3   67.32   11.73
  12   1   4  149.37   18.05
  12   1   4  146.33   20.42
 -12  -1  -4  121.95   17.41
  12   1   5   82.59   12.73
  12   1   5   96.42   13.38
 -12  -1  -5   44.19   13.17
  12   1   6  231.17   26.27
  12   1   6  259.29   23.15
 -12  -1  -6  210.79   28.07
  12   1   7   24.05    8.66
  12   1   7   32.05   10.55
 -12  -1  -7   18.41    7.83
  12   1   8   44.39   11.26
  12   1   8   47.79   11.07
 -12  -1  -8   24.79    9.69
  12   1   9  263.43   33.26
  12   1   9  314.52   26.48
 -12  -1  -9  261.52   36.08
  12   1  10   81.35   14.33
  12   1  10   73.84   14.91
 -12  -1 -10   66.68   17.70
  12   1  11  134.58   13.25
  12   1  11  100.88   17.50
 -12  -1 -11   95.01   19.59
  12   2  -8  426.96   40.81
  12   2  -8  413.67   35.73
  12   2  -7  521.51   45.17
  12   2  -7  557.23   43.55
  12   2  -6  380.94   33.92
  12   2  -6  342.46   30.64
  12   2  -5  205.10   19.92
  12   2  -5  153.86   17.32
  12   2  -4  900.01   66.94
  12   2  -4  945.62   66.07
  12   2  -3   16.90    7.64
  12   2  -3   13.58    6.69
  12   2  -2  754.98   54.86
  12   2  -2  692.19   54.90
  12   2  -1   76.05   13.01
  12   2  -1   75.91   13.70
  12   2   0  135.16   13.58
 -12  -2   0   62.97    9.12
  12   2   1   10.39    6.01
 -12  -2  -1    8.83    5.37
  12   2   2  126.67   14.82
  12   2   2   99.84   16.13
  12   2   3    8.19    6.78
  12   2   3   13.77    6.03
 -12  -2  -3   14.53    6.63
  12   2   4  109.28   14.10
  12   2   4  128.72   13.29
 -12  -2  -4   91.11   16.36
  12   2   5  274.79   26.83
  12   2   5  338.33   31.92
 -12  -2  -5  296.99   28.91
  12   2   6   89.54   13.99
  12   2   6   99.88   12.32
 -12  -2  -6  100.81   15.72
  12   2   7   36.63   10.06
  12   2   7   53.67   11.32
 -12  -2  -7   32.91    9.30
  12   2   8   11.15    6.97
  12   2   8    2.86    8.11
 -12  -2  -8   15.67    6.81
  12   2   9    4.98    4.75
  12   2   9    6.70    7.04
 -12  -2  -9    2.82    8.05
  12   2  10  274.87   27.84
  12   2  10  239.04   27.74
 -12  -2 -10  197.20   33.65
  12   2  11   90.84   18.19
  12   2  11  144.39   17.80
 -12  -2 -11  108.88   23.90
  12   3  -8  531.04   45.91
  12   3  -8  516.12   39.46
  12   3  -7  643.32   50.71
  12   3  -7  631.91   47.72
  12   3  -6  384.29   33.84
  12   3  -6  382.76   33.42
  12   3  -5   -0.35    5.11
  12   3  -5   -2.56    4.62
  12   3  -4  359.37   32.66
  12   3  -4  367.73   32.66
  12   3  -3  161.21   14.20
  12   3  -3  222.91   19.58
  12   3  -3  223.85   20.99
  12   3  -2  121.79   15.32
  12   3  -2  129.01   13.97
  12   3  -1  279.27   25.04
  12   3  -1  290.61   24.98
  12   3   0    2.85    4.48
  12   3   0   12.30    6.85
 -12  -3   0    2.03    4.31
  12   3   1   94.79   11.65
 -12  -3  -1   54.85   10.92
  12   3   2   17.82    6.05
  12   3   2   17.63    8.33
 -12  -3  -2    6.24    6.67
  12   3   3   18.45    6.48
  12   3   3   15.36    8.47
 -12  -3  -3   15.40    7.76
  12   3   4   41.23    8.76
  12   3   4   49.59   10.93
 -12  -3  -4   19.63   10.23
  12   3   5  131.02   16.01
  12   3   5  168.79   16.86
 -12  -3  -5  125.55   18.82
  12   3   6 1024.59   73.64
  12   3   6 1236.22   92.30
 -12  -3  -6 1053.55   87.30
  12   3   7   18.37    8.00
  12   3   7   23.15    7.42
 -12  -3  -7   17.61    7.88
  12   3   8  486.68   41.89
  12   3   8  601.50   50.05
 -12  -3  -8  513.11   47.03
  12   3   9   11.14    7.39
  12   3   9   18.00    8.64
 -12  -3  -9   17.99    7.97
  12   3  10   78.98   14.81
  12   3  10   56.84   13.10
 -12  -3 -10   91.05   16.35
  12   3  11   59.01   16.06
  12   3  11  133.37   13.72
 -12  -3 -11  100.83   16.64
  12   4  -8   65.59   13.29
  12   4  -8  119.01   12.84
  12   4  -7   35.72    8.60
  12   4  -7   39.93    9.28
  12   4  -6  138.49   18.19
  12   4  -6  150.69   17.65
  12   4  -5  154.28   16.75
  12   4  -5  102.26   15.68
  12   4  -4   44.77    9.96
  12   4  -4   34.41    8.08
  12   4  -3  210.55   17.22
  12   4  -3  297.80   27.59
  12   4  -3  319.31   25.63
  12   4  -2  285.15   24.19
  12   4  -2  223.89   17.52
  12   4  -2  303.00   29.03
  12   4  -1  665.71   45.36
  12   4  -1  683.09   53.74
  12   4   0  216.17   19.56
  12   4   0  227.03   25.58
 -12  -4   0  190.86   20.27
  12   4   1   58.08    9.00
  12   4   1   78.86   10.76
 -12  -4  -1   39.19    9.82
  12   4   2  589.68   40.74
 -12  -4  -2  511.11   42.26
  12   4   3   36.08    7.57
  12   4   3   42.26   10.99
 -12  -4  -3   26.99    9.22
  12   4   4  247.80   20.19
  12   4   4  296.29   30.23
 -12  -4  -4  228.59   27.82
  12   4   5    8.92    5.56
  12   4   5    5.51    7.59
 -12  -4  -5   15.08    7.64
  12   4   6  146.87   17.97
  12   4   6  203.23   19.74
 -12  -4  -6  142.73   23.03
  12   4   7    9.45    6.31
  12   4   7   14.27    8.88
 -12  -4  -7   20.27    8.84
  12   4   8   25.09    8.04
  12   4   8   38.32    7.66
 -12  -4  -8   12.25    9.17
  12   4   9   -0.94    7.75
  12   4   9    8.67    5.56
 -12  -4  -9   10.34    7.03
  12   4  10   55.87   11.96
  12   4  10   72.72   14.87
 -12  -4 -10   69.35   15.71
  12   4  11   75.85   15.75
  12   4  11  128.12   17.63
 -12  -4 -11  103.82   20.08
  12   5  -7   73.46   12.98
  12   5  -7   93.31   12.67
  12   5  -6   31.12    7.37
  12   5  -6   21.19    7.38
  12   5  -5    9.76    6.88
  12   5  -5   10.55    5.54
  12   5  -4  101.92   10.25
  12   5  -4  155.95   17.63
  12   5  -4  160.91   16.34
  12   5  -3   11.70    5.17
  12   5  -3    6.77    4.53
  12   5  -3   14.32    7.35
  12   5  -2  175.26   17.50
  12   5  -2  143.43   15.17
  12   5  -2  173.66   21.02
  12   5  -1  286.01   21.79
  12   5  -1  346.01   27.06
  12   5   0  265.69   21.07
  12   5   0  346.47   30.87
 -12  -5   0  241.73   23.54
  12   5   1  114.40   11.62
  12   5   1  140.16   18.51
 -12  -5  -1   93.64   14.56
  12   5   2  232.68   19.37
 -12  -5  -2  211.25   23.16
  12   5   3  437.18   30.89
 -12  -5  -3  399.52   36.19
  12   5   4  444.91   34.10
  12   5   4  596.63   49.45
 -12  -5  -4  444.69   41.68
  12   5   5  530.53   40.32
  12   5   5  751.03   58.57
 -12  -5  -5  619.49   49.97
  12   5   6  742.20   53.50
  12   5   6  936.83   73.25
 -12  -5  -6  828.09   67.62
  12   5   7  213.76   22.14
  12   5   7  282.23   26.31
 -12  -5  -7  233.89   30.56
  12   5   8   86.88   13.26
  12   5   8  155.48   16.62
 -12  -5  -8   74.35   15.49
  12   5   9  393.34   34.81
  12   5   9  276.86   26.67
 -12  -5  -9  304.63   32.94
  12   5  10  123.59   16.33
  12   5  10  198.65   22.53
 -12  -5 -10  158.95   20.76
  12   5  11   11.67    8.63
  12   5  11    9.14    6.92
 -12  -5 -11   13.90    9.99
  12   6  -7  190.72   19.54
  12   6  -7  191.52   19.22
  12   6  -6    4.17    4.42
  12   6  -6   16.61    6.33
  12   6  -5   16.81    6.99
  12   6  -5   17.97    5.72
  12   6  -4  104.31   10.81
  12   6  -4  168.04   17.27
  12   6  -4  129.00   12.82
  12   6  -3  721.26   46.76
  12   6  -3  568.40   39.96
  12   6  -3  760.82   56.71
  12   6  -2   39.52    6.53
  12   6  -2   15.92    5.46
  12   6  -2   47.84    9.28
  12   6  -1  106.42   10.78
  12   6  -1   86.23   12.26
  12   6  -1  123.91   16.26
  12   6   0   20.16    4.42
  12   6   0   17.87    8.52
 -12  -6   0   10.72    7.43
  12   6   1  310.68   23.65
  12   6   1  421.37   32.76
 -12  -6  -1  337.78   31.39
  12   6   2   -0.30    2.30
  12   6   2    3.64    5.29
 -12  -6  -2    0.42    4.24
  12   6   3   91.70    9.02
 -12  -6  -3   97.26   16.85
  12   6   4    2.17    3.05
 -12  -6  -4   -2.27    5.58
  12   6   5   54.06    7.64
  12   6   5   82.80   13.18
 -12  -6  -5   61.80   13.42
  12   6   6  279.29   22.17
  12   6   6  409.61   38.20
 -12  -6  -6  310.09   35.22
  12   6   7  641.99   48.89
  12   6   7  933.45   71.50
 -12  -6  -7  723.64   66.17
  12   6   8   -5.45    7.00
  12   6   8    6.86    4.38
 -12  -6  -8    3.02    5.43
  12   6   9    8.02    5.82
  12   6   9   15.09    6.84
 -12  -6  -9   12.46    7.43
  12   6  10   26.51   11.70
  12   6  10   30.30    8.21
 -12  -6 -10   39.87    9.88
  12   6  11  117.92   17.67
  12   6  11   60.20   12.59
 -12  -6 -11   96.81   20.75
  12   7  -6  113.57   13.79
  12   7  -5    4.44    4.61
  12   7  -4   31.90    6.94
  12   7  -4   77.22   10.61
  12   7  -3   62.39    9.51
  12   7  -3   85.63   12.60
  12   7  -2  717.92   53.68
  12   7  -2  995.01   71.11
  12   7  -1  381.58   24.54
  12   7  -1  357.51   32.12
  12   7  -1  473.70   39.67
  12   7   0  370.94   24.50
  12   7   0  415.37   35.74
  12   7   0  502.86   40.71
  12   7   1  154.25   12.77
  12   7   1  240.11   24.17
 -12  -7  -1  194.52   22.91
  12   7   2    3.63    2.25
  12   7   2   -4.81    5.85
 -12  -7  -2   -0.78    4.52
  12   7   3  133.86   12.66
  12   7   3  196.05   19.17
 -12  -7  -3  137.46   22.37
  12   7   4   56.44    6.43
 -12  -7  -4   72.17   11.06
  12   7   5  176.69   14.82
  12   7   5  287.28   28.99
 -12  -7  -5  229.12   29.32
  12   7   6   41.44    7.78
  12   7   6   66.57   10.25
 -12  -7  -6   67.74   14.41
  12   7   7   13.93    6.05
  12   7   7    9.01    4.16
 -12  -7  -7    0.84    8.44
  12   7   8  703.75   54.19
  12   7   8  406.96   29.99
 -12  -7  -8  581.74   56.43
  12   7   9  142.87   19.14
  12   7   9   78.04   10.97
 -12  -7  -9   97.32   15.71
  12   7  10  141.04   20.63
  12   7  10   92.71   13.46
 -12  -7 -10  142.92   18.25
  12   8  -5   66.68   11.85
  12   8  -4  166.02   17.68
  12   8  -4  196.49   20.21
  12   8  -3   25.31    8.35
  12   8  -3   41.07    9.22
  12   8  -2   10.92    5.71
  12   8  -2    5.18    6.60
  12   8  -1   47.29   10.34
  12   8  -1   44.90   11.28
  12   8   0  167.98   20.12
  12   8   0  204.17   20.76
  12   8   1  643.98   56.51
  12   8   1  710.95   56.93
  12   8   2   29.53    8.15
 -12  -8  -2   18.05    6.98
  12   8   3  142.99   19.55
 -12  -8  -3   97.86   18.95
  12   8   4   22.33   10.25
 -12  -8  -4   28.70   10.34
 -12  -8  -5  334.53   39.55
  12   8   6  329.43   35.42
 -12  -8  -6  263.95   35.61
  12   8   7  210.46   27.49
 -12  -8  -7  182.37   28.42
  12   8   8  215.25   25.39
 -12  -8  -8  196.09   29.77
  12   8   9   -7.78    7.77
 -12  -8  -9   10.89    6.24
  12   8  10   11.54    9.25
 -12  -8 -10    6.21    7.31
  12   9  -4  217.54   23.92
  12   9  -4  250.37   22.98
  12   9  -3    8.74    5.54
  12   9  -3    0.28    5.86
  12   9  -2  401.77   37.33
  12   9  -2  421.85   36.85
  12   9  -1  222.97   26.81
  12   9  -1  254.76   26.84
  12   9   0   46.43   12.06
  12   9   0   52.42   12.08
  12   9   1   24.91    7.23
  12   9   1   24.01   10.24
  12   9   2  148.40   22.21
  12   9   2  265.76   27.22
  12   9   3    4.86    7.51
  12   9   4   90.88   17.04
 -12  -9  -4   71.09   16.25
  12   9   5   10.61    6.00
 -12  -9  -5   -4.93    7.69
 -12  -9  -6  182.77   26.39
  12   9   7   28.29   10.36
 -12  -9  -7   14.85    8.90
  12   9   8  341.51   34.75
 -12  -9  -8  315.40   43.90
  12   9   9    7.83    7.14
 -12  -9  -9   -1.21    5.77
  12  10  -2    5.49    7.02
  12  10  -2   18.21    7.94
  12  10  -1   93.73   15.25
  12  10  -1   74.77   14.88
  12  10   0   23.84    8.01
  12  10   1   14.56    8.90
  12  10   1   13.73    8.81
  12  10   2   19.73    6.69
  12  10   2    6.12    9.11
  12  10   3   18.87   12.40
  12  10   3   56.85   13.01
  12  10   4   28.82   13.72
  12  10   4   49.02   10.85
  12  10   5  119.17   16.60
 -12 -10  -5  104.53   20.26
 -12 -10  -6    1.57    7.65
 -12 -10  -7    6.53    7.30
  12  11   1   21.90    9.91
  12  11   2  204.38   23.59
  12  11   2  116.86   17.90
  12  11   3   12.67    8.63
  12  11   3    7.06    8.72
  12  11   4   -6.37    6.29
  12  11   4   -2.73    8.69
  13  -5  -2  669.33   66.19
 -13   5   2  732.12   62.57
  13  -5  -1   63.30   15.18
  13  -5   0   27.79   10.90
  13  -5   1  167.52   23.32
  13  -5   1  141.66   14.26
  13  -5   2    3.46    5.55
  13  -5   2    3.59    5.78
  13  -5   3    0.12   11.58
  13  -5   3   68.06   10.57
  13  -5   4   -1.13    8.08
  13  -5   4   72.82   12.06
 -13   4   4   62.88   12.42
 -13   4   3   24.35    8.99
 -13   4   2    2.69    5.47
  13  -4  -1    9.95    6.15
 -13   4   1    8.94    8.39
  13  -4   0    7.27    7.45
  13  -4   0    5.66    4.21
  13  -4   1  190.55   26.93
  13  -4   1  202.29   26.13
  13  -4   2   98.01   15.88
  13  -4   2  396.86   30.84
  13  -4   3   39.19   16.21
  13  -4   3  186.67   20.19
  13  -4   4   -0.32   10.32
  13  -4   4   56.44   11.47
  13  -4   5    8.29    8.04
  13  -4   5    8.43    6.59
 -13   4  -5    2.87    7.27
  13  -4   6    1.74    6.43
  13  -4   6   -1.77    6.22
 -13   4  -6   -2.38    5.70
 -13   3   5   92.11   17.93
 -13   3   4  281.83   31.51
 -13   3   3   11.70    7.03
  13  -3  -1   46.11    9.75
  13  -3   0  540.89   44.10
  13  -3   1   65.34   14.56
  13  -3   2  308.97   34.81
  13  -3   3  122.42   15.17
  13  -3   4  536.34   45.02
 -13   3  -4  324.22   35.80
  13  -3   5   53.49   10.03
 -13   3  -5   25.23   11.47
  13  -3   6  215.13   23.59
 -13   3  -6   86.50   19.42
  13  -3   7   32.23   10.31
 -13   3  -7   -0.31    9.82
  13  -2  -6   23.72    8.54
 -13   2   6   21.30   11.00
  13  -2  -5  329.40   39.98
 -13   2   5  343.06   31.26
  13  -2  -4  524.55   46.62
  13  -2  -3  340.88   34.01
  13  -2  -2  249.16   28.75
  13  -2  -1   33.26   10.57
  13  -2   0  306.49   34.48
  13  -2   1  412.13   42.14
  13  -2   2  263.08   25.49
  13  -2   3   20.72    9.95
  13  -2   4   16.73    8.58
 -13   2  -4    8.63    8.11
  13  -2   5    9.73    8.30
  13  -2   5   12.69    6.92
 -13   2  -5    6.82    8.59
  13  -2   6   22.16    9.65
  13  -2   6   80.98   12.44
 -13   2  -6   32.07   12.67
  13  -2   7    8.33    9.74
  13  -2   7   31.66   10.05
 -13   2  -7   11.01   10.66
  13  -2   8   -3.80    6.85
  13  -2   8    3.17    4.88
 -13   2  -8    3.84    5.60
  13  -1  -6  227.99   26.81
  13  -1  -6  170.36   28.98
  13  -1  -5   50.64   13.50
  13  -1  -5   38.45   11.62
  13  -1  -4  431.98   42.93
  13  -1  -4  408.73   43.12
  13  -1  -3  160.16   22.16
  13  -1  -3  165.10   22.33
  13  -1  -2 1062.96   86.19
  13  -1  -1  527.32   48.06
  13  -1   0  129.38   20.23
  13  -1   0  130.54   14.77
  13  -1   1  344.20   31.11
  13  -1   1  415.32   37.58
  13  -1   2  484.00   47.86
  13  -1   2  567.31   48.79
  13  -1   3 1092.37   86.60
  13  -1   3 1358.15   96.47
 -13   1  -3  847.27   65.57
  13  -1   4  742.74   64.70
  13  -1   4  952.30   67.36
 -13   1  -4  627.95   57.66
  13  -1   5  422.97   41.31
  13  -1   5  528.70   45.27
 -13   1  -5  364.22   38.76
  13  -1   6   26.55   13.01
  13  -1   6  126.33   15.11
 -13   1  -6   42.90   14.67
  13  -1   7   19.39    9.12
  13  -1   7   71.29    9.77
 -13   1  -7   20.52   13.51
  13  -1   8   24.74   11.77
  13  -1   8   53.35   12.83
 -13   1  -8   25.87   10.49
  13  -1   9   11.00    8.17
  13  -1   9   -0.50    8.21
 -13   1  -9    6.53    9.17
  13   0  -6  645.21   55.89
  13   0  -6  625.06   59.06
  13   0  -5  791.75   59.66
  13   0  -5  814.26   67.52
  13   0  -4   11.85    7.66
  13   0  -4    1.96    7.18
  13   0  -3   28.40    9.21
  13   0  -3   29.17   10.85
  13   0  -2  165.95   19.74
  13   0  -2  221.52   23.69
  13   0  -1  130.03   20.58
  13   0   0   41.12   11.29
  13   0   0   56.18    9.77
  13   0   1  563.17   48.64
  13   0   1  552.72   47.82
  13   0   2  504.73   46.71
  13   0   2  524.33   46.13
  13   0   3   28.60    9.47
  13   0   3   37.67   12.02
 -13   0  -3   34.12    7.89
  13   0   4    1.37    5.61
  13   0   4    3.48    6.44
 -13   0  -4   -0.37    5.22
  13   0   5  806.05   71.97
  13   0   5 1083.81   81.05
 -13   0  -5  755.41   67.46
  13   0   6  445.91   41.29
 -13   0  -6  329.69   40.35
  13   0   7   20.78   11.87
  13   0   7  109.38   15.26
 -13   0  -7   65.68   15.21
  13   0   8    9.41   10.33
  13   0   8   33.49   10.55
 -13   0  -8   26.18   11.77
  13   0   9   93.44   16.37
  13   0   9   79.26   15.89
 -13   0  -9   27.59   19.18
  13   1  -6   77.72   14.21
  13   1  -6   79.84   15.23
  13   1  -5  185.86   24.36
  13   1  -5  227.89   27.51
  13   1  -4  194.74   20.39
  13   1  -4  212.68   27.06
  13   1  -3  412.84   39.15
  13   1  -3  436.78   40.26
  13   1  -2 1119.36   78.81
  13   1  -2 1134.76   85.17
  13   1  -1 1024.39   79.12
  13   1  -1 1121.44   79.95
  13   1   0  262.99   27.93
  13   1   1    3.59    4.71
  13   1   1   -1.16    4.00
  13   1   2   43.79   10.16
  13   1   2   50.82   11.45
 -13  -1  -2   31.37    9.35
  13   1   3  358.22   34.49
  13   1   3  388.33   38.03
 -13  -1  -3  290.39   29.97
  13   1   4   41.34    9.36
  13   1   4   34.14   11.53
 -13  -1  -4   19.19   10.42
  13   1   5   11.24    8.85
  13   1   5   25.70    7.96
 -13  -1  -5   26.30    9.36
  13   1   6  741.02   66.23
  13   1   6  984.18   76.54
 -13  -1  -6  695.91   56.92
  13   1   7   10.76    7.23
  13   1   7    4.72    7.99
 -13  -1  -7   11.96    8.02
  13   1   8   -1.12    4.40
  13   1   8    1.90    4.83
 -13  -1  -8   -1.00    5.82
  13   1   9   13.82   12.70
  13   1   9   67.53   13.29
 -13  -1  -9   48.87   11.63
  13   2  -6   17.53    8.31
  13   2  -6   13.38    8.57
  13   2  -5   39.30   11.35
  13   2  -5   35.78   10.46
  13   2  -4   35.63   10.78
  13   2  -4   35.93    9.94
  13   2  -3  337.16   32.94
  13   2  -3  328.02   32.58
  13   2  -2  184.17   22.66
  13   2  -2  195.50   23.48
  13   2  -1  107.70   13.47
  13   2  -1  125.30   17.84
  13   2   0  477.30   40.06
  13   2   1   54.38   11.32
  13   2   2  193.06   21.71
  13   2   2  211.87   20.63
 -13  -2  -2  158.96   19.71
  13   2   3  290.90   26.41
  13   2   3  348.89   30.03
 -13  -2  -3  225.91   27.27
  13   2   4   80.21   13.15
  13   2   4   81.28   12.20
 -13  -2  -4   49.86   13.29
  13   2   5  176.67   20.71
  13   2   5  237.51   24.93
 -13  -2  -5  136.11   22.29
  13   2   6   34.50    9.25
  13   2   6   39.43   11.10
 -13  -2  -6    1.20   11.25
  13   2   7  110.62   18.38
  13   2   7  124.41   18.48
 -13  -2  -7  123.91   20.69
  13   2   8   41.42   11.71
  13   2   8   51.84   13.48
 -13  -2  -8   47.44   13.97
  13   2   9   39.20   13.58
  13   2   9   61.35   13.71
 -13  -2  -9   69.76   16.83
  13   2  10   16.75    8.82
  13   2  10   11.41    7.69
 -13  -2 -10   -3.07    7.84
  13   3  -6  285.18   28.85
  13   3  -6  278.08   30.35
  13   3  -5  105.08   16.54
  13   3  -5  104.18   15.96
  13   3  -4    1.88    6.91
  13   3  -4    5.37    5.46
  13   3  -3  675.30   52.93
  13   3  -3  698.54   57.94
  13   3  -2   33.31    9.12
  13   3  -2   35.79   11.46
  13   3  -1   56.30   10.55
  13   3  -1   56.85   13.04
  13   3   0    3.64    4.93
  13   3   0    4.02    7.19
  13   3   1  312.02   29.88
  13   3   2   31.86    7.74
 -13  -3  -2   18.56    8.19
  13   3   3    7.84    6.34
  13   3   3   18.36    8.49
 -13  -3  -3   10.52    7.16
  13   3   4   36.51    8.30
  13   3   4   52.50   11.70
 -13  -3  -4    7.65   10.52
  13   3   5  106.78   18.11
  13   3   5  220.92   21.93
 -13  -3  -5  126.37   20.10
  13   3   6  558.66   47.65
  13   3   6  749.61   60.99
 -13  -3  -6  561.16   55.51
  13   3   7  115.92   16.83
  13   3   7  116.46   18.92
 -13  -3  -7  112.09   20.22
  13   3   8   23.04    9.52
  13   3   8   37.62   10.95
 -13  -3  -8   24.35    9.46
  13   3   9    5.54    8.13
  13   3   9   17.19    9.86
 -13  -3  -9   25.92    8.69
  13   3  10  124.58   16.58
  13   3  10   26.26   11.08
 -13  -3 -10   91.94   18.25
  13   4  -6   25.90    8.67
  13   4  -6    8.06    7.48
  13   4  -5  256.82   26.62
  13   4  -5  229.56   25.57
  13   4  -4   63.38   11.97
  13   4  -4   35.11    9.63
  13   4  -3   13.08    6.40
  13   4  -3   10.39    8.45
  13   4  -2  377.77   28.82
  13   4  -2  214.73   19.46
  13   4  -2  389.24   35.43
  13   4  -1  110.70   16.51
  13   4  -1  163.06   19.45
  13   4   0   17.80    6.50
  13   4   0   24.27    9.91
  13   4   1  387.26   31.40
  13   4   1  492.29   40.54
 -13  -4  -1  248.32   27.15
  13   4   2  469.05   35.47
 -13  -4  -2  377.51   35.86
  13   4   3   53.52   10.73
  13   4   3   89.47   12.50
 -13  -4  -3   63.74   12.85
  13   4   4    1.12    3.86
  13   4   4    1.60    5.65
 -13  -4  -4   -0.90    5.20
  13   4   5   69.44   13.81
  13   4   5  144.45   18.17
 -13  -4  -5   70.77   16.23
  13   4   6   -1.40    5.24
  13   4   6    7.11    5.59
 -13  -4  -6    8.02    7.06
  13   4   7  110.99   15.11
  13   4   7  108.72   17.56
 -13  -4  -7  104.23   16.04
  13   4   8  137.71   18.74
  13   4   8  225.21   23.47
 -13  -4  -8  140.90   27.72
  13   4   9  436.18   39.56
  13   4   9  261.16   29.21
 -13  -4  -9  362.41   43.58
  13   4  10   -0.85    7.31
  13   4  10   20.89    7.36
 -13  -4 -10   12.11    8.16
  13   5  -5  257.67   26.19
  13   5  -5  230.03   24.21
  13   5  -4  117.00   14.62
  13   5  -4  120.47   17.01
  13   5  -3    2.95    4.22
  13   5  -3    2.42    6.08
  13   5  -2  139.45   16.49
  13   5  -2  109.39   11.76
  13   5  -2  211.60   22.22
  13   5  -1  220.50   21.44
  13   5  -1  232.50   19.05
  13   5  -1  268.19   29.15
  13   5   0   11.73    4.73
  13   5   0   19.22    8.94
  13   5   1  252.40   23.08
  13   5   1  352.22   33.14
 -13  -5  -1  244.86   27.29
  13   5   2  121.85   12.68
  13   5   2  203.80   20.61
 -13  -5  -2  105.61   17.54
  13   5   3   34.40    6.93
 -13  -5  -3   18.22    9.42
  13   5   4   31.86    7.71
  13   5   4   68.83   13.24
 -13  -5  -4   36.53    8.81
  13   5   5  436.33   36.97
  13   5   5  638.79   54.48
 -13  -5  -5  500.15   47.59
  13   5   6  675.00   51.92
  13   5   6  945.27   75.05
 -13  -5  -6  629.98   63.73
  13   5   7  673.63   53.20
  13   5   7  997.14   78.46
 -13  -5  -7  756.24   64.10
  13   5   8   61.76   11.03
  13   5   8   79.96   15.32
 -13  -5  -8   59.95   15.03
  13   5   9   -3.34    7.75
  13   5   9   -3.00    5.64
 -13  -5  -9   -6.98    8.48
  13   6  -5   38.19   10.09
  13   6  -5   35.78    8.07
  13   6  -4   64.58   10.35
  13   6  -4  123.49   15.46
  13   6  -3   11.59    5.10
  13   6  -3    2.12    4.73
  13   6  -3   15.01    5.59
  13   6  -2  262.89   23.50
  13   6  -2  266.34   23.43
  13   6  -2  418.59   34.98
  13   6  -1   32.87    6.94
  13   6  -1   37.47    8.47
  13   6  -1   83.63   10.53
  13   6   0  141.77   14.89
  13   6   0  187.43   19.81
  13   6   1  318.87   26.19
  13   6   1  471.78   37.22
 -13  -6  -1  310.25   32.41
  13   6   2  684.25   46.78
  13   6   2 1030.17   76.53
 -13  -6  -2  760.49   58.95
  13   6   3  143.95   14.37
 -13  -6  -3  114.13   19.50
  13   6   4   14.78    5.45
 -13  -6  -4   18.74    9.45
  13   6   5  159.43   17.07
  13   6   5  228.17   23.78
 -13  -6  -5  201.17   24.56
  13   6   6   26.18    7.37
  13   6   6   48.99   12.45
 -13  -6  -6   40.35   12.22
  13   6   7  350.19   31.38
  13   6   7  518.97   46.23
 -13  -6  -7  363.84   38.43
  13   6   8  988.91   74.91
  13   6   8  633.28   51.94
 -13  -6  -8  695.31   72.49
  13   6   9    4.72    5.31
  13   6   9    8.20    9.02
 -13  -6  -9   10.71    9.21
  13   7  -4   90.37   14.71
  13   7  -3   27.63    9.41
  13   7  -3  160.29   15.81
  13   7  -2  295.71   26.60
  13   7  -2  394.11   36.93
  13   7  -1  325.51   30.26
  13   7  -1  398.34   38.37
  13   7   0  638.77   56.81
  13   7   0  739.17   62.57
  13   7   1  905.53   78.23
  13   7   2   10.72    8.30
 -13  -7  -2    6.45    7.48
  13   7   3   31.01   11.09
 -13  -7  -3   20.45   10.90
 -13  -7  -4   16.94    7.72
 -13  -7  -5  321.25   38.01
  13   7   6  143.85   19.86
 -13  -7  -6   91.82   20.64
  13   7   7    8.84    8.35
 -13  -7  -7    3.19    8.67
  13   7   8  314.24   38.46
 -13  -7  -8  304.75   39.03
  13   8  -3   37.85    8.56
  13   8  -3   38.99   10.90
  13   8  -2    1.90    5.50
  13   8  -2    4.94    4.82
  13   8  -1   15.69    7.58
  13   8  -1   17.35    8.78
  13   8   0  271.01   32.03
  13   8   0  361.58   36.50
  13   8   1  121.39   20.69
  13   8   1  229.64   26.74
  13   8   2   55.11   13.95
  13   8   3   61.89   14.26
 -13  -8  -3   49.98   13.18
  13   8   4  127.81   17.42
 -13  -8  -4  148.83   17.98
 -13  -8  -5   49.19   15.16
  13   8   6  140.26   19.03
 -13  -8  -6  148.13   23.62
  13   8   7    3.82    6.88
 -13  -8  -7    0.82    7.57
  13   9  -1    4.37    7.23
  13   9  -1   13.76    8.02
  13   9   0    2.97    4.00
  13   9   0   -2.72    6.08
  13   9   1    4.99    6.80
  13   9   1    4.40    5.89
  13   9   2   13.71    8.65
  13   9   2   10.10   10.07
  13   9   3   31.76    9.54
  13   9   3   56.45   14.34
  13   9   4   13.60    7.08
 -13  -9  -4   -0.21    9.84
  13   9   5   22.93   11.77
 -13  -9  -5   25.41   12.88
 -13  -9  -6   92.26   19.30
  14  -3   0   31.90   12.31
  14  -3   0   32.06   13.31
  14  -3   1   25.15   12.14
  14  -3   1   40.65   12.41
  14  -3   2   18.08    8.81
  14  -3   2   39.79   11.78
  14  -2  -2  127.37   21.29
  14  -2  -1  257.99   32.64
  14  -2  -1  264.77   33.18
  14  -2   0   16.97   10.53
  14  -2   0   33.87    8.56
  14  -2   1   64.31   16.90
  14  -2   1   89.74   16.89
  14  -2   2  278.71   38.56
  14  -2   2  407.09   39.99
  14  -2   3  110.91   21.60
  14  -2   3  205.06   24.30
  14  -2   4   74.82   17.96
  14  -2   4  106.70   17.85
  14  -1  -3  253.59   33.88
  14  -1  -3  265.96   27.64
  14  -1  -2  215.80   26.95
  14  -1  -1  934.24   82.74
  14  -1   0  230.69   30.79
  14  -1   0  243.14   29.39
  14  -1   1   -1.31    4.70
  14  -1   1    5.64    5.10
  14  -1   2   24.73   11.06
  14  -1   2   38.11   11.74
  14  -1   3  668.66   58.39
  14  -1   3  912.33   74.82
  14  -1   4  197.78   25.54
  14  -1   4  225.31   28.81
  14  -1   5  261.81   33.28
  14  -1   5  357.03   29.81
 -14   1  -5  152.26   24.06
  14  -1   6  115.46   19.30
 -14   1  -6  143.23   20.48
  14   0  -3  142.36   18.44
  14   0  -3  135.13   17.49
  14   0  -2  141.74   18.52
  14   0  -2  142.37   23.19
  14   0  -1  122.19   17.39
  14   0   0    6.94    7.33
  14   0   1  318.97   36.64
  14   0   1  396.57   39.47
  14   0   2  204.41   26.81
  14   0   2  242.82   29.52
  14   0   3  169.97   22.66
  14   0   3  218.21   25.03
  14   0   4  122.22   20.41
  14   0   4  202.67   25.13
  14   0   5  517.55   50.24
  14   0   5  760.18   58.74
 -14   0  -5  323.99   36.10
  14   0   6    8.55   10.94
  14   0   6   35.11    9.17
 -14   0  -6   20.46   10.94
  14   1  -4   -1.69    3.95
  14   1  -4    3.86    5.50
  14   1  -3   19.03    9.10
  14   1  -3   19.29    8.58
  14   1  -2  676.02   54.13
  14   1  -2  796.69   60.47
  14   1  -1  126.30   21.53
  14   1  -1  483.91   32.15
  14   1   0   -0.75    5.24
  14   1   1    5.56    6.70
  14   1   1    8.30    8.32
  14   1   2   47.64   15.08
  14   1   2  141.10   19.00
  14   1   3  186.70   24.97
  14   1   3  248.96   24.78
  14   1   4   10.39    8.80
  14   1   4   22.26    8.17
 -14  -1  -4   18.37    8.82
  14   1   5   13.79    7.23
  14   1   5    8.75    7.92
 -14  -1  -5   -7.73    7.65
  14   1   6  147.92   17.40
  14   1   6  123.45   21.23
 -14  -1  -6  104.92   19.86
  14   1   7   19.87    9.68
  14   1   7   28.58    9.46
 -14  -1  -7   31.10   12.17
  14   2  -4   90.58   19.43
  14   2  -4  149.61   19.46
  14   2  -3   20.29    9.94
  14   2  -3   37.08   11.57
  14   2  -2    2.97    5.72
  14   2  -2    3.12    7.51
  14   2  -1   57.67   13.91
  14   2  -1  203.42   21.51
  14   2   0   -9.28    5.11
  14   2   0   11.21    7.36
  14   2   1   19.09    8.10
  14   2   2    5.33    6.21
  14   2   2    6.70    8.11
  14   2   3   79.10   14.45
  14   2   3  117.60   15.07
  14   2   4  180.31   22.21
  14   2   4  205.57   21.93
 -14  -2  -4  143.62   22.80
  14   2   5  323.47   35.61
  14   2   5  451.42   38.53
 -14  -2  -5  297.34   36.44
  14   2   6   18.96    8.42
  14   2   6    1.03   10.13
 -14  -2  -6   22.35   10.03
  14   2   7    8.39    5.41
  14   2   7   -2.42    6.19
 -14  -2  -7   -3.75    4.78
  14   3  -4  122.37   18.85
  14   3  -4  140.88   21.35
  14   3  -3  111.62   19.13
  14   3  -3  157.10   20.07
  14   3  -2   59.53   13.51
  14   3  -2  264.15   23.77
  14   3  -1    3.80    6.02
  14   3  -1    6.53    7.89
  14   3   0   74.10   14.48
  14   3   0  103.71   13.55
  14   3   1    1.46    4.92
  14   3   2  602.80   50.72
  14   3   3   31.74    7.95
  14   3   3   33.40   10.92
 -14  -3  -3    5.08    8.25
  14   3   4   24.33    9.20
  14   3   4   37.47    8.85
 -14  -3  -4   17.88    9.76
  14   3   5  556.06   51.70
  14   3   5  803.95   61.86
 -14  -3  -5  489.25   54.21
  14   3   6  705.27   64.12
  14   3   6  998.87   80.97
 -14  -3  -6  661.78   59.57
  14   3   7   34.99   10.48
  14   3   7   27.42   13.05
 -14  -3  -7   50.42   13.83
  14   4  -3    4.66    7.43
  14   4  -3   34.01    9.61
  14   4  -2  449.12   36.89
  14   4  -2  563.83   48.95
  14   4  -1  197.42   23.73
  14   4  -1  285.49   30.16
  14   4   0    4.33    5.41
  14   4   0    3.92    7.86
  14   4   1   16.44    6.82
  14   4   1   19.85   11.92
  14   4   2    8.33    6.12
  14   4   3    6.35    5.72
 -14  -4  -3    7.11    7.20
  14   4   4  154.37   20.14
  14   4   4  243.52   27.57
  14   4   5   15.74    7.62
  14   4   5   36.87   11.43
 -14  -4  -5   20.28   10.49
  14   4   6  207.56   26.12
  14   4   6  327.98   34.59
 -14  -4  -6  244.35   32.33
  14   4   7   14.01    8.87
  14   4   7   62.02   12.60
 -14  -4  -7   41.68   13.92
  14   5  -3   34.39    8.34
  14   5  -3   70.97   14.06
  14   5  -2   72.58   12.97
  14   5  -2  124.54   18.10
  14   5  -1   98.59   14.95
  14   5  -1   68.97   10.78
  14   5  -1  198.57   20.85
  14   5   0   67.60   12.70
  14   5   0  147.36   19.84
  14   5   1   36.18    9.68
  14   5   1   75.80   14.20
  14   5   2   63.26   11.34
  14   5   2  116.76   17.33
 -14  -5  -2   68.02   13.75
  14   5   3   28.87    8.11
 -14  -5  -3   33.45   10.94
  14   5   4   31.19    8.38
  14   5   4   61.93   12.92
 -14  -5  -4   12.60   11.39
  14   5   5   27.40    8.47
  14   5   5   46.30   12.54
 -14  -5  -5   19.92   11.84
  14   5   6   13.35    6.70
  14   5   6   48.34   11.40
 -14  -5  -6   29.88   12.03
  14   5   7  326.69   30.93
  14   5   7  526.13   50.30
 -14  -5  -7  352.22   42.82
  14   6  -2  230.18   24.32
  14   6  -1   83.87   12.38
  14   6  -1  139.33   19.62
  14   6   0   14.09    5.78
  14   6   0   22.34   10.38
  14   6   1   92.19   12.95
  14   6   1  233.66   22.55
  14   6   2   40.46   10.55
  14   6   2  134.98   17.46
 -14  -6  -2   80.00   13.38
  14   6   3  171.03   19.97
  14   6   3  294.07   31.58
 -14  -6  -3  196.38   26.87
  14   6   4   52.74   10.42
 -14  -6  -4   89.58   15.52
  14   6   5   15.11    5.64
  14   6   5   26.31    8.07
 -14  -6  -5   21.78   10.48
  14   6   6   36.78    8.59
  14   6   6   62.36   14.66
 -14  -6  -6   40.74   14.37
  14   7   0   41.11   12.44
  14   7   0  130.41   17.81
  14   7   1  103.43   15.09
  14   7   1  267.15   28.04
  14   7   2    9.59    7.84
 -14  -7  -2    1.98    7.42
  14   7   3   13.87    9.02
 -14  -7  -3    7.79    6.58
 -14  -7  -4   -4.60    7.88
   0   0   0    0.00    0.00

_computing_structure_solution     'SHELXT 2014/5 (Sheldrick, 2014)'
;
_shelx_hkl_checksum              39098
loop_
_space_group_symop_operation_xyz
'x, y, z'
'-x, -y, -z'
loop_
_atom_site_label
_atom_site_type_symbol
_atom_site_fract_x
_atom_site_fract_y
_atom_site_fract_z
_atom_site_U_iso_or_equiv
_atom_site_adp_type
_atom_site_occupancy
_atom_site_site_symmetry_order
_atom_site_calc_flag
_atom_site_refinement_flags_posn
_atom_site_refinement_flags_adp
_atom_site_refinement_flags_occupancy
_atom_site_disorder_assembly
_atom_site_disorder_group
C1 C 0.1998(2) 0.4903(2) 0.7353(2) 0.0234(7) Uani 1 1 d . . . . .
H1 H 0.1232 0.4878 0.7479 0.028 Uiso 1 1 calc R U . . .
C2 C 0.2697(3) 0.4557(2) 0.8035(2) 0.0276(7) Uani 1 1 d . . . . .
H2 H 0.2409 0.4305 0.8626 0.033 Uiso 1 1 calc R U . . .
C3 C 0.3812(3) 0.4582(3) 0.7850(2) 0.0305(8) Uani 1 1 d . . . . .
H3 H 0.4291 0.4346 0.8317 0.037 Uiso 1 1 calc R U . . .
C4 C 0.4237(3) 0.4951(3) 0.6989(2) 0.0300(7) Uani 1 1 d . . . . .
H4 H 0.5005 0.4958 0.6862 0.036 Uiso 1 1 calc R U . . .
C5 C 0.3535(2) 0.5309(2) 0.6314(2) 0.0245(7) Uani 1 1 d . . . . .
H5 H 0.3825 0.5574 0.5727 0.029 Uiso 1 1 calc R U . . .
C6 C 0.2405(2) 0.5283(2) 0.6486(2) 0.0198(6) Uani 1 1 d . . . . .
C7 C 0.1629(2) 0.5672(2) 0.5771(2) 0.0194(6) Uani 1 1 d . . . . .
C8 C 0.1894(2) 0.5396(2) 0.48741(19) 0.0175(6) Uani 1 1 d . . . . .
C9 C 0.2771(2) 0.4605(2) 0.4626(2) 0.0194(6) Uani 1 1 d . . . . .
H6 H 0.3264 0.4207 0.5025 0.023 Uiso 1 1 calc R U . . .
C10 C 0.2763(2) 0.4534(2) 0.3730(2) 0.0190(6) Uani 1 1 d . . . . .
H7 H 0.3242 0.4069 0.3380 0.023 Uiso 1 1 calc R U . . .
C11 C 0.1894(2) 0.5290(2) 0.3393(2) 0.0174(6) Uani 1 1 d . . . . .
C12 C 0.1618(2) 0.5430(2) 0.2486(2) 0.0170(6) Uani 1 1 d . . . . .
C13 C 0.2279(2) 0.4753(2) 0.1828(2) 0.0191(6) Uani 1 1 d . . . . .
C14 C 0.3373(2) 0.4857(2) 0.1558(2) 0.0217(6) Uani 1 1 d . . . . .
H8 H 0.3713 0.5348 0.1806 0.026 Uiso 1 1 calc R U . . .
C15 C 0.3969(3) 0.4249(2) 0.0927(2) 0.0268(7) Uani 1 1 d . . . . .
H9 H 0.4712 0.4334 0.0738 0.032 Uiso 1 1 calc R U . . .
C16 C 0.3490(3) 0.3522(2) 0.0575(2) 0.0273(7) Uani 1 1 d . . . . .
H10 H 0.3900 0.3107 0.0143 0.033 Uiso 1 1 calc R U . . .
C17 C 0.2405(3) 0.3399(2) 0.0853(2) 0.0248(7) Uani 1 1 d . . . . .
H11 H 0.2077 0.2888 0.0623 0.030 Uiso 1 1 calc R U . . .
C18 C 0.1801(2) 0.4020(2) 0.1466(2) 0.0220(6) Uani 1 1 d . . . . .
H12 H 0.1052 0.3946 0.1641 0.026 Uiso 1 1 calc R U . . .
C19 C 0.0751(2) 0.6117(2) 0.21457(19) 0.0177(6) Uani 1 1 d . . . . .
C20 C 0.0482(2) 0.6237(2) 0.1206(2) 0.0210(6) Uani 1 1 d . . . . .
H13 H 0.0870 0.5888 0.0720 0.025 Uiso 1 1 calc R U . . .
C21 C -0.0425(2) 0.6939(2) 0.1151(2) 0.0214(6) Uani 1 1 d . . . . .
H14 H -0.0793 0.7176 0.0617 0.026 Uiso 1 1 calc R U . . .
C22 C -0.0731(2) 0.7260(2) 0.2044(2) 0.0192(6) Uani 1 1 d . . . . .
C23 C -0.1690(2) 0.7927(2) 0.2289(2) 0.0221(7) Uani 1 1 d . . . . .
C24 C -0.2380(2) 0.8391(2) 0.1525(2) 0.0213(6) Uani 1 1 d . . . . .
C25 C -0.1945(3) 0.8994(2) 0.0773(2) 0.0254(7) Uani 1 1 d . . . . .
H15 H -0.1211 0.9136 0.0752 0.030 Uiso 1 1 calc R U . . .
C26 C -0.2578(3) 0.9387(2) 0.0061(2) 0.0269(7) Uani 1 1 d . . . . .
H16 H -0.2271 0.9784 -0.0454 0.032 Uiso 1 1 calc R U . . .
C27 C -0.3654(3) 0.9205(2) 0.0095(2) 0.0279(7) Uani 1 1 d . . . . .
H17 H -0.4089 0.9485 -0.0393 0.033 Uiso 1 1 calc R U . . .
C28 C -0.4097(3) 0.8617(2) 0.0837(2) 0.0270(7) Uani 1 1 d . . . . .
H18 H -0.4839 0.8496 0.0861 0.032 Uiso 1 1 calc R U . . .
C29 C -0.3462(2) 0.8201(2) 0.1548(2) 0.0216(6) Uani 1 1 d . . . . .
H19 H -0.3767 0.7786 0.2052 0.026 Uiso 1 1 calc R U . . .
C30 C -0.2069(3) 0.8148(2) 0.3176(2) 0.0274(7) Uani 1 1 d . . . . .
C31 C -0.3024(2) 0.8838(2) 0.3423(2) 0.0237(7) Uani 1 1 d . . . . .
H20 H -0.3512 0.9221 0.3012 0.028 Uiso 1 1 calc R U . . .
C32 C -0.3117(2) 0.8856(2) 0.4334(2) 0.0235(7) Uani 1 1 d . . . . .
H21 H -0.3688 0.9246 0.4677 0.028 Uiso 1 1 calc R U . . .
C33 C -0.2210(2) 0.8188(2) 0.4702(2) 0.0222(7) Uani 1 1 d . . . . .
C34 C -0.1980(2) 0.8084(2) 0.56264(19) 0.0183(6) Uani 1 1 d . . . . .
C35 C -0.2680(2) 0.8749(2) 0.6265(2) 0.0207(6) Uani 1 1 d . . . . .
C36 C -0.3221(3) 0.8312(3) 0.7051(2) 0.0270(7) Uani 1 1 d . . . . .
H22 H -0.3125 0.7588 0.7193 0.032 Uiso 1 1 calc R U . . .
C37 C -0.3904(3) 0.8927(3) 0.7633(2) 0.0322(8) Uani 1 1 d . . . . .
H23 H -0.4276 0.8621 0.8167 0.039 Uiso 1 1 calc R U . . .
C38 C -0.4042(3) 0.9973(3) 0.7440(2) 0.0304(8) Uani 1 1 d . . . . .
H24 H -0.4518 1.0389 0.7836 0.036 Uiso 1 1 calc R U . . .
C39 C -0.3491(3) 1.0423(3) 0.6670(2) 0.0367(9) Uani 1 1 d . . . . .
H25 H -0.3580 1.1149 0.6540 0.044 Uiso 1 1 calc R U . . .
C40 C -0.2807(3) 0.9812(3) 0.6088(2) 0.0304(8) Uani 1 1 d . . . . .
H26 H -0.2421 1.0123 0.5564 0.036 Uiso 1 1 calc R U . . .
C41 C -0.1085(2) 0.7446(2) 0.5971(2) 0.0184(6) Uani 1 1 d . . . . .
C42 C -0.0559(2) 0.7511(2) 0.6760(2) 0.0211(6) Uani 1 1 d . . . . .
H27 H -0.0850 0.7948 0.7217 0.025 Uiso 1 1 calc R U . . .
C43 C 0.0417(2) 0.6875(2) 0.6794(2) 0.0212(6) Uani 1 1 d . . . . .
H28 H 0.0880 0.6827 0.7277 0.025 Uiso 1 1 calc R U . . .
C44 C 0.0667(2) 0.6300(2) 0.6040(2) 0.0213(6) Uani 1 1 d . . . . .
N1 N 0.13682(19) 0.58045(18) 0.41023(16) 0.0180(5) Uani 1 1 d . . . . .
N2 N 0.00045(19) 0.67619(18) 0.26417(16) 0.0188(5) Uani 1 1 d . . . . .
N3 N -0.1532(3) 0.7793(4) 0.3975(2) 0.0163(7) Uani 0.796(5) 1 d . . P A 1
S2 S -0.04425(10) 0.64289(12) 0.54264(8) 0.0151(4) Uani 0.796(5) 1 d . . P A 1
Cl1 Cl 0.09208(10) 0.82965(10) 0.42278(10) 0.0223(3) Uani 0.796(5) 1 d . . P A 1
N4 N -0.0206(16) 0.6849(18) 0.5332(14) 0.036(5) Uani 0.204(5) 1 d . . P A 2
S1 S -0.1770(3) 0.7219(5) 0.4007(3) 0.0213(17) Uani 0.204(5) 1 d . . P A 2
Cl2 Cl 0.0514(14) 0.8499(9) 0.3876(9) 0.105(5) Uani 0.204(5) 1 d . . P A 2
Ni1 Ni 0.00461(3) 0.69456(3) 0.39450(2) 0.01722(12) Uani 1 1 d . . . . .
C45 C 0.6672(3) 0.1881(3) 0.4277(3) 0.0440(10) Uani 1 1 d . . . . .
H29 H 0.6740 0.1739 0.4916 0.053 Uiso 1 1 calc R U . . .
C46 C 0.5776(3) 0.2390(3) 0.3880(3) 0.0388(9) Uani 1 1 d . . . . .
C47 C 0.6008(3) 0.2440(2) 0.2941(2) 0.0293(7) Uani 1 1 d . . . . .
C48 C 0.7073(3) 0.1948(3) 0.2772(2) 0.0299(7) Uani 1 1 d . . . . .
C49 C 0.7738(3) 0.1784(2) 0.1935(2) 0.0276(7) Uani 1 1 d . . . . .
C50 C 0.7394(3) 0.2129(2) 0.1086(2) 0.0273(7) Uani 1 1 d . . . . .
H30 H 0.6723 0.2574 0.1024 0.033 Uiso 1 1 calc R U . . .
C51 C 0.8042(3) 0.1816(2) 0.0320(2) 0.0284(7) Uani 1 1 d . . . . .
C52 C 0.7692(3) 0.2012(2) -0.0577(2) 0.0274(7) Uani 1 1 d . . . . .
C53 C 0.6742(3) 0.2529(2) -0.0918(2) 0.0282(7) Uani 1 1 d . . . . .
C54 C 0.6805(3) 0.2443(3) -0.1843(2) 0.0293(7) Uani 1 1 d . . . . .
C55 C 0.7796(3) 0.1869(3) -0.2080(2) 0.0311(8) Uani 1 1 d . . . . .
H31 H 0.8061 0.1682 -0.2672 0.037 Uiso 1 1 calc R U . . .
N5 N 0.7447(3) 0.1615(2) 0.3605(2) 0.0375(7) Uani 1 1 d . . . . .
H32 H 0.8101 0.1274 0.3692 0.045 Uiso 1 1 calc R U . . .
N6 N 0.8316(2) 0.1622(2) -0.13118(19) 0.0290(6) Uani 1 1 d . . . . .
H33 H 0.8970 0.1258 -0.1284 0.035 Uiso 1 1 calc R U . . .
O1 O 0.87115(18) 0.12517(18) 0.20389(16) 0.0329(5) Uani 1 1 d . . . . .
O2 O 0.90198(17) 0.12858(17) 0.03797(15) 0.0299(5) Uani 1 1 d . . . . .
B1 B 0.9549(3) 0.1181(3) 0.1246(3) 0.0330(9) Uani 1 1 d . . . . .
F1 F 1.01926(17) 0.19520(17) 0.12166(14) 0.0433(5) Uani 1 1 d . . . . .
F2 F 1.01612(17) 0.02286(17) 0.13437(14) 0.0447(6) Uani 1 1 d . . . . .
F3 F 0.48350(18) 0.28062(17) 0.43151(15) 0.0500(6) Uani 1 1 d . . . . .
F4 F 0.53500(16) 0.29071(16) 0.23185(14) 0.0377(5) Uani 1 1 d . . . . .
F5 F 0.59003(15) 0.30412(15) -0.04347(13) 0.0350(5) Uani 1 1 d . . . . .
F6 F 0.60382(16) 0.28542(16) -0.24116(14) 0.0409(5) Uani 1 1 d . . . . .
O3 O 0.9298(3) 0.0426(3) 0.4111(2) 0.0645(9) Uani 1 1 d . . . . .
H101 H 0.978(4) -0.027(4) 0.406(3) 0.077 Uiso 1 1 d . U . . .
H104 H 0.952(4) 0.076(4) 0.471(4) 0.077 Uiso 1 1 d . U . . .
loop_
_atom_site_aniso_label
_atom_site_aniso_U_11
_atom_site_aniso_U_22
_atom_site_aniso_U_33
_atom_site_aniso_U_23
_atom_site_aniso_U_13
_atom_site_aniso_U_12
C1 0.0173(15) 0.0240(16) 0.0282(17) -0.0077(13) -0.0001(12) 0.0019(12)
C2 0.0285(18) 0.0261(17) 0.0259(17) -0.0005(13) -0.0038(14) 0.0031(13)
C3 0.0272(18) 0.0322(19) 0.0315(19) -0.0039(15) -0.0098(14) 0.0031(14)
C4 0.0186(16) 0.038(2) 0.0341(19) -0.0087(15) -0.0047(14) -0.0009(14)
C5 0.0204(16) 0.0307(18) 0.0233(16) -0.0056(13) -0.0017(13) -0.0036(13)
C6 0.0181(15) 0.0200(15) 0.0214(15) -0.0089(12) -0.0018(12) 0.0025(12)
C7 0.0158(14) 0.0210(15) 0.0218(16) -0.0068(12) -0.0022(12) 0.0005(12)
C8 0.0115(13) 0.0204(15) 0.0197(15) -0.0047(12) -0.0015(11) 0.0025(11)
C9 0.0126(14) 0.0212(15) 0.0230(16) -0.0059(12) -0.0018(11) 0.0051(11)
C10 0.0105(14) 0.0206(15) 0.0240(16) -0.0066(12) 0.0018(11) 0.0049(11)
C11 0.0120(14) 0.0160(14) 0.0234(15) -0.0062(12) 0.0014(11) 0.0025(11)
C12 0.0113(13) 0.0166(14) 0.0220(15) -0.0052(12) 0.0004(11) 0.0030(11)
C13 0.0182(15) 0.0166(15) 0.0203(15) -0.0042(12) -0.0007(12) 0.0060(11)
C14 0.0199(15) 0.0216(16) 0.0229(16) -0.0057(12) -0.0007(12) 0.0010(12)
C15 0.0180(16) 0.0298(18) 0.0293(18) -0.0072(14) 0.0054(13) 0.0056(13)
C16 0.0284(17) 0.0282(17) 0.0215(16) -0.0098(13) 0.0026(13) 0.0112(14)
C17 0.0281(17) 0.0219(16) 0.0245(16) -0.0071(13) -0.0061(13) 0.0023(13)
C18 0.0179(15) 0.0241(16) 0.0224(16) -0.0033(12) -0.0026(12) 0.0041(12)
C19 0.0155(14) 0.0180(15) 0.0189(15) -0.0056(12) 0.0020(11) 0.0003(11)
C20 0.0193(15) 0.0253(16) 0.0178(15) -0.0076(12) 0.0018(12) 0.0010(12)
C21 0.0174(15) 0.0253(16) 0.0197(15) -0.0040(12) -0.0013(12) 0.0037(12)
C22 0.0152(14) 0.0205(15) 0.0194(15) -0.0020(12) 0.0009(11) 0.0041(12)
C23 0.0175(15) 0.0189(15) 0.0250(16) 0.0018(12) 0.0015(12) 0.0082(12)
C24 0.0180(15) 0.0188(15) 0.0236(16) -0.0050(12) 0.0013(12) 0.0090(12)
C25 0.0213(16) 0.0241(17) 0.0283(17) -0.0013(13) -0.0008(13) 0.0030(13)
C26 0.0308(18) 0.0204(16) 0.0265(17) -0.0006(13) -0.0014(14) 0.0044(13)
C27 0.0275(17) 0.0286(17) 0.0254(17) -0.0127(14) -0.0060(14) 0.0136(14)
C28 0.0189(16) 0.0298(18) 0.0336(18) -0.0198(14) -0.0003(13) 0.0048(13)
C29 0.0202(15) 0.0207(15) 0.0219(16) -0.0080(12) 0.0032(12) 0.0045(12)
C30 0.0244(17) 0.0263(17) 0.0252(17) 0.0005(13) 0.0042(13) 0.0101(13)
C31 0.0189(15) 0.0282(17) 0.0213(16) -0.0068(13) -0.0026(12) 0.0095(13)
C32 0.0170(15) 0.0275(17) 0.0235(16) -0.0077(13) -0.0009(12) 0.0082(12)
C33 0.0223(16) 0.0220(16) 0.0210(16) -0.0102(12) -0.0034(12) 0.0087(12)
C34 0.0189(15) 0.0167(14) 0.0189(15) -0.0061(12) 0.0015(12) 0.0008(11)
C35 0.0160(15) 0.0217(15) 0.0233(16) -0.0079(12) -0.0018(12) 0.0054(12)
C36 0.0270(17) 0.0249(17) 0.0281(18) -0.0085(14) 0.0027(13) 0.0010(13)
C37 0.0294(18) 0.040(2) 0.0265(18) -0.0120(15) 0.0064(14) -0.0022(15)
C38 0.0260(17) 0.0358(19) 0.0276(18) -0.0168(15) -0.0001(14) 0.0110(14)
C39 0.047(2) 0.0287(19) 0.0313(19) -0.0101(15) -0.0005(16) 0.0089(16)
C40 0.0346(19) 0.0281(18) 0.0265(18) -0.0081(14) 0.0035(14) 0.0018(14)
C41 0.0162(14) 0.0160(14) 0.0219(15) -0.0036(12) 0.0017(12) 0.0007(11)
C42 0.0208(15) 0.0229(16) 0.0190(15) -0.0101(12) 0.0028(12) 0.0019(12)
C43 0.0202(15) 0.0237(16) 0.0186(15) -0.0033(12) -0.0025(12) 0.0024(12)
C44 0.0153(15) 0.0280(17) 0.0204(15) -0.0066(13) 0.0001(12) -0.0002(12)
N1 0.0147(12) 0.0189(13) 0.0191(13) -0.0078(10) -0.0003(10) 0.0054(10)
N2 0.0126(12) 0.0200(13) 0.0209(13) -0.0045(10) 0.0034(10) 0.0060(10)
N3 0.0140(16) 0.017(2) 0.0170(17) -0.0071(15) -0.0013(12) 0.0051(15)
S2 0.0119(6) 0.0160(7) 0.0156(5) -0.0046(5) 0.0006(4) 0.0049(4)
Cl1 0.0209(6) 0.0176(6) 0.0282(7) -0.0083(5) 0.0031(4) -0.0010(4)
N4 0.025(10) 0.017(10) 0.060(13) 0.007(9) 0.013(8) -0.005(8)
S1 0.020(2) 0.023(3) 0.018(2) -0.0070(18) 0.0014(15) 0.0084(18)
Cl2 0.144(11) 0.078(6) 0.093(8) -0.033(6) 0.059(8) -0.046(7)
Ni1 0.0136(2) 0.0194(2) 0.0176(2) -0.00743(15) 0.00118(14) 0.00388(14)
C45 0.052(2) 0.033(2) 0.037(2) -0.0010(16) 0.0114(18) 0.0113(18)
C46 0.034(2) 0.034(2) 0.041(2) -0.0057(16) 0.0136(16) 0.0084(16)
C47 0.0321(18) 0.0240(17) 0.0295(18) -0.0055(14) 0.0075(15) -0.0012(14)
C48 0.0297(18) 0.0269(18) 0.0315(19) -0.0084(14) 0.0056(14) 0.0004(14)
C49 0.0210(16) 0.0217(16) 0.039(2) -0.0108(14) 0.0056(14) 0.0018(13)
C50 0.0206(16) 0.0265(17) 0.0339(19) -0.0121(14) 0.0044(13) 0.0017(13)
C51 0.0191(16) 0.0246(17) 0.042(2) -0.0139(15) 0.0048(14) -0.0029(13)
C52 0.0222(16) 0.0278(17) 0.0333(18) -0.0146(14) 0.0060(13) -0.0037(13)
C53 0.0181(16) 0.0255(17) 0.040(2) -0.0140(15) 0.0081(14) 0.0003(13)
C54 0.0238(17) 0.0318(18) 0.0325(19) -0.0103(15) 0.0002(14) -0.0005(14)
C55 0.0284(18) 0.0364(19) 0.0303(19) -0.0148(15) 0.0013(14) -0.0039(15)
N5 0.0344(17) 0.0344(17) 0.0379(18) -0.0041(13) 0.0058(13) 0.0080(13)
N6 0.0198(14) 0.0330(16) 0.0349(16) -0.0164(13) 0.0064(12) -0.0017(11)
O1 0.0269(13) 0.0346(13) 0.0358(14) -0.0126(11) 0.0019(10) 0.0041(10)
O2 0.0210(12) 0.0360(13) 0.0326(13) -0.0164(10) 0.0041(9) 0.0023(10)
B1 0.026(2) 0.038(2) 0.036(2) -0.0183(18) 0.0023(16) 0.0024(17)
F1 0.0371(12) 0.0621(14) 0.0365(12) -0.0206(10) 0.0034(9) -0.0175(10)
F2 0.0344(12) 0.0563(14) 0.0413(12) -0.0221(10) -0.0072(9) 0.0170(10)
F3 0.0424(13) 0.0529(14) 0.0433(13) -0.0052(11) 0.0196(10) 0.0149(10)
F4 0.0266(10) 0.0464(12) 0.0384(12) -0.0109(9) 0.0016(9) 0.0028(9)
F5 0.0220(10) 0.0398(11) 0.0412(12) -0.0175(9) 0.0062(8) 0.0069(8)
F6 0.0321(11) 0.0473(13) 0.0423(12) -0.0141(10) -0.0067(9) 0.0078(9)
O3 0.068(2) 0.0551(19) 0.070(2) -0.0220(17) -0.0266(18) 0.0220(16)
loop_
_atom_type_symbol
_atom_type_description
_atom_type_scat_dispersion_real
_atom_type_scat_dispersion_imag
_atom_type_scat_source
C C 0.0045 0.0022 'International Tables Vol C Tables 4.2.6.8 and 6.1.1.4'
H H 0.0000 0.0000 'International Tables Vol C Tables 4.2.6.8 and 6.1.1.4'
B B 0.0022 0.0009 'International Tables Vol C Tables 4.2.6.8 and 6.1.1.4'
Cl Cl 0.1811 0.2071 'International Tables Vol C Tables 4.2.6.8 and 6.1.1.4'
F F 0.0231 0.0137 'International Tables Vol C Tables 4.2.6.8 and 6.1.1.4'
N N 0.0085 0.0044 'International Tables Vol C Tables 4.2.6.8 and 6.1.1.4'
Ni Ni 0.3082 1.4099 'International Tables Vol C Tables 4.2.6.8 and 6.1.1.4'
O O 0.0146 0.0081 'International Tables Vol C Tables 4.2.6.8 and 6.1.1.4'
S S 0.1532 0.1619 'International Tables Vol C Tables 4.2.6.8 and 6.1.1.4'
loop_
_geom_angle_atom_site_label_1
_geom_angle_atom_site_label_2
_geom_angle_atom_site_label_3
_geom_angle
_geom_angle_site_symmetry_1
_geom_angle_site_symmetry_3
_geom_angle_publ_flag
C2 C1 C6 120.8(3) . . ?
C2 C1 H1 119.6 . . ?
C6 C1 H1 119.6 . . ?
C3 C2 C1 119.7(3) . . ?
C3 C2 H2 120.1 . . ?
C1 C2 H2 120.1 . . ?
C2 C3 C4 120.4(3) . . ?
C2 C3 H3 119.8 . . ?
C4 C3 H3 119.8 . . ?
C5 C4 C3 119.7(3) . . ?
C5 C4 H4 120.2 . . ?
C3 C4 H4 120.2 . . ?
C4 C5 C6 120.7(3) . . ?
C4 C5 H5 119.7 . . ?
C6 C5 H5 119.7 . . ?
C1 C6 C5 118.6(3) . . ?
C1 C6 C7 119.6(3) . . ?
C5 C6 C7 121.7(3) . . ?
C44 C7 C8 123.5(3) . . ?
C44 C7 C6 117.1(3) . . ?
C8 C7 C6 119.4(2) . . ?
N1 C8 C7 127.0(2) . . ?
N1 C8 C9 109.0(2) . . ?
C7 C8 C9 123.9(3) . . ?
C10 C9 C8 107.5(3) . . ?
C10 C9 H6 126.3 . . ?
C8 C9 H6 126.3 . . ?
C9 C10 C11 107.6(2) . . ?
C9 C10 H7 126.2 . . ?
C11 C10 H7 126.2 . . ?
N1 C11 C12 126.4(2) . . ?
N1 C11 C10 109.4(2) . . ?
C12 C11 C10 124.1(3) . . ?
C19 C12 C11 125.7(3) . . ?
C19 C12 C13 116.7(3) . . ?
C11 C12 C13 117.5(2) . . ?
C14 C13 C18 118.9(3) . . ?
C14 C13 C12 120.7(3) . . ?
C18 C13 C12 120.4(3) . . ?
C15 C14 C13 120.3(3) . . ?
C15 C14 H8 119.8 . . ?
C13 C14 H8 119.8 . . ?
C16 C15 C14 120.3(3) . . ?
C16 C15 H9 119.9 . . ?
C14 C15 H9 119.9 . . ?
C15 C16 C17 119.8(3) . . ?
C15 C16 H10 120.1 . . ?
C17 C16 H10 120.1 . . ?
C18 C17 C16 120.0(3) . . ?
C18 C17 H11 120.0 . . ?
C16 C17 H11 120.0 . . ?
C17 C18 C13 120.6(3) . . ?
C17 C18 H12 119.7 . . ?
C13 C18 H12 119.7 . . ?
N2 C19 C12 126.2(3) . . ?
N2 C19 C20 109.3(2) . . ?
C12 C19 C20 124.4(3) . . ?
C21 C20 C19 107.0(3) . . ?
C21 C20 H13 126.5 . . ?
C19 C20 H13 126.5 . . ?
C20 C21 C22 107.6(3) . . ?
C20 C21 H14 126.2 . . ?
C22 C21 H14 126.2 . . ?
N2 C22 C23 125.0(3) . . ?
N2 C22 C21 109.7(2) . . ?
C23 C22 C21 125.1(3) . . ?
C30 C23 C22 125.7(3) . . ?
C30 C23 C24 118.0(3) . . ?
C22 C23 C24 116.2(3) . . ?
C29 C24 C25 118.9(3) . . ?
C29 C24 C23 120.1(3) . . ?
C25 C24 C23 121.0(3) . . ?
C26 C25 C24 120.4(3) . . ?
C26 C25 H15 119.8 . . ?
C24 C25 H15 119.8 . . ?
C27 C26 C25 120.3(3) . . ?
C27 C26 H16 119.8 . . ?
C25 C26 H16 119.8 . . ?
C26 C27 C28 119.9(3) . . ?
C26 C27 H17 120.0 . . ?
C28 C27 H17 120.0 . . ?
C27 C28 C29 120.2(3) . . ?
C27 C28 H18 119.9 . . ?
C29 C28 H18 119.9 . . ?
C28 C29 C24 120.2(3) . . ?
C28 C29 H19 119.9 . . ?
C24 C29 H19 119.9 . . ?
C23 C30 N3 126.1(3) . . ?
C23 C30 C31 125.8(3) . . ?
N3 C30 C31 107.9(3) . . ?
C23 C30 S1 116.1(3) . . ?
C31 C30 S1 112.4(3) . . ?
C32 C31 C30 108.6(3) . . ?
C32 C31 H20 125.7 . . ?
C30 C31 H20 125.7 . . ?
C31 C32 C33 108.5(3) . . ?
C31 C32 H21 125.8 . . ?
C33 C32 H21 125.8 . . ?
N3 C33 C34 126.7(3) . . ?
N3 C33 C32 108.2(3) . . ?
C34 C33 C32 124.5(3) . . ?
C34 C33 S1 121.7(3) . . ?
C32 C33 S1 109.8(2) . . ?
C41 C34 C33 123.9(3) . . ?
C41 C34 C35 117.2(3) . . ?
C33 C34 C35 118.7(3) . . ?
C36 C35 C40 118.7(3) . . ?
C36 C35 C34 120.2(3) . . ?
C40 C35 C34 121.1(3) . . ?
C35 C36 C37 120.4(3) . . ?
C35 C36 H22 119.8 . . ?
C37 C36 H22 119.8 . . ?
C38 C37 C36 120.3(3) . . ?
C38 C37 H23 119.8 . . ?
C36 C37 H23 119.8 . . ?
C37 C38 C39 120.1(3) . . ?
C37 C38 H24 120.0 . . ?
C39 C38 H24 120.0 . . ?
C38 C39 C40 119.8(3) . . ?
C38 C39 H25 120.1 . . ?
C40 C39 H25 120.1 . . ?
C39 C40 C35 120.7(3) . . ?
C39 C40 H26 119.7 . . ?
C35 C40 H26 119.7 . . ?
C34 C41 C42 128.9(3) . . ?
C34 C41 N4 121.3(8) . . ?
C42 C41 N4 105.2(8) . . ?
C34 C41 S2 121.4(2) . . ?
C42 C41 S2 109.7(2) . . ?
C43 C42 C41 112.5(3) . . ?
C43 C42 H27 123.7 . . ?
C41 C42 H27 123.7 . . ?
C42 C43 C44 113.1(3) . . ?
C42 C43 H28 123.5 . . ?
C44 C43 H28 123.5 . . ?
C7 C44 C43 130.2(3) . . ?
C7 C44 N4 123.0(7) . . ?
C43 C44 N4 103.3(8) . . ?
C7 C44 S2 120.0(2) . . ?
C43 C44 S2 109.8(2) . . ?
C11 N1 C8 106.5(2) . . ?
C11 N1 Ni1 123.04(19) . . ?
C8 N1 Ni1 130.46(18) . . ?
C22 N2 C19 106.4(2) . . ?
C22 N2 Ni1 128.03(19) . . ?
C19 N2 Ni1 125.55(19) . . ?
C33 N3 C30 106.5(3) . . ?
C33 N3 Ni1 130.5(2) . . ?
C30 N3 Ni1 122.7(2) . . ?
C44 S2 C41 92.51(15) . . ?
C44 S2 Ni1 109.60(12) . . ?
C41 S2 Ni1 110.26(12) . . ?
C41 N4 C44 101.8(12) . . ?
C41 N4 Ni1 131.1(11) . . ?
C44 N4 Ni1 125.7(10) . . ?
C30 S1 C33 83.2(3) . . ?
C30 S1 Ni1 105.5(3) . . ?
C33 S1 Ni1 107.4(3) . . ?
N2 Ni1 N4 164.3(7) . . ?
N2 Ni1 N1 92.78(9) . . ?
N4 Ni1 N1 87.7(5) . . ?
N2 Ni1 N3 90.91(11) . . ?
N1 Ni1 N3 164.43(16) . . ?
N2 Ni1 Cl2 102.7(4) . . ?
N4 Ni1 Cl2 91.6(6) . . ?
N1 Ni1 Cl2 112.6(5) . . ?
N2 Ni1 S1 86.20(12) . . ?
N4 Ni1 S1 84.0(6) . . ?
N1 Ni1 S1 142.93(18) . . ?
Cl2 Ni1 S1 103.7(4) . . ?
N2 Ni1 S2 147.95(8) . . ?
N1 Ni1 S2 84.24(7) . . ?
N3 Ni1 S2 84.62(10) . . ?
N2 Ni1 Cl1 115.73(8) . . ?
N1 Ni1 Cl1 96.94(7) . . ?
N3 Ni1 Cl1 95.05(14) . . ?
S2 Ni1 Cl1 96.29(5) . . ?
N5 C45 C46 107.9(3) . . ?
N5 C45 H29 126.1 . . ?
C46 C45 H29 126.1 . . ?
F3 C46 C45 126.5(3) . . ?
F3 C46 C47 125.3(3) . . ?
C45 C46 C47 108.1(3) . . ?
F4 C47 C46 126.2(3) . . ?
F4 C47 C48 126.4(3) . . ?
C46 C47 C48 107.4(3) . . ?
N5 C48 C47 106.3(3) . . ?
N5 C48 C49 122.1(3) . . ?
C47 C48 C49 131.6(3) . . ?
O1 C49 C50 121.8(3) . . ?
O1 C49 C48 114.7(3) . . ?
C50 C49 C48 123.5(3) . . ?
C49 C50 C51 118.8(3) . . ?
C49 C50 H30 120.6 . . ?
C51 C50 H30 120.6 . . ?
O2 C51 C50 121.8(3) . . ?
O2 C51 C52 115.1(3) . . ?
C50 C51 C52 123.1(3) . . ?
N6 C52 C53 105.6(3) . . ?
N6 C52 C51 121.8(3) . . ?
C53 C52 C51 132.6(3) . . ?
F5 C53 C54 125.6(3) . . ?
F5 C53 C52 125.9(3) . . ?
C54 C53 C52 108.5(3) . . ?
F6 C54 C55 126.3(3) . . ?
F6 C54 C53 125.8(3) . . ?
C55 C54 C53 107.9(3) . . ?
N6 C55 C54 106.9(3) . . ?
N6 C55 H31 126.5 . . ?
C54 C55 H31 126.5 . . ?
C45 N5 C48 110.3(3) . . ?
C45 N5 H32 124.8 . . ?
C48 N5 H32 124.8 . . ?
C55 N6 C52 111.1(3) . . ?
C55 N6 H33 124.5 . . ?
C52 N6 H33 124.5 . . ?
C49 O1 B1 120.0(3) . . ?
C51 O2 B1 119.9(3) . . ?
F2 B1 F1 111.6(3) . . ?
F2 B1 O2 108.1(3) . . ?
F1 B1 O2 109.0(3) . . ?
F2 B1 O1 108.0(3) . . ?
F1 B1 O1 109.4(3) . . ?
O2 B1 O1 110.7(3) . . ?
H101 O3 H104 108(4) . . ?
loop_
_geom_bond_atom_site_label_1
_geom_bond_atom_site_label_2
_geom_bond_distance
_geom_bond_site_symmetry_2
_geom_bond_publ_flag
C1 C2 1.387(4) . ?
C1 C6 1.389(4) . ?
C1 H1 0.9500 . ?
C2 C3 1.381(5) . ?
C2 H2 0.9500 . ?
C3 C4 1.386(5) . ?
C3 H3 0.9500 . ?
C4 C5 1.385(4) . ?
C4 H4 0.9500 . ?
C5 C6 1.398(4) . ?
C5 H5 0.9500 . ?
C6 C7 1.495(4) . ?
C7 C44 1.398(4) . ?
C7 C8 1.410(4) . ?
C8 N1 1.385(4) . ?
C8 C9 1.442(4) . ?
C9 C10 1.339(4) . ?
C9 H6 0.9500 . ?
C10 C11 1.442(4) . ?
C10 H7 0.9500 . ?
C11 N1 1.372(4) . ?
C11 C12 1.402(4) . ?
C12 C19 1.394(4) . ?
C12 C13 1.497(4) . ?
C13 C14 1.390(4) . ?
C13 C18 1.391(4) . ?
C14 C15 1.386(4) . ?
C14 H8 0.9500 . ?
C15 C16 1.378(5) . ?
C15 H9 0.9500 . ?
C16 C17 1.387(5) . ?
C16 H10 0.9500 . ?
C17 C18 1.382(4) . ?
C17 H11 0.9500 . ?
C18 H12 0.9500 . ?
C19 N2 1.376(3) . ?
C19 C20 1.446(4) . ?
C20 C21 1.349(4) . ?
C20 H13 0.9500 . ?
C21 C22 1.430(4) . ?
C21 H14 0.9500 . ?
C22 N2 1.376(4) . ?
C22 C23 1.412(4) . ?
C23 C30 1.393(4) . ?
C23 C24 1.503(4) . ?
C24 C29 1.392(4) . ?
C24 C25 1.396(4) . ?
C25 C26 1.382(4) . ?
C25 H15 0.9500 . ?
C26 C27 1.380(5) . ?
C26 H16 0.9500 . ?
C27 C28 1.380(5) . ?
C27 H17 0.9500 . ?
C28 C29 1.389(4) . ?
C28 H18 0.9500 . ?
C29 H19 0.9500 . ?
C30 N3 1.412(4) . ?
C30 C31 1.427(4) . ?
C30 S1 1.660(6) . ?
C31 C32 1.341(4) . ?
C31 H20 0.9500 . ?
C32 C33 1.434(4) . ?
C32 H21 0.9500 . ?
C33 N3 1.396(4) . ?
C33 C34 1.410(4) . ?
C33 S1 1.728(6) . ?
C34 C41 1.391(4) . ?
C34 C35 1.490(4) . ?
C35 C36 1.386(4) . ?
C35 C40 1.388(4) . ?
C36 C37 1.388(4) . ?
C36 H22 0.9500 . ?
C37 C38 1.369(5) . ?
C37 H23 0.9500 . ?
C38 C39 1.381(5) . ?
C38 H24 0.9500 . ?
C39 C40 1.387(5) . ?
C39 H25 0.9500 . ?
C40 H26 0.9500 . ?
C41 C42 1.409(4) . ?
C41 N4 1.552(18) . ?
C41 S2 1.704(3) . ?
C42 C43 1.367(4) . ?
C42 H27 0.9500 . ?
C43 C44 1.406(4) . ?
C43 H28 0.9500 . ?
C44 N4 1.61(2) . ?
C44 S2 1.698(3) . ?
N1 Ni1 2.068(2) . ?
N2 Ni1 1.976(2) . ?
N3 Ni1 2.101(3) . ?
S2 Ni1 2.2606(13) . ?
Cl1 Ni1 2.3199(14) . ?
N4 Ni1 2.03(2) . ?
S1 Ni1 2.214(4) . ?
Cl2 Ni1 2.205(10) . ?
C45 N5 1.347(5) . ?
C45 C46 1.358(5) . ?
C45 H29 0.9500 . ?
C46 F3 1.345(4) . ?
C46 C47 1.382(5) . ?
C47 F4 1.327(4) . ?
C47 C48 1.392(5) . ?
C48 N5 1.360(5) . ?
C48 C49 1.432(4) . ?
C49 O1 1.315(4) . ?
C49 C50 1.371(5) . ?
C50 C51 1.386(4) . ?
C50 H30 0.9500 . ?
C51 O2 1.311(4) . ?
C51 C52 1.418(5) . ?
C52 N6 1.372(4) . ?
C52 C53 1.381(5) . ?
C53 F5 1.344(3) . ?
C53 C54 1.378(5) . ?
C54 F6 1.343(4) . ?
C54 C55 1.378(5) . ?
C55 N6 1.344(4) . ?
C55 H31 0.9500 . ?
N5 H32 0.8800 . ?
N6 H33 0.8800 . ?
O1 B1 1.482(4) . ?
O2 B1 1.480(5) . ?
B1 F2 1.372(5) . ?
B1 F1 1.377(5) . ?
O3 H101 1.03(5) . ?
O3 H104 1.10(5) . ?
loop_
_geom_torsion_atom_site_label_1
_geom_torsion_atom_site_label_2
_geom_torsion_atom_site_label_3
_geom_torsion_atom_site_label_4
_geom_torsion
_geom_torsion_site_symmetry_1
_geom_torsion_site_symmetry_2
_geom_torsion_site_symmetry_3
_geom_torsion_site_symmetry_4
_geom_torsion_publ_flag
C6 C1 C2 C3 -0.6(5) . . . . ?
C1 C2 C3 C4 0.1(5) . . . . ?
C2 C3 C4 C5 0.9(5) . . . . ?
C3 C4 C5 C6 -1.3(5) . . . . ?
C2 C1 C6 C5 0.2(4) . . . . ?
C2 C1 C6 C7 -178.6(3) . . . . ?
C4 C5 C6 C1 0.7(5) . . . . ?
C4 C5 C6 C7 179.5(3) . . . . ?
C1 C6 C7 C44 44.4(4) . . . . ?
C5 C6 C7 C44 -134.4(3) . . . . ?
C1 C6 C7 C8 -135.7(3) . . . . ?
C5 C6 C7 C8 45.5(4) . . . . ?
C44 C7 C8 N1 10.7(5) . . . . ?
C6 C7 C8 N1 -169.2(3) . . . . ?
C44 C7 C8 C9 -168.0(3) . . . . ?
C6 C7 C8 C9 12.0(4) . . . . ?
N1 C8 C9 C10 -0.7(3) . . . . ?
C7 C8 C9 C10 178.3(3) . . . . ?
C8 C9 C10 C11 1.0(3) . . . . ?
C9 C10 C11 N1 -1.1(3) . . . . ?
C9 C10 C11 C12 -178.5(3) . . . . ?
N1 C11 C12 C19 -0.3(5) . . . . ?
C10 C11 C12 C19 176.7(3) . . . . ?
N1 C11 C12 C13 -177.6(3) . . . . ?
C10 C11 C12 C13 -0.6(4) . . . . ?
C19 C12 C13 C14 113.5(3) . . . . ?
C11 C12 C13 C14 -68.9(4) . . . . ?
C19 C12 C13 C18 -65.4(4) . . . . ?
C11 C12 C13 C18 112.2(3) . . . . ?
C18 C13 C14 C15 0.9(4) . . . . ?
C12 C13 C14 C15 -178.0(3) . . . . ?
C13 C14 C15 C16 -1.1(5) . . . . ?
C14 C15 C16 C17 -0.1(5) . . . . ?
C15 C16 C17 C18 1.5(5) . . . . ?
C16 C17 C18 C13 -1.8(5) . . . . ?
C14 C13 C18 C17 0.6(4) . . . . ?
C12 C13 C18 C17 179.5(3) . . . . ?
C11 C12 C19 N2 -1.4(5) . . . . ?
C13 C12 C19 N2 175.9(3) . . . . ?
C11 C12 C19 C20 -179.4(3) . . . . ?
C13 C12 C19 C20 -2.1(4) . . . . ?
N2 C19 C20 C21 -0.7(3) . . . . ?
C12 C19 C20 C21 177.6(3) . . . . ?
C19 C20 C21 C22 -0.2(3) . . . . ?
C20 C21 C22 N2 0.9(3) . . . . ?
C20 C21 C22 C23 -174.6(3) . . . . ?
N2 C22 C23 C30 -3.2(5) . . . . ?
C21 C22 C23 C30 171.6(3) . . . . ?
N2 C22 C23 C24 -180.0(3) . . . . ?
C21 C22 C23 C24 -5.1(5) . . . . ?
C30 C23 C24 C29 -57.7(4) . . . . ?
C22 C23 C24 C29 119.3(3) . . . . ?
C30 C23 C24 C25 123.8(3) . . . . ?
C22 C23 C24 C25 -59.2(4) . . . . ?
C29 C24 C25 C26 -0.7(4) . . . . ?
C23 C24 C25 C26 177.8(3) . . . . ?
C24 C25 C26 C27 1.5(5) . . . . ?
C25 C26 C27 C28 -0.9(5) . . . . ?
C26 C27 C28 C29 -0.4(4) . . . . ?
C27 C28 C29 C24 1.1(4) . . . . ?
C25 C24 C29 C28 -0.6(4) . . . . ?
C23 C24 C29 C28 -179.1(3) . . . . ?
C22 C23 C30 N3 4.0(6) . . . . ?
C24 C23 C30 N3 -179.4(4) . . . . ?
C22 C23 C30 C31 178.5(3) . . . . ?
C24 C23 C30 C31 -4.8(5) . . . . ?
C22 C23 C30 S1 -30.2(5) . . . . ?
C24 C23 C30 S1 146.5(3) . . . . ?
C23 C30 C31 C32 -179.5(3) . . . . ?
N3 C30 C31 C32 -4.1(4) . . . . ?
S1 C30 C31 C32 28.4(4) . . . . ?
C30 C31 C32 C33 1.0(4) . . . . ?
C31 C32 C33 N3 2.5(4) . . . . ?
C31 C32 C33 C34 174.0(3) . . . . ?
C31 C32 C33 S1 -28.3(4) . . . . ?
N3 C33 C34 C41 -8.8(6) . . . . ?
C32 C33 C34 C41 -178.7(3) . . . . ?
S1 C33 C34 C41 26.0(5) . . . . ?
N3 C33 C34 C35 166.3(4) . . . . ?
C32 C33 C34 C35 -3.6(5) . . . . ?
S1 C33 C34 C35 -158.9(3) . . . . ?
C41 C34 C35 C36 -61.0(4) . . . . ?
C33 C34 C35 C36 123.6(3) . . . . ?
C41 C34 C35 C40 119.1(3) . . . . ?
C33 C34 C35 C40 -56.4(4) . . . . ?
C40 C35 C36 C37 2.1(5) . . . . ?
C34 C35 C36 C37 -177.9(3) . . . . ?
C35 C36 C37 C38 -0.5(5) . . . . ?
C36 C37 C38 C39 -0.9(5) . . . . ?
C37 C38 C39 C40 0.8(5) . . . . ?
C38 C39 C40 C35 0.8(5) . . . . ?
C36 C35 C40 C39 -2.2(5) . . . . ?
C34 C35 C40 C39 177.7(3) . . . . ?
C33 C34 C41 C42 156.8(3) . . . . ?
C35 C34 C41 C42 -18.4(5) . . . . ?
C33 C34 C41 N4 4.6(12) . . . . ?
C35 C34 C41 N4 -170.6(11) . . . . ?
C33 C34 C41 S2 -22.1(4) . . . . ?
C35 C34 C41 S2 162.7(2) . . . . ?
C34 C41 C42 C43 -168.3(3) . . . . ?
N4 C41 C42 C43 -12.7(10) . . . . ?
S2 C41 C42 C43 10.7(3) . . . . ?
C41 C42 C43 C44 -0.4(4) . . . . ?
C8 C7 C44 C43 -159.7(3) . . . . ?
C6 C7 C44 C43 20.2(5) . . . . ?
C8 C7 C44 N4 -4.7(12) . . . . ?
C6 C7 C44 N4 175.2(11) . . . . ?
C8 C7 C44 S2 21.8(4) . . . . ?
C6 C7 C44 S2 -158.2(2) . . . . ?
C42 C43 C44 C7 171.3(3) . . . . ?
C42 C43 C44 N4 12.7(9) . . . . ?
C42 C43 C44 S2 -10.1(3) . . . . ?
C12 C11 N1 C8 178.0(3) . . . . ?
C10 C11 N1 C8 0.6(3) . . . . ?
C12 C11 N1 Ni1 -1.6(4) . . . . ?
C10 C11 N1 Ni1 -178.93(19) . . . . ?
C7 C8 N1 C11 -178.9(3) . . . . ?
C9 C8 N1 C11 0.0(3) . . . . ?
C7 C8 N1 Ni1 0.6(4) . . . . ?
C9 C8 N1 Ni1 179.5(2) . . . . ?
C23 C22 N2 C19 174.2(3) . . . . ?
C21 C22 N2 C19 -1.3(3) . . . . ?
C23 C22 N2 Ni1 -7.8(4) . . . . ?
C21 C22 N2 Ni1 176.6(2) . . . . ?
C12 C19 N2 C22 -177.0(3) . . . . ?
C20 C19 N2 C22 1.2(3) . . . . ?
C12 C19 N2 Ni1 4.9(4) . . . . ?
C20 C19 N2 Ni1 -176.81(19) . . . . ?
C34 C33 N3 C30 -176.1(3) . . . . ?
C32 C33 N3 C30 -4.9(5) . . . . ?
C34 C33 N3 Ni1 -1.3(7) . . . . ?
C32 C33 N3 Ni1 170.0(3) . . . . ?
C23 C30 N3 C33 -179.2(3) . . . . ?
C31 C30 N3 C33 5.5(5) . . . . ?
C23 C30 N3 Ni1 5.5(6) . . . . ?
C31 C30 N3 Ni1 -169.9(3) . . . . ?
C7 C44 S2 C41 -167.4(3) . . . . ?
C43 C44 S2 C41 13.8(3) . . . . ?
C7 C44 S2 Ni1 -54.9(3) . . . . ?
C43 C44 S2 Ni1 126.4(2) . . . . ?
C34 C41 S2 C44 165.0(3) . . . . ?
C42 C41 S2 C44 -14.1(2) . . . . ?
C34 C41 S2 Ni1 53.0(3) . . . . ?
C42 C41 S2 Ni1 -126.1(2) . . . . ?
C34 C41 N4 C44 176.6(6) . . . . ?
C42 C41 N4 C44 18.7(14) . . . . ?
C34 C41 N4 Ni1 10(2) . . . . ?
C42 C41 N4 Ni1 -148.1(16) . . . . ?
C7 C44 N4 C41 -179.4(6) . . . . ?
C43 C44 N4 C41 -18.8(13) . . . . ?
C7 C44 N4 Ni1 -12(2) . . . . ?
C43 C44 N4 Ni1 149.0(14) . . . . ?
C23 C30 S1 C33 167.8(3) . . . . ?
C31 C30 S1 C33 -37.1(4) . . . . ?
C23 C30 S1 Ni1 61.7(4) . . . . ?
C31 C30 S1 Ni1 -143.3(3) . . . . ?
C34 C33 S1 C30 -164.6(3) . . . . ?
C32 C33 S1 C30 36.9(3) . . . . ?
C34 C33 S1 Ni1 -60.5(4) . . . . ?
C32 C33 S1 Ni1 141.0(2) . . . . ?
N5 C45 C46 F3 -178.3(4) . . . . ?
N5 C45 C46 C47 -0.2(5) . . . . ?
F3 C46 C47 F4 0.5(6) . . . . ?
C45 C46 C47 F4 -177.6(3) . . . . ?
F3 C46 C47 C48 178.0(3) . . . . ?
C45 C46 C47 C48 -0.1(4) . . . . ?
F4 C47 C48 N5 177.9(3) . . . . ?
C46 C47 C48 N5 0.3(4) . . . . ?
F4 C47 C48 C49 -1.3(6) . . . . ?
C46 C47 C48 C49 -178.9(4) . . . . ?
N5 C48 C49 O1 2.7(5) . . . . ?
C47 C48 C49 O1 -178.2(3) . . . . ?
N5 C48 C49 C50 -178.5(3) . . . . ?
C47 C48 C49 C50 0.6(6) . . . . ?
O1 C49 C50 C51 6.9(5) . . . . ?
C48 C49 C50 C51 -171.7(3) . . . . ?
C49 C50 C51 O2 -6.8(5) . . . . ?
C49 C50 C51 C52 171.0(3) . . . . ?
O2 C51 C52 N6 3.4(5) . . . . ?
C50 C51 C52 N6 -174.6(3) . . . . ?
O2 C51 C52 C53 179.9(3) . . . . ?
C50 C51 C52 C53 1.9(6) . . . . ?
N6 C52 C53 F5 -179.2(3) . . . . ?
C51 C52 C53 F5 3.8(6) . . . . ?
N6 C52 C53 C54 0.1(4) . . . . ?
C51 C52 C53 C54 -176.9(3) . . . . ?
F5 C53 C54 F6 -0.1(6) . . . . ?
C52 C53 C54 F6 -179.4(3) . . . . ?
F5 C53 C54 C55 179.4(3) . . . . ?
C52 C53 C54 C55 0.2(4) . . . . ?
F6 C54 C55 N6 179.2(3) . . . . ?
C53 C54 C55 N6 -0.3(4) . . . . ?
C46 C45 N5 C48 0.4(4) . . . . ?
C47 C48 N5 C45 -0.4(4) . . . . ?
C49 C48 N5 C45 178.9(3) . . . . ?
C54 C55 N6 C52 0.4(4) . . . . ?
C53 C52 N6 C55 -0.3(4) . . . . ?
C51 C52 N6 C55 177.1(3) . . . . ?
C50 C49 O1 B1 11.9(5) . . . . ?
C48 C49 O1 B1 -169.4(3) . . . . ?
C50 C51 O2 B1 -12.1(5) . . . . ?
C52 C51 O2 B1 169.9(3) . . . . ?
C51 O2 B1 F2 146.2(3) . . . . ?
C51 O2 B1 F1 -92.4(3) . . . . ?
C51 O2 B1 O1 28.0(4) . . . . ?
C49 O1 B1 F2 -146.2(3) . . . . ?
C49 O1 B1 F1 92.2(4) . . . . ?
C49 O1 B1 O2 -28.0(4) . . . . ?
