#------------------------------------------------------------------------------
#$Date: 2019-11-17 15:06:06 +0200 (Sun, 17 Nov 2019) $
#$Revision: 230727 $
#$URL: file:///home/coder/svn-repositories/cod/cif/7/15/62/7156221.cif $
#------------------------------------------------------------------------------
#
# This file is available in the Crystallography Open Database (COD),
# http://www.crystallography.net/
#
# All data on this site have been placed in the public domain by the
# contributors.
#
data_7156221
loop_
_publ_author_name
'Smith, Martin J.'
'Blake, Iain M.'
'Clegg, William'
'Anderson, Harry L.'
_publ_section_title
;
 Push-pull quinoidal porphyrins.
;
_journal_issue                   19
_journal_name_full               'Organic &amp; biomolecular chemistry'
_journal_page_first              3648
_journal_page_last               3654
_journal_paper_doi               10.1039/c8ob00491a
_journal_volume                  16
_journal_year                    2018
_chemical_formula_moiety         'C103 H109 N9 Ni O S2 Zn'
_chemical_formula_sum            'C103 H109 N9 Ni O S2 Zn'
_chemical_formula_weight         1677.19
_space_group_crystal_system      triclinic
_space_group_IT_number           2
_space_group_name_Hall           '-P 1'
_space_group_name_H-M_alt        'P -1'
_symmetry_space_group_name_Hall  '-P 1'
_symmetry_space_group_name_H-M   'P -1'
_atom_sites_solution_hydrogens   geom
_atom_sites_solution_primary     direct
_atom_sites_solution_secondary   difmap
_audit_creation_method           SHELXL-2018/1
_audit_update_record
;
2018-02-05 deposited with the CCDC.
2018-04-24 downloaded from the CCDC.
;
_cell_angle_alpha                69.445(3)
_cell_angle_beta                 72.044(3)
_cell_angle_gamma                82.393(3)
_cell_formula_units_Z            2
_cell_length_a                   14.218(5)
_cell_length_b                   20.122(6)
_cell_length_c                   21.975(7)
_cell_measurement_reflns_used    8721
_cell_measurement_temperature    150(2)
_cell_measurement_theta_max      22.52
_cell_measurement_theta_min      4.66
_cell_volume                     5598(3)
_computing_cell_refinement       'Bruker SAINT'
_computing_data_collection       'Bruker SMART'
_computing_data_reduction        'Bruker SAINT'
_computing_molecular_graphics    'Bruker SHELXTL'
_computing_publication_material  'SHELXL and local programs'
_computing_structure_refinement  'SHELXL-2018/1 (Sheldrick, 2018)'
_computing_structure_solution    'Bruker SHELXTL'
_diffrn_ambient_temperature      150(2)
_diffrn_measured_fraction_theta_full 0.952
_diffrn_measured_fraction_theta_max 0.952
_diffrn_measurement_device_type  'Bruker SMART 1K CCD diffractometer'
_diffrn_measurement_method       'thin-slice \w scans'
_diffrn_radiation_type           synchrotron
_diffrn_radiation_wavelength     0.6932
_diffrn_reflns_av_R_equivalents  0.0392
_diffrn_reflns_av_unetI/netI     0.1129
_diffrn_reflns_Laue_measured_fraction_full 0.952
_diffrn_reflns_Laue_measured_fraction_max 0.952
_diffrn_reflns_limit_h_max       15
_diffrn_reflns_limit_h_min       -15
_diffrn_reflns_limit_k_max       22
_diffrn_reflns_limit_k_min       -22
_diffrn_reflns_limit_l_max       24
_diffrn_reflns_limit_l_min       -24
_diffrn_reflns_number            27929
_diffrn_reflns_point_group_measured_fraction_full 0.952
_diffrn_reflns_point_group_measured_fraction_max 0.952
_diffrn_reflns_theta_full        22.810
_diffrn_reflns_theta_max         22.810
_diffrn_reflns_theta_min         4.664
_diffrn_source                   'Daresbury SRS station 9.8'
_exptl_absorpt_coefficient_mu    0.435
_exptl_absorpt_correction_T_max  0.99
_exptl_absorpt_correction_T_min  0.93
_exptl_absorpt_correction_type   multi-scan
_exptl_absorpt_process_details   SADABS
_exptl_crystal_colour            yellow-green
_exptl_crystal_density_diffrn    0.995
_exptl_crystal_density_method    'not measured'
_exptl_crystal_description       plate
_exptl_crystal_F_000             1776
_exptl_crystal_recrystallization_method
'Re-crystallisation from solvent: pyridine and methanol'
_exptl_crystal_size_max          0.150
_exptl_crystal_size_mid          0.080
_exptl_crystal_size_min          0.010
_refine_diff_density_max         1.264
_refine_diff_density_min         -0.526
_refine_diff_density_rms         0.079
_refine_ls_extinction_method     none
_refine_ls_goodness_of_fit_ref   1.039
_refine_ls_hydrogen_treatment    constr
_refine_ls_matrix_type           full
_refine_ls_number_parameters     1348
_refine_ls_number_reflns         15633
_refine_ls_number_restraints     4477
_refine_ls_restrained_S_all      1.026
_refine_ls_R_factor_all          0.1556
_refine_ls_R_factor_gt           0.1004
_refine_ls_shift/su_max          0.003
_refine_ls_shift/su_mean         0.000
_refine_ls_structure_factor_coef Fsqd
_refine_ls_weighting_details
'w=1/[\s^2^(Fo^2^)+(0.1697P)^2^+5.5315P] where P=(Fo^2^+2Fc^2^)/3'
_refine_ls_weighting_scheme      calc
_refine_ls_wR_factor_gt          0.2780
_refine_ls_wR_factor_ref         0.3328
_reflns_Friedel_coverage         0.000
_reflns_number_gt                8508
_reflns_number_total             15633
_reflns_threshold_expression     'I > 2\s(I)'
_cod_data_source_file            c8ob00491a2.cif
_cod_data_source_block           oxdp25_NiZn14
_cod_depositor_comments
'Adding full bibliography for 7156219--7156223.cif.'
_cod_database_code               7156221
_shelx_shelxl_version_number     2018/1
_shelx_space_group_comment
;
The symmetry employed for this shelxl refinement is uniquely defined
by the following loop, which should always be used as a source of
symmetry information in preference to the above space-group names.
They are only intended as comments.
;
_shelx_estimated_absorpt_t_min   0.938
_shelx_estimated_absorpt_t_max   0.996
_shelx_res_file
;
TITL oxdp25 in P-1
    oxdp25.res
    created by SHELXL-2018/1 at 14:02:50 on 05-Feb-2018
CELL 0.6932   14.218  20.122  21.975  69.445  72.044  82.393
ZERR    2.00   0.005   0.006   0.007   0.003   0.003   0.003
LATT  1
SFAC C H N S NI ZN O
DISP C 0.003 0.002 10.979
DISP H -0 0 0.623
DISP N 0.006 0.003 18.591
DISP NI 0.358 1.075 4276.807
DISP O 0.011 0.006 30.656
DISP S 0.119 0.118 497.965
DISP ZN 0.324 1.403 5494.818
UNIT 206 218 18 4 2 2 2

TEMP -123
SIZE 0.15 0.08 0.01

L.S. 12 0 151
ACTA
BOND $H
CONF
FMAP 2
PLAN 10

RIGU 0.02
SIMU 0.02
RIGU $C 0.01
SIMU $C 0.01

rem EXTI    0.000000
ABIN
SAME 0.01 NI2 > N2B N3 N4 C1B > C9B C10 > C42 C43B > S2B C46 > C103
WGHT    0.169700    5.531500
FVAR       0.14166   0.62607   0.51125   0.26288   0.32710   0.07867   0.81833
PART   1
NI1   5    1.032287    0.578468    0.225074    21.00000    0.26391    0.03733 =
         0.08482   -0.01029    0.01308   -0.00162
N1A   3    1.077621    0.657454    0.141927    21.00000    0.22908    0.06860 =
         0.07595   -0.02368    0.00417   -0.02576
N2A   3    1.127371    0.517132    0.186208    21.00000    0.23114    0.07665 =
         0.09600   -0.03334    0.02651   -0.02767
PART   0
N3    3    0.978199    0.499043    0.305724    11.00000    0.13902    0.04773 =
         0.07907   -0.02139   -0.02184   -0.01779
N4    3    0.927409    0.639453    0.262526    11.00000    0.14977    0.04536 =
         0.05915   -0.01247   -0.02223   -0.02114
PART   1
C1A   1    1.052406    0.727732    0.132447    21.00000    0.21093    0.06476 =
         0.07294   -0.01534   -0.00291   -0.02835
C2A   1    1.111644    0.770142    0.065947    21.00000    0.22117    0.07627 =
         0.08061   -0.02025    0.00361   -0.02811
AFIX  43
H2A   2    1.114599    0.820457    0.048603    21.00000   -1.20000
AFIX   0
C3A   1    1.160060    0.725828    0.034576    21.00000    0.22966    0.08528 =
         0.08831   -0.02481    0.00720   -0.03284
AFIX  43
H3A   2    1.201958    0.738945   -0.010582    21.00000   -1.20000
AFIX   0
C4A   1    1.139494    0.653746    0.079715    21.00000    0.23374    0.08369 =
         0.09450   -0.03803    0.01225   -0.03148
C5A   1    1.183113    0.591670    0.065253    21.00000    0.23988    0.09606 =
         0.10692   -0.04635    0.01046   -0.03351
C6A   1    1.187563    0.529334    0.120726    21.00000    0.23154    0.08921 =
         0.11314   -0.04901    0.01386   -0.02588
C7A   1    1.238891    0.469503    0.109486    21.00000    0.22131    0.09107 =
         0.12100   -0.05405    0.01274   -0.02899
AFIX  43
H7A   2    1.271213    0.463134    0.067018    21.00000   -1.20000
AFIX   0
C8A   1    1.232915    0.417912    0.176990    21.00000    0.21019    0.08312 =
         0.12102   -0.05481    0.01463   -0.02407
AFIX  43
H8A   2    1.272394    0.376247    0.189539    21.00000   -1.20000
AFIX   0
C9A   1    1.152020    0.446613    0.219211    21.00000    0.19417    0.06981 =
         0.11489   -0.05585    0.00736   -0.02902
PART   0
C10   1    1.104918    0.410082    0.282598    11.00000    0.15129    0.06408 =
         0.11316   -0.05009   -0.01269   -0.02849
C11   1    1.026606    0.432889    0.323462    11.00000    0.13269    0.05224 =
         0.09343   -0.03661   -0.02205   -0.01639
C12   1    0.971112    0.389859    0.387748    11.00000    0.12931    0.04118 =
         0.09296   -0.01743   -0.03204   -0.01134
AFIX  43
H12   2    0.987736    0.342464    0.411309    11.00000   -1.20000
AFIX   0
C13   1    0.890267    0.428011    0.409776    11.00000    0.12425    0.03595 =
         0.08569   -0.01514   -0.03407   -0.00594
AFIX  43
H13   2    0.839427    0.412369    0.451159    11.00000   -1.20000
AFIX   0
C14   1    0.895953    0.496293    0.358932    11.00000    0.12334    0.03932 =
         0.06779   -0.01593   -0.02524   -0.01809
C15   1    0.830965    0.552431    0.366228    11.00000    0.11894    0.03427 =
         0.07301   -0.01279   -0.03631   -0.01334
C16   1    0.849867    0.620757    0.321595    11.00000    0.12395    0.03920 =
         0.06300   -0.01199   -0.03545   -0.00816
C17   1    0.795004    0.682263    0.333060    11.00000    0.11454    0.04176 =
         0.07454   -0.00561   -0.02999   -0.00206
AFIX  43
H17   2    0.738968    0.683401    0.369953    11.00000   -1.20000
AFIX   0
C18   1    0.839131    0.738312    0.280760    11.00000    0.12693    0.04151 =
         0.07465   -0.00660   -0.03155   -0.00926
AFIX  43
H18   2    0.819030    0.786679    0.274116    11.00000   -1.20000
AFIX   0
C19   1    0.919402    0.713425    0.237917    11.00000    0.14350    0.03772 =
         0.06492   -0.00955   -0.02298   -0.00999
C20   1    0.977034    0.754946    0.175834    11.00000    0.17838    0.04920 =
         0.06917   -0.01228   -0.02080   -0.02373
ZN    6    0.395651    0.494208    0.674185    11.00000    0.10137    0.04392 =
         0.08368   -0.01763   -0.04263   -0.00596
N5    3    0.502870    0.428918    0.636127    11.00000    0.08927    0.03025 =
         0.06991   -0.00938   -0.03952   -0.00236
N6    3    0.330101    0.406280    0.751044    11.00000    0.10630    0.05288 =
         0.07825   -0.01935   -0.03474    0.00263
N7    3    0.268821    0.553088    0.701500    11.00000    0.10947    0.04962 =
         0.09113   -0.02769   -0.03767    0.00662
N8    3    0.441310    0.572807    0.583249    11.00000    0.08790    0.03772 =
         0.07437   -0.02049   -0.03932    0.00048
C21   1    0.582909    0.449328    0.581458    11.00000    0.08507    0.02762 =
         0.07756   -0.01138   -0.04232    0.00106
C22   1    0.653902    0.391305    0.579609    11.00000    0.08558    0.03852 =
         0.08370   -0.00874   -0.03949   -0.00166
AFIX  43
H22   2    0.716895    0.392610    0.547597    11.00000   -1.20000
AFIX   0
C23   1    0.613024    0.335390    0.632067    11.00000    0.08501    0.03476 =
         0.08030   -0.00641   -0.04069    0.00330
AFIX  43
H23   2    0.641865    0.288948    0.643815    11.00000   -1.20000
AFIX   0
C24   1    0.518550    0.357154    0.667588    11.00000    0.08300    0.03526 =
         0.07292   -0.00950   -0.04263    0.00170
C25   1    0.449697    0.313865    0.723958    11.00000    0.08950    0.04275 =
         0.07069   -0.00903   -0.03958   -0.00771
C26   1    0.363239    0.336485    0.762466    11.00000    0.09744    0.05738 =
         0.07396   -0.01194   -0.03269   -0.00768
C27   1    0.295228    0.292066    0.822907    11.00000    0.11644    0.06320 =
         0.09005   -0.01129   -0.02778   -0.01025
AFIX  43
H27   2    0.300021    0.241861    0.841862    11.00000   -1.20000
AFIX   0
C28   1    0.225227    0.334152    0.846898    11.00000    0.13495    0.07245 =
         0.09666   -0.01984   -0.01637   -0.01016
AFIX  43
H28   2    0.171677    0.319840    0.886881    11.00000   -1.20000
AFIX   0
C29   1    0.244981    0.404977    0.801664    11.00000    0.12599    0.06610 =
         0.08623   -0.02119   -0.01784   -0.00710
C30   1    0.186316    0.466230    0.806897    11.00000    0.14284    0.07609 =
         0.09958   -0.03428   -0.00807   -0.00561
C31   1    0.195853    0.534802    0.760179    11.00000    0.12711    0.06297 =
         0.09324   -0.03225   -0.01832   -0.00151
C32   1    0.128018    0.591463    0.763588    11.00000    0.13568    0.07343 =
         0.11183   -0.04222   -0.01422   -0.00526
AFIX  43
H32   2    0.070311    0.591524    0.799725    11.00000   -1.20000
AFIX   0
C33   1    0.160270    0.646181    0.705591    11.00000    0.12554    0.06725 =
         0.11212   -0.03984   -0.03203    0.00406
AFIX  43
H33   2    0.128702    0.691616    0.693412    11.00000   -1.20000
AFIX   0
C34   1    0.249917    0.623480    0.666121    11.00000    0.10986    0.05128 =
         0.10049   -0.03881   -0.03523    0.00562
C35   1    0.307595    0.662066    0.602364    11.00000    0.09618    0.04577 =
         0.09903   -0.02950   -0.04995    0.00632
C36   1    0.393833    0.639799    0.563137    11.00000    0.08857    0.04269 =
         0.08543   -0.01778   -0.04415   -0.00403
C37   1    0.451080    0.680756    0.498497    11.00000    0.09259    0.03670 =
         0.09451   -0.01333   -0.04848   -0.00143
AFIX  43
H37   2    0.435614    0.728009    0.473828    11.00000   -1.20000
AFIX   0
C38   1    0.531873    0.641384    0.477475    11.00000    0.09148    0.03576 =
         0.08949   -0.01026   -0.04534   -0.00484
AFIX  43
H38   2    0.582889    0.654971    0.435961    11.00000   -1.20000
AFIX   0
C39   1    0.523240    0.574503    0.531938    11.00000    0.08875    0.03110 =
         0.07708   -0.01225   -0.04331   -0.00304
C40   1    0.593128    0.517852    0.531447    11.00000    0.08888    0.03310 =
         0.07401   -0.01048   -0.04270   -0.00564
C41   1    0.748565    0.539572    0.424360    11.00000    0.09609    0.02848 =
         0.07331   -0.00885   -0.04109   -0.00325
C42   1    0.678843    0.529224    0.473986    11.00000    0.09375    0.02622 =
         0.07483   -0.00883   -0.04217    0.00005
PART   1
SAME 0.01 C43A C45A C44A S2A S1A
C43A  1    1.245542    0.595158   -0.004418    21.00000    0.25348    0.11393 =
         0.11499   -0.05451    0.00406   -0.03078
AFIX  13
H43A  2    1.231904    0.643969   -0.033761    21.00000   -1.20000
AFIX   0
C44A  1    1.323458    0.528074   -0.093133    21.00000    0.31519    0.19276 =
         0.17397   -0.08395   -0.00390   -0.01813
AFIX  23
H44A  2    1.326151    0.479509   -0.095285    21.00000   -1.20000
H44B  2    1.327593    0.562311   -0.138986    21.00000   -1.20000
AFIX   0
C45A  1    1.400917    0.536508   -0.072737    21.00000    0.30808    0.19140 =
         0.17488   -0.07959   -0.00131   -0.01563
AFIX  23
H45A  2    1.456114    0.558187   -0.112981    21.00000   -1.20000
H45B  2    1.424258    0.489469   -0.047168    21.00000   -1.20000
AFIX   0
S1A   4    1.216977    0.541416   -0.038782    21.00000    0.32746    0.17671 =
         0.17457   -0.07464   -0.01607   -0.02882
S2A   4    1.368608    0.587980   -0.023912    21.00000    0.26617    0.15624 =
         0.14209   -0.06248    0.02219   -0.01018
PART   0
C46   1    1.149166    0.336872    0.313251    11.00000    0.12564    0.06953 =
         0.13749   -0.05867   -0.03273   -0.01341
C47   1    1.134476    0.280130    0.295680    11.00000    0.11875    0.07351 =
         0.14581   -0.05925   -0.05114   -0.00263
AFIX  43
H47   2    1.104199    0.287385    0.260796    11.00000   -1.20000
AFIX   0
C48   1    1.164709    0.212468    0.329866    11.00000    0.11751    0.06746 =
         0.16850   -0.06780   -0.06302    0.00858
C49   1    1.210664    0.201707    0.380605    11.00000    0.11784    0.08813 =
         0.17698   -0.06700   -0.07448    0.01142
AFIX  43
H49   2    1.231667    0.155100    0.402931    11.00000   -1.20000
AFIX   0
C50   1    1.226236    0.258313    0.399047    11.00000    0.12170    0.10501 =
         0.17959   -0.07059   -0.07275   -0.00113
C51   1    1.194994    0.324816    0.364647    11.00000    0.12323    0.09170 =
         0.16111   -0.06591   -0.04976   -0.01965
AFIX  43
H51   2    1.204824    0.364193    0.376131    11.00000   -1.20000
AFIX   0
SAME 0.02 C52 C54 C55 C53
SAME 0.02 C52 C55 < C53
SAME 0.02 C56 > C59
SAME 0.02 C66 > C69
SAME 0.02 C70 > C73
SAME 0.02 C80 > C83
SAME 0.02 C84 > C87
SAME 0.02 C94 > C97
SAME 0.02 C98 > C101
SAME 0.02 C52 C53B > C55B
SAME 0.02 C66 C67B > C69B
SAME 0.02 C80 C81B > C83B
SAME 0.02 C94 C95B > C97B
SAME 0.02 C98 C99B > C10B
C52   1    1.143613    0.148502    0.312774    11.00000    0.14676    0.07893 =
         0.18196   -0.07882   -0.06272    0.00419
PART 1
C53   1    1.075800    0.096755    0.375867    31.00000    0.15611    0.08899 =
         0.20949   -0.07825   -0.05492   -0.02112
AFIX  33
H53A  2    1.105826    0.082569    0.413317    31.00000   -1.50000
H53B  2    1.011315    0.120099    0.388706    31.00000   -1.50000
H53C  2    1.067036    0.054613    0.365793    31.00000   -1.50000
AFIX   0
C54   1    1.093756    0.169028    0.255926    31.00000    0.17943    0.10256 =
         0.19449   -0.09100   -0.07101   -0.00794
AFIX  33
H54A  2    1.135340    0.202108    0.214861    31.00000   -1.50000
H54B  2    1.084854    0.126321    0.246792    31.00000   -1.50000
H54C  2    1.029133    0.191806    0.269705    31.00000   -1.50000
AFIX   0
C55   1    1.240107    0.105431    0.293399    31.00000    0.16901    0.09072 =
         0.20816   -0.08381   -0.03592    0.00623
AFIX  33
H55A  2    1.272777    0.091950    0.329473    31.00000   -1.50000
H55B  2    1.224243    0.062554    0.287489    31.00000   -1.50000
H55C  2    1.284358    0.134535    0.250978    31.00000   -1.50000
AFIX   0
PART 0
C56   1    1.269604    0.247292    0.457259    11.00000    0.13386    0.15339 =
         0.19256   -0.08319   -0.08666   -0.00466
C57   1    1.371611    0.214902    0.438504    11.00000    0.16079    0.24901 =
         0.20517   -0.10589   -0.09194    0.04149
AFIX  33
H57A  2    1.402717    0.206765    0.474675    11.00000   -1.50000
H57B  2    1.366789    0.169600    0.432463    11.00000   -1.50000
H57C  2    1.411707    0.247263    0.396168    11.00000   -1.50000
AFIX   0
C58   1    1.205436    0.197530    0.524876    11.00000    0.16948    0.20550 =
         0.19790   -0.06629   -0.09582   -0.02147
AFIX  33
H58A  2    1.139344    0.219227    0.536462    11.00000   -1.50000
H58B  2    1.199958    0.151752    0.519954    11.00000   -1.50000
H58C  2    1.236449    0.190157    0.560948    11.00000   -1.50000
AFIX   0
C59   1    1.273625    0.316365    0.470356    11.00000    0.20588    0.19563 =
         0.21648   -0.11180   -0.09276   -0.03045
AFIX  33
H59A  2    1.206495    0.336357    0.482439    11.00000   -1.50000
H59B  2    1.302910    0.306782    0.507651    11.00000   -1.50000
H59C  2    1.314050    0.350304    0.429387    11.00000   -1.50000
AFIX   0
C60   1    0.952129    0.833604    0.157443    11.00000    0.14494    0.05079 =
         0.07271   -0.00048   -0.03836   -0.02493
C61   1    0.899023    0.864127    0.110813    11.00000    0.14594    0.07279 =
         0.07668    0.01182   -0.04551   -0.05327
AFIX  43
H61   2    0.885239    0.836911    0.087075    11.00000   -1.20000
AFIX   0
C62   1    0.865630    0.934503    0.098442    11.00000    0.11696    0.08451 =
         0.09482    0.02130   -0.05715   -0.04083
C63   1    0.889089    0.972773    0.132111    11.00000    0.09458    0.05867 =
         0.10080    0.01152   -0.04689   -0.01306
AFIX  43
H63   2    0.866492    1.020883    0.123415    11.00000   -1.20000
AFIX   0
C64   1    0.944495    0.944996    0.178625    11.00000    0.09067    0.04471 =
         0.09348   -0.00734   -0.04458   -0.00246
C65   1    0.975979    0.873930    0.189323    11.00000    0.11125    0.04706 =
         0.07696   -0.00645   -0.04768   -0.00277
AFIX  43
H65   2    1.015164    0.852925    0.219668    11.00000   -1.20000
AFIX   0
C66   1    0.805643    0.965975    0.047226    11.00000    0.11846    0.12337 =
         0.11000    0.02008   -0.06511   -0.04065
PART 1
C67   1    0.758336    1.033912    0.064669    41.00000    0.11632    0.14905 =
         0.10751    0.01631   -0.06242   -0.02340
AFIX  33
H67A  2    0.716609    1.020209    0.111673    41.00000   -1.50000
H67B  2    0.810755    1.064491    0.059035    41.00000   -1.50000
H67C  2    0.717927    1.059714    0.034257    41.00000   -1.50000
AFIX   0
C68   1    0.868191    0.990267   -0.024843    41.00000    0.12560    0.13485 =
         0.10465    0.01309   -0.06880   -0.03299
AFIX  33
H68A  2    0.922803    1.017987   -0.028811    41.00000   -1.50000
H68B  2    0.894917    0.948870   -0.039003    41.00000   -1.50000
H68C  2    0.827798    1.019848   -0.053895    41.00000   -1.50000
AFIX   0
C69   1    0.719121    0.922392    0.056536    41.00000    0.12121    0.14865 =
         0.12388    0.01765   -0.07606   -0.03390
AFIX  33
H69A  2    0.680010    0.907488    0.104191    41.00000   -1.50000
H69B  2    0.677334    0.951339    0.028252    41.00000   -1.50000
H69C  2    0.744453    0.880361    0.043143    41.00000   -1.50000
AFIX   0
PART 0
C70   1    0.969131    0.986339    0.216693    11.00000    0.09770    0.06130 =
         0.12760   -0.03659   -0.05187    0.00901
C71   1    1.081464    0.987729    0.202341    11.00000    0.12156    0.12593 =
         0.20222   -0.09425   -0.07093    0.01126
AFIX  33
H71A  2    1.096794    1.014763    0.227343    11.00000   -1.50000
H71B  2    1.107987    0.939044    0.216811    11.00000   -1.50000
H71C  2    1.111482    1.010270    0.153686    11.00000   -1.50000
AFIX   0
C72   1    0.924244    0.949571    0.292538    11.00000    0.16392    0.10220 =
         0.13438   -0.05591   -0.06724    0.01495
AFIX  33
H72A  2    0.939796    0.976035    0.317949    11.00000   -1.50000
H72B  2    0.852318    0.948021    0.302481    11.00000   -1.50000
H72C  2    0.951835    0.901080    0.305817    11.00000   -1.50000
AFIX   0
C73   1    0.926481    1.062682    0.198591    11.00000    0.15032    0.06689 =
         0.18428   -0.04293   -0.06116    0.00733
AFIX  33
H73A  2    0.944236    1.087609    0.224452    11.00000   -1.50000
H73B  2    0.953686    1.087473    0.150018    11.00000   -1.50000
H73C  2    0.854308    1.061678    0.209752    11.00000   -1.50000
AFIX   0
C74   1    0.474355    0.235226    0.742788    11.00000    0.08348    0.04718 =
         0.06842    0.00157   -0.03786   -0.00946
C75   1    0.451912    0.196760    0.708750    11.00000    0.08861    0.03956 =
         0.07562   -0.00167   -0.04080   -0.00153
AFIX  43
H75   2    0.419084    0.220203    0.674918    11.00000   -1.20000
AFIX   0
C76   1    0.475630    0.123994    0.722018    11.00000    0.08503    0.04082 =
         0.07997   -0.00050   -0.03235   -0.00662
C77   1    0.523469    0.092409    0.771839    11.00000    0.08582    0.04879 =
         0.08398    0.00689   -0.03645   -0.00304
AFIX  43
H77   2    0.541266    0.043353    0.781847    11.00000   -1.20000
AFIX   0
C78   1    0.546211    0.129439    0.807416    11.00000    0.09265    0.06482 =
         0.08014    0.00562   -0.04351    0.00181
C79   1    0.520421    0.201554    0.792887    11.00000    0.09227    0.05687 =
         0.07770   -0.00343   -0.04132   -0.00646
AFIX  43
H79   2    0.534628    0.227526    0.817565    11.00000   -1.20000
AFIX   0
C80   1    0.449230    0.081329    0.685032    11.00000    0.10343    0.04423 =
         0.10359   -0.01557   -0.04200   -0.00567
PART 1
C81   1    0.492201    0.118356    0.609554    51.00000    0.13118    0.06517 =
         0.10289   -0.03161   -0.04545   -0.01575
AFIX  33
H81A  2    0.464035    0.166718    0.596808    51.00000   -1.50000
H81B  2    0.564198    0.120279    0.598868    51.00000   -1.50000
H81C  2    0.476093    0.091960    0.584292    51.00000   -1.50000
AFIX   0
C82   1    0.489152    0.006416    0.708554    51.00000    0.12045    0.05526 =
         0.12614   -0.02960   -0.04837    0.00664
AFIX  33
H82A  2    0.472380   -0.021495    0.684870    51.00000   -1.50000
H82B  2    0.561197    0.006921    0.698630    51.00000   -1.50000
H82C  2    0.459852   -0.014920    0.757467    51.00000   -1.50000
AFIX   0
C83   1    0.336674    0.081580    0.702551    51.00000    0.10987    0.07685 =
         0.11781   -0.02535   -0.05063   -0.01816
AFIX  33
H83A  2    0.311374    0.130493    0.687074    51.00000   -1.50000
H83B  2    0.317425    0.053386    0.680119    51.00000   -1.50000
H83C  2    0.308938    0.061022    0.751712    51.00000   -1.50000
AFIX   0
PART 0
C84   1    0.602157    0.095265    0.862180    11.00000    0.11303    0.09508 =
         0.09567    0.01134   -0.06111    0.00426
C85   1    0.622234    0.015914    0.873596    11.00000    0.18041    0.10009 =
         0.14272    0.01140   -0.10245    0.03241
AFIX  33
H85A  2    0.662106    0.008955    0.831017    11.00000   -1.50000
H85B  2    0.658155   -0.003990    0.907890    11.00000   -1.50000
H85C  2    0.559312   -0.008102    0.889200    11.00000   -1.50000
AFIX   0
C86   1    0.540176    0.104430    0.929086    11.00000    0.14335    0.14479 =
         0.08618    0.00951   -0.06849   -0.00235
AFIX  33
H86A  2    0.526528    0.155079    0.922752    11.00000   -1.50000
H86B  2    0.477642    0.079997    0.944428    11.00000   -1.50000
H86C  2    0.576485    0.084110    0.963117    11.00000   -1.50000
AFIX   0
C87   1    0.701046    0.133335    0.838048    11.00000    0.11672    0.13490 =
         0.13730    0.00748   -0.08241    0.00017
AFIX  33
H87A  2    0.740781    0.127366    0.795010    11.00000   -1.50000
H87B  2    0.687822    0.184013    0.831722    11.00000   -1.50000
H87C  2    0.737287    0.112782    0.872097    11.00000   -1.50000
AFIX   0
C88   1    0.272533    0.736759    0.569561    11.00000    0.09832    0.04637 =
         0.10365   -0.02842   -0.04896    0.00357
C89   1    0.294973    0.791861    0.586276    11.00000    0.09809    0.05319 =
         0.12483   -0.04027   -0.05285    0.00788
AFIX  43
H89   2    0.329797    0.782130    0.619195    11.00000   -1.20000
AFIX   0
C90   1    0.266511    0.862033    0.554815    11.00000    0.09836    0.05058 =
         0.14332   -0.04794   -0.05626    0.01005
C91   1    0.218269    0.874407    0.506469    11.00000    0.10122    0.04412 =
         0.13983   -0.03310   -0.05633    0.00984
AFIX  43
H91   2    0.200373    0.922005    0.484414    11.00000   -1.20000
AFIX   0
C92   1    0.193885    0.819992    0.487842    11.00000    0.09605    0.04433 =
         0.12065   -0.02812   -0.05276    0.00568
C93   1    0.222765    0.751171    0.522313    11.00000    0.10355    0.04212 =
         0.10880   -0.03000   -0.05146    0.00184
AFIX  43
H93   2    0.206764    0.712631    0.512158    11.00000   -1.20000
AFIX   0
C94   1    0.140179    0.837253    0.434064    11.00000    0.10247    0.05593 =
         0.12281   -0.02410   -0.05510    0.00093
PART 1
C95   1    0.219779    0.829502    0.371538    61.00000    0.12429    0.06712 =
         0.12110   -0.02083   -0.05605    0.00299
AFIX  33
H95A  2    0.190507    0.839927    0.334112    61.00000   -1.50000
H95B  2    0.272617    0.862782    0.358467    61.00000   -1.50000
H95C  2    0.247229    0.780829    0.381961    61.00000   -1.50000
AFIX   0
C96   1    0.094380    0.912254    0.415091    61.00000    0.11435    0.07226 =
         0.13078   -0.01828   -0.05911    0.00564
AFIX  33
H96A  2    0.061461    0.918524    0.380205    61.00000   -1.50000
H96B  2    0.045901    0.919169    0.455293    61.00000   -1.50000
H96C  2    0.146442    0.947110    0.397623    61.00000   -1.50000
AFIX   0
C97   1    0.060703    0.783133    0.454178    61.00000    0.11094    0.07284 =
         0.12968   -0.02574   -0.06337   -0.00024
AFIX  33
H97A  2    0.027157    0.795452    0.418663    61.00000   -1.50000
H97B  2    0.091591    0.735648    0.459848    61.00000   -1.50000
H97C  2    0.012424    0.783613    0.496915    61.00000   -1.50000
AFIX   0
PART 0
C98   1    0.294196    0.922615    0.573268    11.00000    0.12988    0.06334 =
         0.17082   -0.06509   -0.06274    0.00763
PART 1
C99   1    0.406639    0.920916    0.561718    71.00000    0.13290    0.07398 =
         0.17347   -0.05808   -0.05526   -0.02362
AFIX  33
H99A  2    0.427775    0.874007    0.587762    71.00000   -1.50000
H99B  2    0.440330    0.930442    0.513427    71.00000   -1.50000
H99C  2    0.423498    0.957215    0.576603    71.00000   -1.50000
AFIX   0
C100  1    0.248305    0.906942    0.649091    71.00000    0.14411    0.09301 =
         0.18313   -0.08928   -0.05197    0.00115
AFIX  33
H10A  2    0.270113    0.859504    0.673557    71.00000   -1.50000
H10B  2    0.269199    0.942354    0.663212    71.00000   -1.50000
H10C  2    0.176057    0.908878    0.659326    71.00000   -1.50000
AFIX   0
C101  1    0.263021    0.995683    0.532505    71.00000    0.18803    0.06870 =
         0.20760   -0.06092   -0.09029    0.00432
AFIX  33
H10D  2    0.293984    1.003757    0.484103    71.00000   -1.50000
H10E  2    0.190915    0.998474    0.541616    71.00000   -1.50000
H10F  2    0.284056    1.031951    0.545502    71.00000   -1.50000
AFIX   0
PART 0
N9    3    0.048384    0.450035    0.917494    11.00000    0.26463    0.16780 =
         0.14705   -0.02609    0.06460    0.00209
C102  1    0.106299    0.458227    0.869428    11.00000    0.18306    0.09323 =
         0.12875   -0.02755    0.02632   -0.00334
O1    7    0.476111    0.527724    0.727466    11.00000    0.13923    0.19566 =
         0.14112   -0.07852   -0.04020   -0.04299
AFIX  43
H1    2    0.438887    0.549956    0.759434    11.00000   -1.20000
AFIX   0
C103  1    0.570808    0.519897    0.719249    11.00000    0.21571    0.44817 =
         0.25378   -0.13853   -0.07067   -0.13936
AFIX  33
H10G  2    0.588692    0.539382    0.749149    11.00000   -1.50000
H10H  2    0.589456    0.469299    0.730368    11.00000   -1.50000
H10I  2    0.605786    0.545099    0.672026    11.00000   -1.50000
AFIX   0
PART   2
NI2   5    1.010837    0.577932    0.219352   -21.00000    0.13886    0.07395 =
         0.06469   -0.04339   -0.00501   -0.05939
PART   2
N1B   3    1.039771    0.655973    0.134411   -21.00000    0.21026    0.06976 =
         0.07394   -0.04008   -0.00707   -0.05491
N2B   3    1.099114    0.513899    0.179809   -21.00000    0.20224    0.07030 =
         0.09298   -0.05837   -0.00234   -0.05131
C1B   1    1.019876    0.726637    0.124389   -21.00000    0.20903    0.06827 =
         0.07244   -0.01796   -0.00576   -0.03395
C2B   1    1.058756    0.769628    0.053727   -21.00000    0.21893    0.07573 =
         0.07807   -0.02177   -0.00137   -0.03775
AFIX  43
H2B   2    1.058049    0.819963    0.034977   -21.00000   -1.20000
AFIX   0
C3B   1    1.094896    0.723978    0.021601   -21.00000    0.22872    0.08234 =
         0.08460   -0.03382    0.00345   -0.03766
AFIX  43
H3B   2    1.127014    0.735786   -0.025544   -21.00000   -1.20000
AFIX   0
C4B   1    1.078170    0.652614    0.069307   -21.00000    0.23423    0.08786 =
         0.09387   -0.03758    0.00755   -0.03687
C5B   1    1.116717    0.587942    0.058631   -21.00000    0.24195    0.09671 =
         0.10689   -0.05200    0.00866   -0.03345
C6B   1    1.138377    0.527495    0.110631   -21.00000    0.22998    0.08724 =
         0.11116   -0.05569    0.01115   -0.03494
C7B   1    1.187265    0.467654    0.098408   -21.00000    0.22116    0.08943 =
         0.12194   -0.05867    0.01460   -0.03083
AFIX  43
H7B   2    1.211646    0.460617    0.055655   -21.00000   -1.20000
AFIX   0
C8B   1    1.194701    0.416635    0.163924   -21.00000    0.20395    0.08069 =
         0.11817   -0.06277    0.00790   -0.03426
AFIX  43
H8B   2    1.233390    0.373823    0.171340   -21.00000   -1.20000
AFIX   0
C9B   1    1.131120    0.445178    0.214361   -21.00000    0.18932    0.07324 =
         0.11351   -0.05775    0.00160   -0.03407
C43B  1    1.154836    0.596060   -0.015190   -21.00000    0.25939    0.11630 =
         0.12008   -0.05867    0.00433   -0.03183
AFIX  13
H43B  2    1.100954    0.622424   -0.035293   -21.00000   -1.20000
AFIX   0
C44B  1    1.257502    0.535660   -0.105339   -21.00000    0.31508    0.19081 =
         0.16687   -0.08509   -0.00847   -0.02064
AFIX  23
H44C  2    1.299171    0.492223   -0.105740   -21.00000   -1.20000
H44D  2    1.225974    0.548252   -0.142442   -21.00000   -1.20000
AFIX   0
C45B  1    1.314600    0.589686   -0.115140   -21.00000    0.31285    0.19218 =
         0.17135   -0.08065   -0.00282   -0.01962
AFIX  23
H45C  2    1.330110    0.620409   -0.163196   -21.00000   -1.20000
H45D  2    1.377710    0.569987   -0.104931   -21.00000   -1.20000
AFIX   0
S1B   4    1.170606    0.520461   -0.031153   -21.00000    0.30276    0.18151 =
         0.15524   -0.08046   -0.03660   -0.05037
S2B   4    1.257011    0.638016   -0.065740   -21.00000    0.28549    0.16482 =
         0.15309   -0.07525    0.00693   -0.01638
PART 2
C53B  1    1.031843    0.147566    0.323239   -31.00000    0.14725    0.09495 =
         0.20183   -0.07605   -0.06888   -0.02785
AFIX  33
H53D  2    0.996734    0.140030    0.371038   -31.00000   -1.20000
H53E  2    1.009950    0.193040    0.295220   -31.00000   -1.20000
H53F  2    1.017515    0.109031    0.310137   -31.00000   -1.20000
AFIX   0
C54B  1    1.194813    0.160257    0.238364   -31.00000    0.17291    0.09543 =
         0.19639   -0.09776   -0.04959   -0.00537
AFIX  33
H54D  2    1.171883    0.205704    0.210973   -31.00000   -1.20000
H54E  2    1.266499    0.160959    0.230182   -31.00000   -1.20000
H54F  2    1.179142    0.121704    0.225850   -31.00000   -1.20000
AFIX   0
C55B  1    1.177554    0.077899    0.357304   -31.00000    0.17541    0.08452 =
         0.21403   -0.07399   -0.05947    0.01022
AFIX  33
H55D  2    1.143491    0.071556    0.405042   -31.00000   -1.20000
H55E  2    1.161775    0.038839    0.345527   -31.00000   -1.20000
H55F  2    1.249131    0.078094    0.349859   -31.00000   -1.20000
AFIX   0
C67B  1    0.700079    0.973068    0.083684   -41.00000    0.10908    0.16518 =
         0.11616    0.02558   -0.06137   -0.01320
AFIX  33
H67D  2    0.677450    0.927396    0.118108   -41.00000   -1.20000
H67E  2    0.692460    1.009061    0.105607   -41.00000   -1.20000
H67F  2    0.660536    0.987439    0.051443   -41.00000   -1.20000
AFIX   0
C68B  1    0.853234    1.029932   -0.007073   -41.00000    0.10269    0.10287 =
         0.08895    0.01671   -0.05380   -0.00284
AFIX  33
H68D  2    0.922456    1.018393   -0.027097   -41.00000   -1.20000
H68E  2    0.818411    1.046056   -0.042113   -41.00000   -1.20000
H68F  2    0.850335    1.067679    0.012051   -41.00000   -1.20000
AFIX   0
C69B  1    0.805559    0.912670    0.008504   -41.00000    0.16407    0.14118 =
         0.13349   -0.00529   -0.08619   -0.03112
AFIX  33
H69D  2    0.774926    0.868362    0.041163   -41.00000   -1.20000
H69E  2    0.767939    0.934132   -0.024614   -41.00000   -1.20000
H69F  2    0.873760    0.902584   -0.014958   -41.00000   -1.20000
AFIX   0
C81B  1    0.398720    0.124593    0.630619   -51.00000    0.12991    0.07531 =
         0.10262   -0.02395   -0.05626   -0.01314
AFIX  33
H81D  2    0.384185    0.093348    0.609240   -51.00000   -1.20000
H81E  2    0.336949    0.146192    0.651440   -51.00000   -1.20000
H81F  2    0.442643    0.161979    0.596291   -51.00000   -1.20000
AFIX   0
C82B  1    0.540899    0.044655    0.650706   -51.00000    0.11428    0.08309 =
         0.13654   -0.04929   -0.04486   -0.00321
AFIX  33
H82D  2    0.521594    0.017580    0.627291   -51.00000   -1.20000
H82E  2    0.588407    0.080502    0.617855   -51.00000   -1.20000
H82F  2    0.571392    0.012399    0.684992   -51.00000   -1.20000
AFIX   0
C83B  1    0.377503    0.022769    0.736764   -51.00000    0.12353    0.07145 =
         0.13166   -0.01504   -0.04386   -0.03049
AFIX  33
H83D  2    0.360101   -0.005035    0.713231   -51.00000   -1.20000
H83E  2    0.409447   -0.008478    0.770655   -51.00000   -1.20000
H83F  2    0.317431    0.044649    0.759245   -51.00000   -1.20000
AFIX   0
C95B  1    0.114489    0.770718    0.423744   -61.00000    0.12923    0.06989 =
         0.12341   -0.02438   -0.06905   -0.00567
AFIX  33
H95D  2    0.071592    0.740691    0.466286   -61.00000   -1.20000
H95E  2    0.080091    0.785045    0.388531   -61.00000   -1.20000
H95F  2    0.175433    0.744073    0.409845   -61.00000   -1.20000
AFIX   0
C96B  1    0.206006    0.881973    0.367781   -61.00000    0.12938    0.07137 =
         0.12547   -0.01506   -0.05618   -0.00491
AFIX  33
H96D  2    0.172319    0.893616    0.332410   -61.00000   -1.20000
H96E  2    0.220709    0.925881    0.372439   -61.00000   -1.20000
H96F  2    0.267813    0.855513    0.355373   -61.00000   -1.20000
AFIX   0
C97B  1    0.041804    0.877134    0.455331   -61.00000    0.10780    0.09310 =
         0.14050   -0.02891   -0.06298    0.00951
AFIX  33
H97D  2    0.000378    0.847004    0.498493   -61.00000   -1.20000
H97E  2    0.055421    0.921036    0.460515   -61.00000   -1.20000
H97F  2    0.007144    0.888686    0.420490   -61.00000   -1.20000
AFIX   0
C99B  1    0.366530    0.969827    0.509665   -71.00000    0.14671    0.07056 =
         0.18494   -0.06553   -0.05922   -0.01090
AFIX  33
H99D  2    0.339769    0.981538    0.470919   -71.00000   -1.20000
H99E  2    0.375704    1.013643    0.516861   -71.00000   -1.20000
H99F  2    0.430324    0.944460    0.500588   -71.00000   -1.20000
AFIX   0
C10A  1    0.338858    0.905805    0.632097   -71.00000    0.14315    0.08683 =
         0.17907   -0.06885   -0.06035   -0.00464
AFIX  33
H10J  2    0.294146    0.875606    0.673581   -71.00000   -1.20000
H10K  2    0.402858    0.880919    0.622098   -71.00000   -1.20000
H10L  2    0.348238    0.950102    0.638372   -71.00000   -1.20000
AFIX   0
C10B  1    0.201636    0.971604    0.584923   -71.00000    0.14428    0.06785 =
         0.18374   -0.08597   -0.06495   -0.00489
AFIX  33
H10M  2    0.172176    0.982836    0.547479   -71.00000   -1.20000
H10N  2    0.153319    0.947397    0.627645   -71.00000   -1.20000
H10O  2    0.220802    1.015599    0.587023   -71.00000   -1.20000
AFIX   0
HKLF 4




REM  oxdp25 in P-1
REM R1 =  0.1004 for    8508 Fo > 4sig(Fo)  and  0.1556 for all   15633 data
REM   1348 parameters refined using   4477 restraints

END

WGHT      0.1692      5.5631

REM Highest difference peak  1.264,  deepest hole -0.526,  1-sigma level  0.079
Q1    1   1.0641  0.6519 -0.0760  11.00000  0.05    1.26
Q2    1   0.6209  0.5462  0.7529  11.00000  0.05    0.75
Q3    1   0.4580  0.5956  0.7307  11.00000  0.05    0.62
Q4    1   0.4584  0.5067  0.6270  11.00000  0.05    0.60
Q5    1   1.0829  0.5958  0.2476  11.00000  0.05    0.45
Q6    1   1.2510  0.6632 -0.1440  11.00000  0.05    0.45
Q7    1   0.4157  0.5153  0.8092  11.00000  0.05    0.42
Q8    1   0.3251  0.4841  0.7204  11.00000  0.05    0.39
Q9    1   1.0989  0.5805  0.1840  11.00000  0.05    0.38
Q10   1   1.4209  0.2893  0.3831  11.00000  0.05    0.37
;
_shelx_res_checksum              43943
_shelx_fab_file
;
    4    0    0      2.36      0.00
    5    0    0     -3.52      0.00
    6    0    0     -0.25      0.00
    7    0    0     -0.70      0.00
    8    0    0     -1.70      0.00
    9    0    0      0.01      0.00
   10    0    0      1.75      0.00
   11    0    0      0.60      0.00
   12    0    0      0.21      0.00
   13    0    0      0.48      0.00
   14    0    0     -0.06      0.00
   15    0    0     -1.49      0.00
  -15    1    0      0.28      0.00
  -14    1    0     -0.87      0.00
  -13    1    0     -0.87      0.00
  -12    1    0     -0.14      0.00
  -11    1    0     -0.84      0.00
  -10    1    0     -1.17      0.00
   -9    1    0     -0.30      0.00
   -8    1    0     -1.20      0.00
   -7    1    0     -0.91      0.00
   -6    1    0      3.18      0.00
   -5    1    0      4.50      0.00
   -4    1    0      2.01      0.00
    4    1    0     -1.78      0.00
    5    1    0     -8.43      0.00
    6    1    0      1.17      0.00
    7    1    0      0.10      0.00
    8    1    0      1.36      0.00
    9    1    0      0.50      0.00
   10    1    0     -1.32      0.00
   11    1    0      0.02      0.00
   12    1    0      0.99      0.00
   13    1    0      0.07      0.00
   14    1    0      0.81      0.00
   15    1    0      0.80      0.00
  -15    2    0      1.18      0.00
  -14    2    0      0.80      0.00
  -13    2    0      0.27      0.00
  -12    2    0     -0.23      0.00
  -11    2    0     -0.48      0.00
  -10    2    0      0.51      0.00
   -9    2    0      1.25      0.00
   -8    2    0      0.87      0.00
   -7    2    0      1.81      0.00
   -6    2    0     -1.67      0.00
   -5    2    0     -0.35      0.00
   -4    2    0     -2.43      0.00
    3    2    0     16.06      0.00
    4    2    0     11.08      0.00
    5    2    0      2.05      0.00
    6    2    0     -0.99      0.00
    7    2    0      0.70      0.00
    8    2    0      1.37      0.00
    9    2    0     -0.89      0.00
   10    2    0      1.89      0.00
   11    2    0     -0.21      0.00
   12    2    0     -1.54      0.00
   13    2    0      0.84      0.00
   14    2    0      0.28      0.00
   15    2    0     -0.38      0.00
  -14    3    0     -1.34      0.00
  -13    3    0     -1.59      0.00
  -12    3    0      1.39      0.00
  -11    3    0      0.34      0.00
  -10    3    0     -0.92      0.00
   -9    3    0     -0.90      0.00
   -8    3    0      0.68      0.00
   -7    3    0     -2.22      0.00
   -6    3    0     -1.12      0.00
   -5    3    0      3.19      0.00
   -4    3    0     -3.85      0.00
    3    3    0     -0.36      0.00
    4    3    0     -5.34      0.00
    5    3    0      6.57      0.00
    6    3    0     -3.35      0.00
    7    3    0     -2.18      0.00
    8    3    0     -0.10      0.00
    9    3    0     -1.41      0.00
   10    3    0      0.11      0.00
   11    3    0     -0.37      0.00
   12    3    0     -0.60      0.00
   13    3    0     -0.72      0.00
   14    3    0      0.01      0.00
   15    3    0      0.75      0.00
  -14    4    0      1.29      0.00
  -13    4    0      0.33      0.00
  -12    4    0     -0.10      0.00
  -11    4    0      0.88      0.00
  -10    4    0      0.08      0.00
   -9    4    0     -1.99      0.00
   -8    4    0      0.15      0.00
   -7    4    0      1.23      0.00
   -6    4    0     -0.81      0.00
   -5    4    0     -1.08      0.00
   -4    4    0     -0.24      0.00
   -3    4    0      5.29      0.00
   -2    4    0     -3.87      0.00
    2    4    0      6.48      0.00
    3    4    0     -9.20      0.00
    4    4    0     -4.07      0.00
    5    4    0      1.72      0.00
    6    4    0      0.56      0.00
    7    4    0      2.87      0.00
    8    4    0      0.04      0.00
    9    4    0      1.91      0.00
   10    4    0     -0.46      0.00
   11    4    0      0.73      0.00
   12    4    0      0.78      0.00
   13    4    0      0.62      0.00
   14    4    0     -1.93      0.00
  -14    5    0     -0.07      0.00
  -13    5    0      0.29      0.00
  -11    5    0      0.13      0.00
  -10    5    0      0.81      0.00
   -9    5    0      1.13      0.00
   -8    5    0      0.53      0.00
   -7    5    0      2.20      0.00
   -6    5    0      4.30      0.00
   -5    5    0     -2.57      0.00
   -4    5    0     -1.40      0.00
   -3    5    0    -11.97      0.00
   -2    5    0     -6.97      0.00
   -1    5    0      0.58      0.00
    0    5    0      9.26      0.00
    1    5    0    -17.92      0.00
    2    5    0     18.37      0.00
    3    5    0     -3.53      0.00
    4    5    0      0.78      0.00
    5    5    0     -2.14      0.00
    6    5    0     -1.28      0.00
    7    5    0     -0.56      0.00
    8    5    0     -1.73      0.00
    9    5    0      0.26      0.00
   10    5    0     -1.30      0.00
   11    5    0      0.44      0.00
   12    5    0     -0.58      0.00
   13    5    0     -0.36      0.00
   14    5    0      1.34      0.00
  -14    6    0     -0.82      0.00
  -11    6    0     -1.58      0.00
  -10    6    0     -0.16      0.00
   -9    6    0     -0.80      0.00
   -8    6    0     -0.99      0.00
   -7    6    0     -2.78      0.00
   -6    6    0     -1.09      0.00
   -5    6    0      2.16      0.00
   -4    6    0      7.29      0.00
   -3    6    0      9.37      0.00
   -2    6    0      8.15      0.00
   -1    6    0    -12.59      0.00
    0    6    0      3.69      0.00
    1    6    0     -5.62      0.00
    2    6    0     -6.95      0.00
    3    6    0      6.92      0.00
    4    6    0     -1.65      0.00
    5    6    0     -2.57      0.00
    6    6    0      3.19      0.00
    7    6    0     -0.79      0.00
    8    6    0      2.15      0.00
    9    6    0      0.25      0.00
   10    6    0     -0.35      0.00
   11    6    0     -0.52      0.00
   12    6    0      0.18      0.00
   13    6    0      0.36      0.00
   14    6    0     -0.72      0.00
  -14    7    0      1.00      0.00
  -12    7    0      0.27      0.00
  -11    7    0      0.40      0.00
  -10    7    0     -0.29      0.00
   -9    7    0      0.97      0.00
   -8    7    0     -1.10      0.00
   -7    7    0      0.09      0.00
   -6    7    0     -0.72      0.00
   -5    7    0     -2.45      0.00
   -4    7    0     -5.02      0.00
   -3    7    0      0.77      0.00
   -2    7    0     -1.91      0.00
   -1    7    0      1.17      0.00
    0    7    0     -7.08      0.00
    1    7    0      8.47      0.00
    2    7    0    -10.03      0.00
    3    7    0      3.70      0.00
    4    7    0      2.70      0.00
    5    7    0      3.29      0.00
    6    7    0      2.19      0.00
    7    7    0      0.38      0.00
    8    7    0     -1.08      0.00
    9    7    0      0.16      0.00
   10    7    0      1.31      0.00
   11    7    0     -0.41      0.00
   12    7    0      1.24      0.00
   13    7    0      0.27      0.00
   14    7    0      1.27      0.00
  -12    8    0     -1.74      0.00
  -11    8    0      1.80      0.00
  -10    8    0      0.40      0.00
   -9    8    0      1.81      0.00
   -8    8    0      2.15      0.00
   -7    8    0      1.66      0.00
   -6    8    0     -1.14      0.00
   -5    8    0     -0.88      0.00
   -4    8    0     -3.29      0.00
   -3    8    0     -4.06      0.00
   -2    8    0      1.07      0.00
   -1    8    0      1.21      0.00
    0    8    0      3.51      0.00
    1    8    0      5.55      0.00
    2    8    0      4.15      0.00
    3    8    0     -1.17      0.00
    4    8    0     -3.26      0.00
    5    8    0     -4.54      0.00
    6    8    0     -3.18      0.00
    7    8    0      0.19      0.00
    8    8    0     -1.65      0.00
    9    8    0     -0.49      0.00
   10    8    0     -0.27      0.00
   11    8    0     -1.11      0.00
   12    8    0     -1.23      0.00
   13    8    0     -1.40      0.00
   14    8    0     -0.28      0.00
  -12    9    0     -1.01      0.00
  -11    9    0     -1.67      0.00
  -10    9    0     -1.72      0.00
   -9    9    0     -1.31      0.00
   -8    9    0     -0.94      0.00
   -7    9    0     -1.74      0.00
   -6    9    0     -0.01      0.00
   -5    9    0      4.35      0.00
   -4    9    0      3.63      0.00
   -3    9    0      2.44      0.00
   -2    9    0     -0.92      0.00
   -1    9    0      2.00      0.00
    0    9    0     -1.97      0.00
    1    9    0      2.38      0.00
    2    9    0      0.44      0.00
    3    9    0      1.19      0.00
    4    9    0      5.46      0.00
    5    9    0      1.03      0.00
    6    9    0     -0.64      0.00
    7    9    0     -0.10      0.00
    8    9    0      0.87      0.00
    9    9    0     -1.50      0.00
   10    9    0      1.56      0.00
   11    9    0      1.03      0.00
   12    9    0     -1.11      0.00
   13    9    0      0.79      0.00
   -9   10    0     -0.49      0.00
   -8   10    0      0.14      0.00
   -7   10    0      0.71      0.00
   -6   10    0      1.10      0.00
   -5   10    0      1.05      0.00
   -4   10    0     -1.55      0.00
   -3   10    0     -0.22      0.00
   -2   10    0     -0.80      0.00
   -1   10    0     -0.35      0.00
    0   10    0     -4.12      0.00
    1   10    0     -3.53      0.00
    2   10    0     -5.20      0.00
    3   10    0     -8.73      0.00
    4   10    0     -4.97      0.00
    5   10    0      3.45      0.00
    6   10    0      2.09      0.00
    7   10    0      1.03      0.00
    8   10    0      0.58      0.00
    9   10    0      1.15      0.00
   10   10    0     -0.86      0.00
   11   10    0      1.05      0.00
   12   10    0      2.25      0.00
   13   10    0      0.10      0.00
   -9   11    0      1.07      0.00
   -8   11    0      0.96      0.00
   -7   11    0     -0.58      0.00
   -6   11    0     -0.89      0.00
   -5   11    0     -1.06      0.00
   -4   11    0      2.04      0.00
   -3   11    0     -0.31      0.00
   -2   11    0      0.24      0.00
   -1   11    0      0.47      0.00
    0   11    0      0.70      0.00
    1   11    0      1.35      0.00
    2   11    0      7.97      0.00
    3   11    0      6.15      0.00
    4   11    0      0.48      0.00
    5   11    0     -3.15      0.00
    6   11    0     -0.21      0.00
    7   11    0     -0.61      0.00
    8   11    0     -0.46      0.00
    9   11    0     -0.19      0.00
   10   11    0     -2.60      0.00
   11   11    0     -0.50      0.00
   12   11    0     -0.41      0.00
   13   11    0     -0.75      0.00
   -9   12    0     -0.25      0.00
   -8   12    0     -2.43      0.00
   -7   12    0     -0.15      0.00
   -6   12    0     -0.89      0.00
   -5   12    0     -1.19      0.00
   -4   12    0     -2.35      0.00
   -3   12    0     -0.31      0.00
   -2   12    0     -2.43      0.00
   -1   12    0      2.73      0.00
    0   12    0      2.91      0.00
    1   12    0     -2.57      0.00
    2   12    0     -5.89      0.00
    3   12    0      0.55      0.00
    4   12    0      1.55      0.00
    5   12    0      1.72      0.00
    6   12    0     -2.59      0.00
    7   12    0     -1.16      0.00
    8   12    0      0.05      0.00
    9   12    0      1.56      0.00
   10   12    0      1.05      0.00
   11   12    0      0.64      0.00
   12   12    0     -0.20      0.00
   -9   13    0      0.91      0.00
   -8   13    0      0.25      0.00
   -7   13    0      0.44      0.00
   -6   13    0     -1.09      0.00
   -5   13    0     -1.69      0.00
   -4   13    0      2.38      0.00
   -3   13    0      0.36      0.00
   -2   13    0      0.28      0.00
   -1   13    0     -3.65      0.00
    0   13    0      3.99      0.00
    1   13    0      0.32      0.00
    2   13    0      2.38      0.00
    3   13    0     -1.48      0.00
    4   13    0     -0.51      0.00
    5   13    0      0.77      0.00
    6   13    0      1.83      0.00
    7   13    0      2.43      0.00
    8   13    0     -0.80      0.00
    9   13    0     -0.44      0.00
   10   13    0      0.23      0.00
   11   13    0     -1.06      0.00
   12   13    0     -0.19      0.00
  -10   14    0     -0.20      0.00
   -9   14    0     -1.54      0.00
   -8   14    0      2.76      0.00
   -7   14    0      1.07      0.00
   -6   14    0      3.97      0.00
   -5   14    0      1.80      0.00
   -4   14    0      0.71      0.00
   -3   14    0      2.79      0.00
   -2   14    0      0.34      0.00
   -1   14    0      0.33      0.00
    0   14    0     -4.87      0.00
    1   14    0     -1.27      0.00
    2   14    0     -0.93      0.00
    3   14    0      0.46      0.00
    4   14    0      0.72      0.00
    5   14    0     -2.50      0.00
    6   14    0      0.49      0.00
    7   14    0     -1.47      0.00
    8   14    0      0.65      0.00
    9   14    0     -0.40      0.00
   10   14    0      0.74      0.00
   11   14    0      0.21      0.00
  -10   15    0      0.09      0.00
   -9   15    0     -0.24      0.00
   -8   15    0     -1.52      0.00
   -6   15    0     -1.46      0.00
   -5   15    0      0.13      0.00
   -4   15    0     -1.87      0.00
   -3   15    0     -1.89      0.00
   -2   15    0      0.69      0.00
   -1   15    0      1.80      0.00
    0   15    0      1.36      0.00
    1   15    0      2.15      0.00
    2   15    0     -0.56      0.00
    3   15    0      0.04      0.00
    4   15    0     -0.02      0.00
    5   15    0      0.57      0.00
    6   15    0     -0.29      0.00
    7   15    0     -0.41      0.00
    8   15    0      1.42      0.00
    9   15    0     -0.14      0.00
   10   15    0     -0.23      0.00
   -9   16    0     -0.27      0.00
   -8   16    0     -1.83      0.00
   -7   16    0      0.21      0.00
   -6   16    0     -0.80      0.00
   -5   16    0     -1.23      0.00
   -4   16    0      0.13      0.00
   -3   16    0     -3.07      0.00
   -2   16    0      0.91      0.00
   -1   16    0     -3.83      0.00
    0   16    0     -0.33      0.00
    1   16    0      0.00      0.00
    2   16    0      0.28      0.00
    3   16    0      0.11      0.00
    4   16    0      0.41      0.00
    5   16    0      0.73      0.00
    6   16    0     -0.38      0.00
    7   16    0     -0.33      0.00
    8   16    0     -0.25      0.00
    9   16    0     -1.18      0.00
   10   16    0     -0.30      0.00
   -8   17    0      2.21      0.00
   -7   17    0      0.87      0.00
   -6   17    0      1.72      0.00
   -5   17    0     -0.09      0.00
   -4   17    0      1.17      0.00
   -3   17    0      1.26      0.00
   -2   17    0      1.04      0.00
   -1   17    0      2.98      0.00
    0   17    0      0.37      0.00
    1   17    0      0.49      0.00
    2   17    0      0.33      0.00
    3   17    0     -1.26      0.00
    4   17    0      0.61      0.00
    5   17    0     -0.54      0.00
    6   17    0     -0.29      0.00
    7   17    0     -0.45      0.00
    8   17    0     -0.05      0.00
    9   17    0      0.62      0.00
   -7   18    0     -0.26      0.00
   -6   18    0     -0.10      0.00
   -5   18    0     -0.36      0.00
   -4   18    0     -0.87      0.00
   -3   18    0      0.37      0.00
   -2   18    0     -0.52      0.00
   -1   18    0     -1.52      0.00
    0   18    0     -0.36      0.00
    1   18    0     -2.07      0.00
    2   18    0      1.78      0.00
    3   18    0     -0.15      0.00
    4   18    0     -1.65      0.00
    5   18    0      1.29      0.00
    6   18    0      0.46      0.00
    7   18    0      1.52      0.00
    8   18    0     -0.84      0.00
   -6   19    0     -0.64      0.00
   -5   19    0      0.85      0.00
   -4   19    0      0.76      0.00
   -3   19    0     -1.22      0.00
   -2   19    0      0.20      0.00
   -1   19    0      0.37      0.00
    0   19    0      0.64      0.00
    1   19    0      0.17      0.00
    2   19    0     -0.59      0.00
    3   19    0      1.26      0.00
    4   19    0      0.35      0.00
    5   19    0     -0.32      0.00
    6   19    0     -0.12      0.00
   -4   20    0      0.30      0.00
   -3   20    0      1.18      0.00
   -2   20    0      0.41      0.00
   -1   20    0     -0.97      0.00
    0   20    0     -0.99      0.00
    1   20    0      0.71      0.00
    2   20    0     -0.34      0.00
    3   20    0     -0.78      0.00
    4   20    0      0.20      0.00
    5   20    0     -1.90      0.00
    0   21    0      0.70      0.00
    1   21    0      0.07      0.00
   -3  -20    1      0.15      0.00
   -2  -20    1     -1.07      0.00
   -1  -20    1      0.27      0.00
    0  -20    1     -0.42      0.00
    1  -20    1      0.88      0.00
    2  -20    1      2.52      0.00
    3  -20    1     -0.35      0.00
   -6  -19    1     -0.03      0.00
   -5  -19    1      0.60      0.00
   -4  -19    1      0.32      0.00
   -3  -19    1      0.58      0.00
   -2  -19    1      0.88      0.00
   -1  -19    1     -0.71      0.00
    0  -19    1      0.36      0.00
    1  -19    1     -2.49      0.00
    2  -19    1     -0.38      0.00
    3  -19    1     -0.20      0.00
    4  -19    1     -0.08      0.00
    5  -19    1     -0.01      0.00
   -7  -18    1      0.71      0.00
   -6  -18    1      0.16      0.00
   -5  -18    1     -0.33      0.00
   -4  -18    1     -1.02      0.00
   -3  -18    1      0.03      0.00
   -2  -18    1      0.60      0.00
   -1  -18    1     -1.87      0.00
    0  -18    1     -0.34      0.00
    1  -18    1      0.30      0.00
    2  -18    1     -0.15      0.00
    3  -18    1      0.24      0.00
    4  -18    1      1.09      0.00
    5  -18    1      1.25      0.00
    6  -18    1      1.68      0.00
    7  -18    1      0.37      0.00
   -8  -17    1     -1.02      0.00
   -7  -17    1     -0.06      0.00
   -6  -17    1     -0.13      0.00
   -5  -17    1      0.78      0.00
   -4  -17    1     -1.56      0.00
   -3  -17    1     -1.38      0.00
   -2  -17    1      0.22      0.00
   -1  -17    1      1.17      0.00
    0  -17    1     -0.36      0.00
    1  -17    1      0.57      0.00
    2  -17    1      0.20      0.00
    3  -17    1     -1.35      0.00
    4  -17    1     -0.70      0.00
    5  -17    1     -2.56      0.00
    6  -17    1      0.29      0.00
    7  -17    1      0.38      0.00
    8  -17    1      0.88      0.00
   -9  -16    1     -0.65      0.00
   -8  -16    1      0.94      0.00
   -7  -16    1     -0.95      0.00
   -6  -16    1     -1.14      0.00
   -5  -16    1      1.09      0.00
   -4  -16    1      3.04      0.00
   -3  -16    1      1.10      0.00
   -2  -16    1      0.10      0.00
   -1  -16    1      1.87      0.00
    0  -16    1      0.22      0.00
    1  -16    1      1.11      0.00
    2  -16    1      1.75      0.00
    3  -16    1     -0.66      0.00
    4  -16    1     -0.53      0.00
    5  -16    1      0.94      0.00
    6  -16    1     -0.32      0.00
    7  -16    1      0.34      0.00
    8  -16    1     -0.37      0.00
    9  -16    1      0.01      0.00
  -10  -15    1      0.32      0.00
   -9  -15    1     -0.07      0.00
   -8  -15    1      1.60      0.00
   -7  -15    1     -0.29      0.00
   -6  -15    1      0.44      0.00
   -5  -15    1     -1.62      0.00
   -4  -15    1     -0.43      0.00
   -3  -15    1     -0.47      0.00
   -2  -15    1     -1.27      0.00
   -1  -15    1      0.27      0.00
    0  -15    1     -1.82      0.00
    1  -15    1     -1.04      0.00
    2  -15    1     -1.67      0.00
    3  -15    1      0.41      0.00
    4  -15    1      0.18      0.00
    5  -15    1      0.36      0.00
    6  -15    1      1.29      0.00
    7  -15    1     -0.55      0.00
    8  -15    1     -1.79      0.00
    9  -15    1     -0.23      0.00
   10  -15    1     -0.99      0.00
  -11  -14    1     -0.88      0.00
  -10  -14    1     -0.06      0.00
   -9  -14    1      0.68      0.00
   -8  -14    1     -0.54      0.00
   -7  -14    1      0.43      0.00
   -6  -14    1      0.58      0.00
   -5  -14    1     -0.65      0.00
   -4  -14    1     -0.64      0.00
   -3  -14    1     -0.17      0.00
   -2  -14    1     -0.48      0.00
   -1  -14    1     -0.41      0.00
    0  -14    1      1.80      0.00
    1  -14    1      1.48      0.00
    2  -14    1      0.17      0.00
    3  -14    1      1.98      0.00
    4  -14    1     -1.34      0.00
    5  -14    1     -0.01      0.00
    6  -14    1     -0.26      0.00
    7  -14    1     -0.33      0.00
    8  -14    1      2.77      0.00
    9  -14    1     -0.11      0.00
   10  -14    1      0.24      0.00
  -11  -13    1     -0.04      0.00
  -10  -13    1      0.52      0.00
   -9  -13    1      0.16      0.00
   -8  -13    1     -1.07      0.00
   -7  -13    1      1.11      0.00
   -6  -13    1      0.35      0.00
   -5  -13    1      0.42      0.00
   -4  -13    1      0.23      0.00
   -3  -13    1      1.42      0.00
   -2  -13    1      0.11      0.00
   -1  -13    1     -4.03      0.00
    0  -13    1     -2.33      0.00
    1  -13    1     -4.01      0.00
    2  -13    1     -1.46      0.00
    3  -13    1     -0.38      0.00
    4  -13    1      1.69      0.00
    5  -13    1     -0.44      0.00
    6  -13    1     -0.40      0.00
    7  -13    1      1.73      0.00
    8  -13    1     -0.47      0.00
    9  -13    1     -1.45      0.00
  -12  -12    1     -0.29      0.00
  -11  -12    1      0.46      0.00
  -10  -12    1     -0.76      0.00
   -9  -12    1      0.01      0.00
   -8  -12    1     -0.83      0.00
   -7  -12    1     -0.89      0.00
   -6  -12    1     -0.75      0.00
   -5  -12    1      1.80      0.00
   -4  -12    1     -1.38      0.00
   -3  -12    1     -0.09      0.00
   -2  -12    1      1.63      0.00
   -1  -12    1      6.05      0.00
    0  -12    1      7.69      0.00
    1  -12    1      4.11      0.00
    2  -12    1      0.02      0.00
    3  -12    1      0.81      0.00
    4  -12    1      0.86      0.00
    5  -12    1      0.89      0.00
    6  -12    1     -2.19      0.00
    7  -12    1     -1.30      0.00
    8  -12    1     -2.49      0.00
    9  -12    1      2.92      0.00
  -12  -11    1      0.70      0.00
  -11  -11    1      0.15      0.00
  -10  -11    1     -0.58      0.00
   -9  -11    1      1.22      0.00
   -8  -11    1      1.60      0.00
   -7  -11    1     -1.30      0.00
   -6  -11    1     -1.47      0.00
   -5  -11    1     -0.11      0.00
   -4  -11    1      3.07      0.00
   -3  -11    1     -1.50      0.00
   -2  -11    1     -2.98      0.00
   -1  -11    1     -6.71      0.00
    0  -11    1     -3.75      0.00
    1  -11    1      2.16      0.00
    2  -11    1     -1.10      0.00
    3  -11    1      0.96      0.00
    4  -11    1     -4.25      0.00
    5  -11    1     -1.53      0.00
    6  -11    1      0.55      0.00
    7  -11    1      1.76      0.00
    8  -11    1      0.82      0.00
    9  -11    1     -0.31      0.00
  -13  -10    1      0.57      0.00
  -12  -10    1      0.91      0.00
  -11  -10    1     -0.51      0.00
  -10  -10    1     -0.99      0.00
   -9  -10    1     -0.50      0.00
   -8  -10    1      0.29      0.00
   -7  -10    1      2.47      0.00
   -6  -10    1      2.13      0.00
   -5  -10    1     -0.23      0.00
   -4  -10    1     -2.22      0.00
   -3  -10    1      1.77      0.00
   -2  -10    1      3.25      0.00
   -1  -10    1      4.10      0.00
    0  -10    1     -8.77      0.00
    1  -10    1     -1.91      0.00
    2  -10    1     -3.81      0.00
    3  -10    1      0.80      0.00
    4  -10    1      2.74      0.00
    5  -10    1      3.41      0.00
    6  -10    1      0.85      0.00
    8  -10    1     -0.46      0.00
    9  -10    1     -1.17      0.00
  -13   -9    1     -0.14      0.00
  -12   -9    1     -0.68      0.00
  -11   -9    1      1.33      0.00
  -10   -9    1      0.73      0.00
   -9   -9    1     -1.17      0.00
   -8   -9    1     -0.72      0.00
   -7   -9    1     -0.05      0.00
   -6   -9    1     -0.71      0.00
   -5   -9    1      0.04      0.00
   -4   -9    1     -0.77      0.00
   -3   -9    1     -8.10      0.00
   -2   -9    1     -2.83      0.00
   -1   -9    1      2.53      0.00
    0   -9    1      4.01      0.00
    1   -9    1      0.49      0.00
    2   -9    1      3.42      0.00
    3   -9    1      0.34      0.00
    4   -9    1      1.45      0.00
    5   -9    1      0.53      0.00
    6   -9    1     -0.57      0.00
    7   -9    1     -0.03      0.00
    8   -9    1      1.93      0.00
    9   -9    1      0.53      0.00
   10   -9    1     -0.83      0.00
   11   -9    1      0.02      0.00
  -13   -8    1     -0.23      0.00
  -12   -8    1     -1.67      0.00
  -11   -8    1      0.16      0.00
  -10   -8    1      1.58      0.00
   -9   -8    1     -0.68      0.00
   -8   -8    1     -1.54      0.00
   -7   -8    1     -1.83      0.00
   -6   -8    1     -2.21      0.00
   -5   -8    1     -2.13      0.00
   -4   -8    1      2.97      0.00
   -3   -8    1     10.74      0.00
   -2   -8    1      0.01      0.00
   -1   -8    1      5.97      0.00
    0   -8    1      5.03      0.00
    1   -8    1      2.44      0.00
    2   -8    1      0.10      0.00
    3   -8    1     -5.93      0.00
    4   -8    1     -2.48      0.00
    5   -8    1     -1.91      0.00
    6   -8    1      0.47      0.00
    7   -8    1      1.31      0.00
    8   -8    1     -0.20      0.00
    9   -8    1      0.66      0.00
   10   -8    1      0.26      0.00
   11   -8    1      0.91      0.00
   13   -8    1      0.57      0.00
  -14   -7    1     -0.61      0.00
  -13   -7    1      0.07      0.00
  -12   -7    1      1.42      0.00
  -11   -7    1     -1.95      0.00
  -10   -7    1      0.00      0.00
   -9   -7    1      0.88      0.00
   -8   -7    1      1.21      0.00
   -7   -7    1      1.62      0.00
   -6   -7    1      2.55      0.00
   -5   -7    1      0.95      0.00
   -4   -7    1     -4.88      0.00
   -3   -7    1     -1.27      0.00
   -2   -7    1     -6.25      0.00
   -1   -7    1     -2.32      0.00
    0   -7    1     -8.71      0.00
    1   -7    1     -2.87      0.00
    2   -7    1      0.97      0.00
    3   -7    1      2.25      0.00
    4   -7    1     -2.16      0.00
    5   -7    1     -1.96      0.00
    6   -7    1     -0.63      0.00
    7   -7    1     -2.69      0.00
    8   -7    1     -0.29      0.00
    9   -7    1      0.03      0.00
   10   -7    1     -0.41      0.00
   11   -7    1     -0.57      0.00
   13   -7    1      0.65      0.00
   14   -7    1      0.56      0.00
  -14   -6    1     -0.62      0.00
  -13   -6    1      1.22      0.00
  -12   -6    1     -0.23      0.00
  -11   -6    1     -0.10      0.00
  -10   -6    1     -0.71      0.00
   -9   -6    1      0.42      0.00
   -8   -6    1     -0.02      0.00
   -7   -6    1      0.39      0.00
   -6   -6    1      2.28      0.00
   -5   -6    1     -0.75      0.00
   -4   -6    1      5.35      0.00
   -3   -6    1     -1.84      0.00
   -2   -6    1      8.53      0.00
   -1   -6    1     -8.98      0.00
    0   -6    1      7.34      0.00
    1   -6    1    -12.02      0.00
    2   -6    1     10.12      0.00
    3   -6    1      4.81      0.00
    4   -6    1      4.55      0.00
    5   -6    1     -0.57      0.00
    6   -6    1     -0.98      0.00
    7   -6    1      1.19      0.00
    8   -6    1     -0.62      0.00
    9   -6    1     -0.44      0.00
   10   -6    1      0.68      0.00
   11   -6    1     -1.60      0.00
   12   -6    1      0.64      0.00
   13   -6    1     -0.90      0.00
   14   -6    1     -0.66      0.00
  -14   -5    1      0.12      0.00
  -13   -5    1     -2.04      0.00
  -12   -5    1      0.01      0.00
  -11   -5    1      1.31      0.00
  -10   -5    1     -0.66      0.00
   -9   -5    1      0.52      0.00
   -8   -5    1     -1.00      0.00
   -7   -5    1     -0.54      0.00
   -6   -5    1     -0.83      0.00
   -5   -5    1     -0.04      0.00
   -4   -5    1     -3.08      0.00
   -3   -5    1      1.32      0.00
   -2   -5    1      8.65      0.00
   -1   -5    1     -9.23      0.00
    0   -5    1     15.13      0.00
    1   -5    1      2.97      0.00
    2   -5    1    -14.13      0.00
    3   -5    1     -2.21      0.00
    4   -5    1      4.62      0.00
    5   -5    1      4.51      0.00
    6   -5    1      4.09      0.00
    7   -5    1     -0.11      0.00
    8   -5    1      1.18      0.00
    9   -5    1     -0.33      0.00
   10   -5    1      0.84      0.00
   11   -5    1      1.72      0.00
   12   -5    1      0.08      0.00
   13   -5    1      0.34      0.00
   14   -5    1      0.79      0.00
  -14   -4    1      1.26      0.00
  -13   -4    1      1.30      0.00
  -12   -4    1     -0.05      0.00
  -11   -4    1     -0.49      0.00
  -10   -4    1      0.52      0.00
   -9   -4    1     -0.23      0.00
   -8   -4    1      0.78      0.00
   -7   -4    1     -1.00      0.00
   -6   -4    1     -3.17      0.00
   -5   -4    1      2.07      0.00
   -4   -4    1     -3.77      0.00
   -3   -4    1     -7.22      0.00
   -2   -4    1     -3.76      0.00
   -1   -4    1     -4.83      0.00
    1   -4    1     37.48      0.00
    2   -4    1    -11.83      0.00
    3   -4    1     -6.31      0.00
    4   -4    1    -12.72      0.00
    5   -4    1     -4.93      0.00
    6   -4    1      1.05      0.00
    7   -4    1      0.45      0.00
    8   -4    1      0.52      0.00
    9   -4    1     -1.41      0.00
   10   -4    1     -1.11      0.00
   11   -4    1     -0.35      0.00
   12   -4    1      0.17      0.00
   13   -4    1     -0.05      0.00
   14   -4    1     -0.63      0.00
  -14   -3    1     -1.93      0.00
  -13   -3    1     -0.03      0.00
  -12   -3    1     -0.24      0.00
  -11   -3    1     -1.00      0.00
  -10   -3    1      0.41      0.00
   -9   -3    1     -1.59      0.00
   -8   -3    1      2.59      0.00
   -7   -3    1      0.46      0.00
   -6   -3    1      0.06      0.00
   -5   -3    1      2.81      0.00
   -4   -3    1     -0.87      0.00
   -3   -3    1      8.66      0.00
   -2   -3    1     -3.87      0.00
    3   -3    1     12.81      0.00
    4   -3    1      1.11      0.00
    5   -3    1      3.84      0.00
    6   -3    1     -5.38      0.00
    7   -3    1     -0.21      0.00
    8   -3    1     -0.60      0.00
    9   -3    1      0.64      0.00
   10   -3    1     -0.05      0.00
   11   -3    1      0.56      0.00
   12   -3    1      0.59      0.00
   13   -3    1     -1.01      0.00
   14   -3    1     -0.15      0.00
   15   -3    1      0.66      0.00
  -14   -2    1      1.28      0.00
  -13   -2    1      0.30      0.00
  -12   -2    1     -0.67      0.00
  -11   -2    1      1.74      0.00
  -10   -2    1      0.20      0.00
   -9   -2    1     -1.14      0.00
   -8   -2    1     -1.02      0.00
   -7   -2    1     -1.60      0.00
   -6   -2    1      1.20      0.00
   -5   -2    1     -1.03      0.00
   -4   -2    1      8.97      0.00
   -3   -2    1     -2.63      0.00
    4   -2    1      4.94      0.00
    5   -2    1      1.71      0.00
    6   -2    1      2.81      0.00
    7   -2    1      0.76      0.00
    8   -2    1     -0.82      0.00
    9   -2    1      1.33      0.00
   10   -2    1      0.34      0.00
   11   -2    1     -0.14      0.00
   12   -2    1      0.11      0.00
   13   -2    1      1.00      0.00
   14   -2    1     -0.91      0.00
   15   -2    1      0.79      0.00
  -14   -1    1     -0.22      0.00
  -13   -1    1     -0.07      0.00
  -12   -1    1      0.81      0.00
  -11   -1    1     -0.42      0.00
  -10   -1    1      1.45      0.00
   -9   -1    1      3.76      0.00
   -8   -1    1      0.00      0.00
   -7   -1    1      1.66      0.00
   -6   -1    1      0.72      0.00
   -5   -1    1     -8.95      0.00
   -4   -1    1      7.62      0.00
   -3   -1    1    -11.85      0.00
    4   -1    1     -0.24      0.00
    5   -1    1     -3.46      0.00
    6   -1    1      0.55      0.00
    7   -1    1     -0.83      0.00
    8   -1    1      0.07      0.00
    9   -1    1     -2.14      0.00
   10   -1    1     -0.34      0.00
   11   -1    1     -0.68      0.00
   12   -1    1     -1.35      0.00
   13   -1    1     -0.37      0.00
   14   -1    1      1.46      0.00
   15   -1    1     -0.29      0.00
  -14    0    1     -0.26      0.00
  -13    0    1     -0.55      0.00
  -12    0    1     -0.04      0.00
  -11    0    1     -1.15      0.00
  -10    0    1     -1.65      0.00
   -9    0    1     -2.26      0.00
   -8    0    1     -1.41      0.00
   -7    0    1     -0.60      0.00
   -6    0    1     -0.58      0.00
   -5    0    1      2.88      0.00
   -4    0    1     -8.55      0.00
   -3    0    1      4.48      0.00
    4    0    1      4.57      0.00
    5    0    1     -3.91      0.00
    6    0    1      0.24      0.00
    7    0    1     -0.42      0.00
    8    0    1     -0.47      0.00
    9    0    1      1.19      0.00
   10    0    1      0.43      0.00
   11    0    1     -0.49      0.00
   12    0    1      0.51      0.00
   13    0    1     -0.66      0.00
   14    0    1     -1.44      0.00
   15    0    1     -0.42      0.00
  -14    1    1      0.29      0.00
  -13    1    1      0.53      0.00
  -12    1    1      0.48      0.00
  -11    1    1     -0.32      0.00
  -10    1    1     -0.07      0.00
   -9    1    1      1.08      0.00
   -8    1    1     -1.88      0.00
   -7    1    1      0.04      0.00
   -6    1    1      1.15      0.00
   -5    1    1      3.70      0.00
   -4    1    1     -4.70      0.00
   -3    1    1     11.86      0.00
    4    1    1      0.26      0.00
    5    1    1      1.80      0.00
    6    1    1     -1.15      0.00
    7    1    1      0.50      0.00
    8    1    1      1.95      0.00
    9    1    1     -0.29      0.00
   10    1    1      1.34      0.00
   11    1    1      2.12      0.00
   12    1    1      1.04      0.00
   13    1    1      1.08      0.00
   14    1    1      1.63      0.00
   15    1    1      0.38      0.00
  -14    2    1      0.42      0.00
  -13    2    1     -2.34      0.00
  -12    2    1      0.81      0.00
  -11    2    1      0.71      0.00
  -10    2    1     -0.29      0.00
   -9    2    1      0.19      0.00
   -8    2    1      3.08      0.00
   -7    2    1     -0.49      0.00
   -6    2    1     -1.86      0.00
   -5    2    1      1.84      0.00
   -4    2    1      0.85      0.00
   -3    2    1     -0.16      0.00
    4    2    1     -2.77      0.00
    5    2    1      1.77      0.00
    6    2    1     -1.30      0.00
    7    2    1      0.34      0.00
    8    2    1     -1.42      0.00
    9    2    1     -0.85      0.00
   10    2    1     -1.49      0.00
   11    2    1     -2.03      0.00
   12    2    1     -1.22      0.00
   13    2    1      0.12      0.00
   14    2    1     -0.24      0.00
   15    2    1     -0.16      0.00
  -14    3    1     -1.02      0.00
  -13    3    1      1.11      0.00
  -11    3    1      0.54      0.00
  -10    3    1     -0.09      0.00
   -9    3    1     -2.03      0.00
   -8    3    1      0.37      0.00
   -7    3    1      0.82      0.00
   -6    3    1      0.28      0.00
   -5    3    1     -0.10      0.00
   -4    3    1     -1.41      0.00
   -3    3    1     -4.32      0.00
    3    3    1     -8.29      0.00
    4    3    1     -2.63      0.00
    5    3    1      4.16      0.00
    6    3    1     -3.23      0.00
    7    3    1      2.33      0.00
    8    3    1      0.80      0.00
    9    3    1      2.10      0.00
   10    3    1      1.05      0.00
   11    3    1      0.14      0.00
   12    3    1     -1.19      0.00
   13    3    1     -0.30      0.00
   14    3    1     -0.85      0.00
   15    3    1      0.35      0.00
  -14    4    1      0.55      0.00
  -12    4    1     -0.01      0.00
  -11    4    1      0.94      0.00
  -10    4    1     -0.59      0.00
   -9    4    1      0.37      0.00
   -8    4    1     -0.74      0.00
   -7    4    1      1.81      0.00
   -6    4    1      0.80      0.00
   -5    4    1     -1.14      0.00
   -4    4    1      0.48      0.00
   -3    4    1     -6.49      0.00
   -2    4    1    -24.25      0.00
    2    4    1     12.65      0.00
    3    4    1    -10.20      0.00
    4    4    1      1.28      0.00
    5    4    1      0.02      0.00
    6    4    1      1.14      0.00
    7    4    1     -1.68      0.00
    8    4    1     -1.81      0.00
    9    4    1      0.35      0.00
   10    4    1     -1.12      0.00
   11    4    1      1.68      0.00
   12    4    1      0.98      0.00
   13    4    1     -0.07      0.00
   14    4    1     -0.45      0.00
   15    4    1      1.68      0.00
  -14    5    1     -0.17      0.00
  -12    5    1      0.08      0.00
  -11    5    1     -1.21      0.00
  -10    5    1      1.71      0.00
   -9    5    1      0.41      0.00
   -8    5    1     -0.87      0.00
   -7    5    1     -0.79      0.00
   -6    5    1      0.07      0.00
   -5    5    1     -3.06      0.00
   -4    5    1      5.96      0.00
   -3    5    1      6.71      0.00
   -2    5    1     13.69      0.00
   -1    5    1     11.97      0.00
    0    5    1    -14.28      0.00
    1    5    1      1.12      0.00
    2    5    1      9.62      0.00
    3    5    1      1.59      0.00
    4    5    1      2.54      0.00
    5    5    1     -4.30      0.00
    6    5    1      2.29      0.00
    7    5    1     -0.75      0.00
    8    5    1      0.42      0.00
    9    5    1     -0.84      0.00
   10    5    1     -1.19      0.00
   11    5    1     -0.29      0.00
   12    5    1      0.41      0.00
   13    5    1      0.05      0.00
   14    5    1      0.49      0.00
   15    5    1     -2.87      0.00
  -12    6    1     -0.93      0.00
  -11    6    1     -0.38      0.00
  -10    6    1     -1.18      0.00
   -9    6    1     -0.02      0.00
   -8    6    1     -0.35      0.00
   -7    6    1     -2.19      0.00
   -6    6    1      1.13      0.00
   -5    6    1      1.87      0.00
   -4    6    1     -5.90      0.00
   -3    6    1      3.74      0.00
   -2    6    1     -0.78      0.00
   -1    6    1      0.31      0.00
    0    6    1      4.08      0.00
    1    6    1     -6.96      0.00
    2    6    1    -20.52      0.00
    3    6    1     11.03      0.00
    4    6    1     -7.27      0.00
    5    6    1      1.49      0.00
    6    6    1      2.93      0.00
    7    6    1      0.04      0.00
    8    6    1      2.33      0.00
    9    6    1      0.21      0.00
   10    6    1      0.43      0.00
   11    6    1     -0.80      0.00
   12    6    1      0.33      0.00
   13    6    1      0.37      0.00
   14    6    1      1.51      0.00
  -13    7    1     -0.30      0.00
  -12    7    1     -0.70      0.00
  -11    7    1      0.37      0.00
  -10    7    1      0.31      0.00
   -9    7    1      1.81      0.00
   -8    7    1      0.58      0.00
   -7    7    1      2.30      0.00
   -6    7    1     -2.43      0.00
   -5    7    1     -0.61      0.00
   -4    7    1     -1.99      0.00
   -3    7    1     -3.30      0.00
   -2    7    1     -3.02      0.00
    0    7    1      0.21      0.00
    1    7    1      7.57      0.00
    2    7    1     -3.45      0.00
    3    7    1     -1.00      0.00
    4    7    1      5.05      0.00
    5    7    1     -1.65      0.00
    6    7    1     -0.66      0.00
    7    7    1     -0.31      0.00
    8    7    1     -2.17      0.00
    9    7    1      1.05      0.00
   10    7    1      0.90      0.00
   11    7    1     -1.06      0.00
   12    7    1     -0.37      0.00
   13    7    1     -0.94      0.00
   14    7    1     -0.74      0.00
  -13    8    1      0.44      0.00
  -12    8    1     -0.80      0.00
  -11    8    1      1.33      0.00
  -10    8    1     -0.09      0.00
   -9    8    1     -0.38      0.00
   -8    8    1      0.96      0.00
   -7    8    1     -0.62      0.00
   -6    8    1     -0.10      0.00
   -5    8    1      2.33      0.00
   -4    8    1      1.03      0.00
   -3    8    1     -1.47      0.00
   -2    8    1     -0.52      0.00
   -1    8    1      2.88      0.00
    0    8    1      0.35      0.00
    1    8    1      9.81      0.00
    2    8    1      9.92      0.00
    3    8    1     -3.78      0.00
    4    8    1      2.31      0.00
    5    8    1      0.21      0.00
    6    8    1     -1.83      0.00
    7    8    1      0.58      0.00
    8    8    1     -2.27      0.00
    9    8    1     -2.30      0.00
   10    8    1      0.62      0.00
   11    8    1      0.85      0.00
   12    8    1     -0.16      0.00
   13    8    1     -0.59      0.00
   14    8    1      0.53      0.00
  -13    9    1      0.96      0.00
  -12    9    1      0.22      0.00
  -11    9    1     -2.23      0.00
  -10    9    1     -1.05      0.00
   -9    9    1     -0.58      0.00
   -8    9    1     -0.78      0.00
   -7    9    1     -0.33      0.00
   -6    9    1      0.41      0.00
   -5    9    1      1.34      0.00
   -4    9    1      2.50      0.00
   -3    9    1      2.94      0.00
   -2    9    1      4.40      0.00
   -1    9    1      2.96      0.00
    0    9    1     -4.33      0.00
    1    9    1     -4.05      0.00
    2    9    1     -2.76      0.00
    3    9    1     -0.75      0.00
    4    9    1     -5.48      0.00
    5    9    1     -1.25      0.00
    6    9    1     -0.55      0.00
    7    9    1      1.40      0.00
    8    9    1      3.59      0.00
    9    9    1     -0.06      0.00
   10    9    1      0.19      0.00
   11    9    1      0.06      0.00
   12    9    1     -0.08      0.00
   13    9    1      2.19      0.00
   14    9    1     -0.69      0.00
  -12   10    1      2.16      0.00
  -11   10    1     -0.40      0.00
  -10   10    1      2.42      0.00
   -9   10    1     -0.91      0.00
   -8   10    1     -0.48      0.00
   -7   10    1     -1.70      0.00
   -6   10    1      1.20      0.00
   -5   10    1     -1.47      0.00
   -4   10    1      1.53      0.00
   -3   10    1     -2.94      0.00
   -2   10    1     -0.72      0.00
   -1   10    1     -2.11      0.00
    0   10    1      0.33      0.00
    1   10    1     -7.32      0.00
    2   10    1     -1.22      0.00
    3   10    1     -0.23      0.00
    4   10    1      4.97      0.00
    5   10    1      4.02      0.00
    6   10    1      0.47      0.00
    7   10    1     -1.32      0.00
    8   10    1     -0.22      0.00
    9   10    1      1.08      0.00
   10   10    1     -1.53      0.00
   11   10    1      1.09      0.00
   12   10    1     -0.09      0.00
   13   10    1     -1.15      0.00
   -9   11    1      0.58      0.00
   -8   11    1      2.00      0.00
   -7   11    1      0.26      0.00
   -6   11    1      0.27      0.00
   -5   11    1     -1.39      0.00
   -4   11    1     -1.42      0.00
   -3   11    1     -3.76      0.00
   -2   11    1     -2.14      0.00
   -1   11    1      3.29      0.00
    0   11    1      2.62      0.00
    1   11    1      4.39      0.00
    2   11    1     -0.10      0.00
    3   11    1     -0.98      0.00
    4   11    1     -4.81      0.00
    5   11    1     -1.75      0.00
    6   11    1      1.19      0.00
    7   11    1     -1.60      0.00
    8   11    1     -1.88      0.00
    9   11    1      0.74      0.00
   10   11    1     -0.91      0.00
   11   11    1      0.53      0.00
   12   11    1      0.59      0.00
   13   11    1     -0.09      0.00
   -9   12    1      1.69      0.00
   -8   12    1     -1.62      0.00
   -7   12    1      0.64      0.00
   -6   12    1     -3.04      0.00
   -5   12    1     -1.04      0.00
   -4   12    1      1.55      0.00
   -3   12    1      5.14      0.00
   -2   12    1     -0.50      0.00
   -1   12    1     -1.80      0.00
    0   12    1      2.39      0.00
    1   12    1     -1.20      0.00
    2   12    1      3.54      0.00
    3   12    1      5.24      0.00
    4   12    1      3.43      0.00
    5   12    1     -1.21      0.00
    6   12    1     -1.06      0.00
    7   12    1      2.25      0.00
    8   12    1      1.09      0.00
    9   12    1     -0.58      0.00
   10   12    1      0.92      0.00
   11   12    1     -1.59      0.00
   12   12    1     -0.34      0.00
  -10   13    1     -2.43      0.00
   -9   13    1     -2.22      0.00
   -8   13    1     -1.35      0.00
   -7   13    1      1.60      0.00
   -6   13    1      3.83      0.00
   -5   13    1     -0.29      0.00
   -4   13    1      0.58      0.00
   -3   13    1     -1.25      0.00
   -1   13    1     -2.19      0.00
    0   13    1      1.03      0.00
    1   13    1     -4.25      0.00
    2   13    1     -4.83      0.00
    3   13    1     -4.44      0.00
    4   13    1      1.14      0.00
    5   13    1      1.41      0.00
    6   13    1      0.15      0.00
    7   13    1     -0.52      0.00
    8   13    1      0.20      0.00
    9   13    1     -0.24      0.00
   10   13    1      1.54      0.00
   11   13    1      0.07      0.00
   12   13    1     -0.17      0.00
  -10   14    1      2.63      0.00
   -9   14    1      0.24      0.00
   -8   14    1      2.64      0.00
   -7   14    1     -0.74      0.00
   -6   14    1     -1.08      0.00
   -5   14    1     -0.11      0.00
   -4   14    1     -0.83      0.00
   -3   14    1      0.19      0.00
   -2   14    1      1.76      0.00
   -1   14    1      1.05      0.00
    0   14    1     -2.43      0.00
    1   14    1      5.33      0.00
    2   14    1      2.57      0.00
    3   14    1      0.77      0.00
    4   14    1     -2.02      0.00
    5   14    1     -2.85      0.00
    6   14    1      0.53      0.00
    7   14    1     -0.66      0.00
    8   14    1      1.29      0.00
    9   14    1     -0.71      0.00
   10   14    1     -0.45      0.00
   11   14    1      0.39      0.00
   -9   15    1     -0.18      0.00
   -8   15    1     -1.38      0.00
   -7   15    1     -1.13      0.00
   -6   15    1     -0.01      0.00
   -5   15    1      2.28      0.00
   -4   15    1     -0.27      0.00
   -3   15    1     -1.29      0.00
   -2   15    1      1.17      0.00
   -1   15    1     -1.15      0.00
    0   15    1     -1.11      0.00
    1   15    1     -2.67      0.00
    2   15    1     -1.01      0.00
    3   15    1      0.38      0.00
    4   15    1      2.19      0.00
    5   15    1      2.11      0.00
    6   15    1     -0.35      0.00
    7   15    1     -0.32      0.00
    8   15    1     -0.59      0.00
    9   15    1      0.24      0.00
   10   15    1     -0.69      0.00
   11   15    1      0.28      0.00
   -9   16    1      0.19      0.00
   -8   16    1      0.24      0.00
   -7   16    1      1.94      0.00
   -6   16    1      0.18      0.00
   -5   16    1     -1.56      0.00
   -4   16    1     -0.62      0.00
   -3   16    1     -1.38      0.00
   -2   16    1     -0.14      0.00
   -1   16    1     -0.45      0.00
    0   16    1      3.33      0.00
    1   16    1      2.32      0.00
    2   16    1      1.88      0.00
    3   16    1      0.00      0.00
    4   16    1     -0.63      0.00
    5   16    1      1.24      0.00
    6   16    1     -0.11      0.00
    7   16    1     -0.04      0.00
    8   16    1     -0.81      0.00
    9   16    1     -0.48      0.00
   10   16    1     -0.13      0.00
   -8   17    1     -0.47      0.00
   -7   17    1     -0.41      0.00
   -6   17    1     -0.91      0.00
   -5   17    1      0.31      0.00
   -4   17    1     -1.03      0.00
   -3   17    1      2.15      0.00
   -2   17    1     -0.70      0.00
   -1   17    1      0.26      0.00
    0   17    1     -2.79      0.00
    1   17    1     -1.77      0.00
    2   17    1     -0.55      0.00
    3   17    1     -1.31      0.00
    4   17    1     -1.65      0.00
    5   17    1     -2.06      0.00
    6   17    1     -0.29      0.00
    7   17    1      0.63      0.00
    8   17    1      0.52      0.00
    9   17    1      1.51      0.00
   -7   18    1     -0.62      0.00
   -6   18    1      0.97      0.00
   -5   18    1      0.78      0.00
   -4   18    1      2.13      0.00
   -3   18    1      0.54      0.00
   -2   18    1      0.66      0.00
   -1   18    1      1.55      0.00
    0   18    1      0.58      0.00
    1   18    1     -0.36      0.00
    2   18    1     -0.36      0.00
    3   18    1      1.05      0.00
    4   18    1      0.43      0.00
    5   18    1      2.00      0.00
    6   18    1     -0.33      0.00
    7   18    1      0.36      0.00
    8   18    1     -1.09      0.00
   -6   19    1     -1.32      0.00
   -5   19    1     -1.53      0.00
   -4   19    1     -1.22      0.00
   -3   19    1     -1.45      0.00
   -2   19    1      0.16      0.00
   -1   19    1     -0.85      0.00
    0   19    1     -1.06      0.00
    1   19    1      1.32      0.00
    2   19    1      0.16      0.00
    3   19    1      0.89      0.00
    4   19    1     -0.67      0.00
    5   19    1     -0.43      0.00
    6   19    1      0.70      0.00
    7   19    1     -0.66      0.00
   -4   20    1      0.23      0.00
   -3   20    1      0.64      0.00
   -2   20    1     -0.52      0.00
   -1   20    1      0.64      0.00
    0   20    1      1.36      0.00
    1   20    1      0.11      0.00
    2   20    1     -0.23      0.00
    3   20    1     -0.60      0.00
    4   20    1     -0.11      0.00
    5   20    1     -1.35      0.00
   -2   21    1     -0.73      0.00
   -1   21    1     -1.26      0.00
    0   21    1     -0.91      0.00
    1   21    1      0.34      0.00
    2   21    1     -0.59      0.00
    3   21    1      1.45      0.00
   -2  -20    2      0.06      0.00
   -1  -20    2      0.22      0.00
    0  -20    2      0.34      0.00
    1  -20    2     -0.76      0.00
    2  -20    2      0.61      0.00
   -5  -19    2      0.30      0.00
   -4  -19    2      0.50      0.00
   -3  -19    2      0.64      0.00
   -2  -19    2      0.71      0.00
   -1  -19    2     -0.79      0.00
    0  -19    2     -0.45      0.00
    1  -19    2     -0.15      0.00
    2  -19    2      0.69      0.00
    3  -19    2     -0.23      0.00
    4  -19    2     -1.01      0.00
    5  -19    2      0.84      0.00
   -6  -18    2      0.84      0.00
   -5  -18    2      0.68      0.00
   -4  -18    2     -0.84      0.00
   -3  -18    2     -0.73      0.00
   -2  -18    2     -0.01      0.00
   -1  -18    2      0.89      0.00
    0  -18    2     -0.18      0.00
    1  -18    2      0.01      0.00
    2  -18    2     -1.10      0.00
    3  -18    2      1.17      0.00
    4  -18    2      0.71      0.00
    5  -18    2     -0.88      0.00
    6  -18    2     -0.20      0.00
   -8  -17    2     -0.44      0.00
   -7  -17    2      0.23      0.00
   -6  -17    2     -1.57      0.00
   -5  -17    2     -0.05      0.00
   -4  -17    2     -0.69      0.00
   -3  -17    2      0.61      0.00
   -2  -17    2      0.20      0.00
   -1  -17    2     -0.34      0.00
    0  -17    2     -0.40      0.00
    1  -17    2      1.79      0.00
    2  -17    2      0.13      0.00
    3  -17    2     -0.20      0.00
    4  -17    2     -0.68      0.00
    5  -17    2      0.58      0.00
    6  -17    2      1.78      0.00
    7  -17    2      0.55      0.00
    8  -17    2      0.33      0.00
   -9  -16    2      0.33      0.00
   -8  -16    2      0.55      0.00
   -7  -16    2     -1.22      0.00
   -6  -16    2      0.60      0.00
   -5  -16    2      0.50      0.00
   -4  -16    2      1.85      0.00
   -3  -16    2     -1.50      0.00
   -2  -16    2     -1.20      0.00
   -1  -16    2      1.54      0.00
    0  -16    2     -1.48      0.00
    1  -16    2      0.87      0.00
    2  -16    2     -0.73      0.00
    3  -16    2     -0.72      0.00
    4  -16    2     -1.92      0.00
    5  -16    2     -0.95      0.00
    6  -16    2     -1.08      0.00
    7  -16    2     -0.69      0.00
    8  -16    2     -1.02      0.00
    9  -16    2     -1.91      0.00
   -9  -15    2      0.52      0.00
   -8  -15    2      2.07      0.00
   -7  -15    2      0.39      0.00
   -6  -15    2     -0.26      0.00
   -5  -15    2     -1.80      0.00
   -4  -15    2      0.44      0.00
   -3  -15    2      0.89      0.00
   -2  -15    2      0.07      0.00
   -1  -15    2     -0.02      0.00
    0  -15    2      1.13      0.00
    1  -15    2     -0.63      0.00
    2  -15    2      1.41      0.00
    3  -15    2      2.40      0.00
    4  -15    2      1.37      0.00
    5  -15    2      0.55      0.00
    6  -15    2      1.37      0.00
    7  -15    2     -0.15      0.00
    8  -15    2     -0.15      0.00
    9  -15    2      1.73      0.00
   10  -15    2     -1.14      0.00
  -10  -14    2      0.31      0.00
   -9  -14    2      0.44      0.00
   -8  -14    2     -1.89      0.00
   -7  -14    2     -0.08      0.00
   -6  -14    2      0.62      0.00
   -5  -14    2      1.13      0.00
   -4  -14    2     -1.65      0.00
   -3  -14    2      1.20      0.00
   -2  -14    2     -0.88      0.00
   -1  -14    2     -1.15      0.00
    0  -14    2      0.29      0.00
    1  -14    2     -3.26      0.00
    2  -14    2     -3.86      0.00
    3  -14    2     -0.51      0.00
    4  -14    2      0.17      0.00
    5  -14    2      2.08      0.00
    6  -14    2     -0.56      0.00
    7  -14    2      1.81      0.00
    8  -14    2      1.77      0.00
    9  -14    2      0.37      0.00
   10  -14    2     -0.07      0.00
  -11  -13    2     -0.09      0.00
  -10  -13    2     -0.26      0.00
   -9  -13    2     -0.59      0.00
   -8  -13    2      0.17      0.00
   -7  -13    2      0.80      0.00
   -6  -13    2      0.53      0.00
   -5  -13    2      0.56      0.00
   -4  -13    2      0.33      0.00
   -3  -13    2      0.00      0.00
   -2  -13    2      0.71      0.00
   -1  -13    2     -1.70      0.00
    0  -13    2      2.05      0.00
    1  -13    2      3.78      0.00
    3  -13    2      0.46      0.00
    4  -13    2     -0.47      0.00
    5  -13    2     -1.43      0.00
    6  -13    2     -2.96      0.00
    7  -13    2     -1.24      0.00
    8  -13    2     -2.17      0.00
    9  -13    2     -1.22      0.00
  -11  -12    2      0.96      0.00
  -10  -12    2      0.31      0.00
   -9  -12    2      0.03      0.00
   -8  -12    2      0.10      0.00
   -7  -12    2     -0.67      0.00
   -6  -12    2     -1.80      0.00
   -5  -12    2     -0.69      0.00
   -4  -12    2     -0.74      0.00
   -3  -12    2     -0.66      0.00
   -2  -12    2      2.86      0.00
   -1  -12    2      1.11      0.00
    0  -12    2     -1.54      0.00
    1  -12    2     -0.54      0.00
    2  -12    2     -0.53      0.00
    3  -12    2      1.12      0.00
    4  -12    2      0.08      0.00
    5  -12    2     -0.24      0.00
    6  -12    2     -0.05      0.00
    7  -12    2      1.31      0.00
    8  -12    2     -1.02      0.00
    9  -12    2      1.09      0.00
  -12  -11    2      0.48      0.00
  -11  -11    2     -0.09      0.00
  -10  -11    2     -1.01      0.00
   -9  -11    2     -0.35      0.00
   -8  -11    2     -0.34      0.00
   -7  -11    2     -1.06      0.00
   -6  -11    2      1.23      0.00
   -5  -11    2      2.56      0.00
   -4  -11    2      1.19      0.00
   -3  -11    2     -3.21      0.00
   -2  -11    2     -2.52      0.00
   -1  -11    2      4.61      0.00
    0  -11    2      0.38      0.00
    1  -11    2      2.52      0.00
    2  -11    2     -3.66      0.00
    3  -11    2      0.92      0.00
    4  -11    2     -1.68      0.00
    5  -11    2      1.40      0.00
    6  -11    2      2.58      0.00
    7  -11    2     -1.35      0.00
    8  -11    2      1.59      0.00
    9  -11    2      0.68      0.00
   10  -11    2      2.05      0.00
  -12  -10    2     -0.32      0.00
  -11  -10    2      0.10      0.00
  -10  -10    2      0.11      0.00
   -9  -10    2      1.47      0.00
   -8  -10    2      1.48      0.00
   -7  -10    2      1.84      0.00
   -6  -10    2     -0.17      0.00
   -5  -10    2     -1.78      0.00
   -4  -10    2      2.09      0.00
   -3  -10    2      0.51      0.00
   -2  -10    2     -4.16      0.00
   -1  -10    2     -7.59      0.00
    0  -10    2     -7.24      0.00
    1  -10    2     -3.29      0.00
    2  -10    2      1.63      0.00
    3  -10    2     -1.96      0.00
    4  -10    2      2.68      0.00
    5  -10    2     -1.74      0.00
    6  -10    2      0.04      0.00
    7  -10    2     -1.22      0.00
    8  -10    2      1.12      0.00
    9  -10    2     -1.12      0.00
   10  -10    2     -1.75      0.00
   11  -10    2     -1.20      0.00
  -13   -9    2     -0.53      0.00
  -12   -9    2     -1.12      0.00
  -11   -9    2     -0.52      0.00
  -10   -9    2      0.57      0.00
   -9   -9    2     -1.66      0.00
   -8   -9    2     -1.59      0.00
   -7   -9    2      0.15      0.00
   -6   -9    2     -1.16      0.00
   -5   -9    2     -2.35      0.00
   -4   -9    2     -3.92      0.00
   -3   -9    2      3.14      0.00
   -2   -9    2      8.76      0.00
   -1   -9    2      9.60      0.00
    0   -9    2      7.85      0.00
    1   -9    2     -0.25      0.00
    2   -9    2      4.63      0.00
    3   -9    2     -2.69      0.00
    4   -9    2      1.29      0.00
    5   -9    2      2.03      0.00
    6   -9    2     -0.19      0.00
    7   -9    2      0.72      0.00
    8   -9    2     -0.12      0.00
    9   -9    2     -0.66      0.00
   10   -9    2     -0.24      0.00
   11   -9    2      0.68      0.00
  -13   -8    2     -0.66      0.00
  -12   -8    2     -0.49      0.00
  -11   -8    2      1.09      0.00
  -10   -8    2      0.56      0.00
   -9   -8    2     -1.39      0.00
   -8   -8    2      0.33      0.00
   -7   -8    2     -1.36      0.00
   -6   -8    2      0.95      0.00
   -5   -8    2     -0.29      0.00
   -4   -8    2      1.06      0.00
   -3   -8    2     -1.33      0.00
   -2   -8    2     -9.95      0.00
   -1   -8    2     -2.72      0.00
    1   -8    2     -0.38      0.00
    2   -8    2      2.36      0.00
    3   -8    2     -0.92      0.00
    4   -8    2     -1.94      0.00
    5   -8    2     -4.65      0.00
    6   -8    2     -0.41      0.00
    7   -8    2     -0.26      0.00
    8   -8    2      0.78      0.00
    9   -8    2      1.40      0.00
   10   -8    2      0.43      0.00
   11   -8    2      0.64      0.00
   12   -8    2      1.66      0.00
  -13   -7    2      1.77      0.00
  -12   -7    2      1.63      0.00
  -11   -7    2     -1.73      0.00
  -10   -7    2      1.02      0.00
   -9   -7    2      1.58      0.00
   -8   -7    2     -0.32      0.00
   -7   -7    2      1.31      0.00
   -6   -7    2      2.31      0.00
   -5   -7    2      1.19      0.00
   -4   -7    2      1.88      0.00
   -3   -7    2      5.18      0.00
   -2   -7    2      7.38      0.00
   -1   -7    2     -6.97      0.00
    0   -7    2     -1.11      0.00
    1   -7    2     -4.92      0.00
    2   -7    2     -0.24      0.00
    3   -7    2      1.11      0.00
    4   -7    2      0.10      0.00
    5   -7    2      2.33      0.00
    6   -7    2     -0.82      0.00
    7   -7    2     -1.69      0.00
    8   -7    2     -0.66      0.00
    9   -7    2     -1.59      0.00
   10   -7    2     -0.76      0.00
   11   -7    2     -0.98      0.00
   12   -7    2     -1.09      0.00
   13   -7    2      1.45      0.00
   14   -7    2     -1.16      0.00
  -14   -6    2     -1.62      0.00
  -13   -6    2     -1.04      0.00
  -12   -6    2     -0.72      0.00
  -11   -6    2     -0.52      0.00
  -10   -6    2     -0.97      0.00
   -9   -6    2      0.35      0.00
   -8   -6    2      0.27      0.00
   -7   -6    2     -0.11      0.00
   -6   -6    2      0.26      0.00
   -5   -6    2     -0.08      0.00
   -4   -6    2     -2.06      0.00
   -3   -6    2     -8.06      0.00
   -2   -6    2      8.01      0.00
   -1   -6    2     -4.70      0.00
    0   -6    2      2.89      0.00
    1   -6    2     -2.49      0.00
    2   -6    2     -2.33      0.00
    3   -6    2      2.91      0.00
    4   -6    2      1.74      0.00
    5   -6    2      3.64      0.00
    6   -6    2      1.97      0.00
    7   -6    2      2.67      0.00
    8   -6    2     -0.44      0.00
    9   -6    2      0.99      0.00
   10   -6    2      1.19      0.00
   11   -6    2     -0.40      0.00
   12   -6    2      0.09      0.00
   13   -6    2     -1.24      0.00
   14   -6    2      0.71      0.00
  -14   -5    2      0.58      0.00
  -13   -5    2     -0.98      0.00
  -12   -5    2      0.24      0.00
  -11   -5    2      0.93      0.00
  -10   -5    2     -0.47      0.00
   -9   -5    2     -0.24      0.00
   -8   -5    2      0.31      0.00
   -7   -5    2     -1.97      0.00
   -6   -5    2     -1.87      0.00
   -5   -5    2      0.05      0.00
   -4   -5    2     -0.16      0.00
   -3   -5    2      2.99      0.00
   -2   -5    2     -5.26      0.00
   -1   -5    2     -2.63      0.00
    0   -5    2      2.00      0.00
    1   -5    2      9.54      0.00
    2   -5    2     -5.87      0.00
    3   -5    2     -1.20      0.00
    4   -5    2     -3.63      0.00
    5   -5    2     -5.23      0.00
    6   -5    2      0.20      0.00
    7   -5    2      0.25      0.00
    8   -5    2      1.81      0.00
    9   -5    2      0.29      0.00
   10   -5    2      0.50      0.00
   11   -5    2      1.61      0.00
   12   -5    2     -0.04      0.00
   13   -5    2      0.19      0.00
   14   -5    2     -0.24      0.00
  -14   -4    2      1.10      0.00
  -13   -4    2     -0.12      0.00
  -12   -4    2      0.21      0.00
  -11   -4    2      0.08      0.00
  -10   -4    2      1.18      0.00
   -9   -4    2     -0.80      0.00
   -8   -4    2      1.96      0.00
   -7   -4    2      0.59      0.00
   -6   -4    2     -0.42      0.00
   -5   -4    2      2.86      0.00
   -4   -4    2     -2.58      0.00
   -3   -4    2     -2.88      0.00
   -2   -4    2     -5.75      0.00
   -1   -4    2      5.15      0.00
    0   -4    2     -8.42      0.00
    1   -4    2     23.63      0.00
    2   -4    2     -2.18      0.00
    3   -4    2     -0.78      0.00
    4   -4    2     -0.16      0.00
    5   -4    2      4.33      0.00
    6   -4    2      0.70      0.00
    7   -4    2     -3.01      0.00
    8   -4    2     -2.76      0.00
    9   -4    2     -1.80      0.00
   10   -4    2     -2.37      0.00
   11   -4    2     -0.14      0.00
   12   -4    2      0.38      0.00
   13   -4    2      0.40      0.00
   14   -4    2     -0.80      0.00
   15   -4    2      0.19      0.00
  -14   -3    2     -1.16      0.00
  -13   -3    2      2.86      0.00
  -12   -3    2     -0.89      0.00
  -11   -3    2     -0.75      0.00
  -10   -3    2      0.31      0.00
   -9   -3    2     -0.86      0.00
   -8   -3    2     -0.45      0.00
   -6   -3    2     -2.40      0.00
   -5   -3    2     -0.76      0.00
   -4   -3    2      5.96      0.00
   -3   -3    2      8.10      0.00
   -2   -3    2      0.07      0.00
    2   -3    2     16.24      0.00
    3   -3    2     -5.02      0.00
    4   -3    2     -5.01      0.00
    5   -3    2     -2.65      0.00
    6   -3    2     -4.10      0.00
    7   -3    2      4.21      0.00
    8   -3    2     -0.98      0.00
    9   -3    2      1.74      0.00
   10   -3    2      1.14      0.00
   11   -3    2     -0.27      0.00
   12   -3    2     -0.17      0.00
   13   -3    2     -0.64      0.00
   14   -3    2     -0.14      0.00
   15   -3    2     -0.41      0.00
  -14   -2    2     -0.19      0.00
  -13   -2    2     -1.58      0.00
  -12   -2    2      0.29      0.00
  -11   -2    2      1.51      0.00
  -10   -2    2     -1.63      0.00
   -9   -2    2      2.06      0.00
   -8   -2    2     -1.42      0.00
   -7   -2    2      2.37      0.00
   -6   -2    2      4.72      0.00
   -5   -2    2     -4.51      0.00
   -4   -2    2      4.55      0.00
   -3   -2    2     -8.14      0.00
    3   -2    2     16.03      0.00
    4   -2    2     13.56      0.00
    5   -2    2      2.43      0.00
    6   -2    2      2.16      0.00
    7   -2    2     -1.26      0.00
    8   -2    2      1.75      0.00
    9   -2    2      0.02      0.00
   10   -2    2      1.07      0.00
   11   -2    2      0.30      0.00
   12   -2    2     -0.13      0.00
   13   -2    2     -0.14      0.00
   14   -2    2      0.97      0.00
   15   -2    2      1.05      0.00
  -14   -1    2      0.26      0.00
  -13   -1    2     -0.10      0.00
  -12   -1    2      0.34      0.00
  -11   -1    2     -0.44      0.00
  -10   -1    2      1.14      0.00
   -9   -1    2      0.43      0.00
   -8   -1    2     -1.69      0.00
   -7   -1    2      0.11      0.00
   -6   -1    2     -2.77      0.00
   -5   -1    2     -1.21      0.00
   -4   -1    2     -3.12      0.00
   -3   -1    2    -13.35      0.00
    4   -1    2     -1.58      0.00
    5   -1    2     -1.93      0.00
    6   -1    2      3.60      0.00
    7   -1    2      0.36      0.00
    8   -1    2     -0.55      0.00
    9   -1    2     -2.33      0.00
   10   -1    2     -0.65      0.00
   11   -1    2     -0.98      0.00
   12   -1    2      0.11      0.00
   13   -1    2      0.69      0.00
   14   -1    2     -0.49      0.00
   15   -1    2     -1.16      0.00
  -14    0    2     -0.90      0.00
  -13    0    2     -0.41      0.00
  -12    0    2      0.61      0.00
  -11    0    2     -1.67      0.00
  -10    0    2     -0.03      0.00
   -9    0    2      0.68      0.00
   -8    0    2      1.01      0.00
   -7    0    2     -0.62      0.00
   -6    0    2     -1.04      0.00
   -5    0    2      7.21      0.00
   -4    0    2     -7.37      0.00
   -3    0    2     28.37      0.00
    4    0    2     -8.91      0.00
    5    0    2     -6.35      0.00
    6    0    2     -5.81      0.00
    7    0    2     -0.98      0.00
    8    0    2      0.58      0.00
    9    0    2      1.46      0.00
   10    0    2     -0.05      0.00
   11    0    2      0.50      0.00
   12    0    2      0.27      0.00
   13    0    2     -0.74      0.00
   14    0    2      0.53      0.00
   15    0    2      1.60      0.00
  -14    1    2      1.95      0.00
  -13    1    2     -0.45      0.00
  -12    1    2     -0.13      0.00
  -11    1    2      1.55      0.00
  -10    1    2     -2.56      0.00
   -9    1    2     -2.06      0.00
   -8    1    2     -0.86      0.00
   -7    1    2      0.10      0.00
   -6    1    2      1.94      0.00
   -5    1    2      1.13      0.00
   -4    1    2     -0.39      0.00
   -3    1    2     -1.07      0.00
    4    1    2      9.11      0.00
    5    1    2      6.08      0.00
    6    1    2     -2.02      0.00
    7    1    2      1.35      0.00
    8    1    2      0.34      0.00
    9    1    2      1.03      0.00
   10    1    2      0.41      0.00
   11    1    2     -0.55      0.00
   12    1    2     -0.47      0.00
   13    1    2     -0.28      0.00
   14    1    2      0.38      0.00
   15    1    2     -0.55      0.00
  -14    2    2     -0.44      0.00
  -11    2    2      0.22      0.00
  -10    2    2      1.16      0.00
   -9    2    2      0.78      0.00
   -8    2    2      2.57      0.00
   -7    2    2     -0.47      0.00
   -6    2    2     -0.91      0.00
   -5    2    2     -3.21      0.00
   -4    2    2      0.79      0.00
   -3    2    2    -10.87      0.00
    4    2    2     -6.70      0.00
    5    2    2      7.93      0.00
    6    2    2      1.50      0.00
    7    2    2     -0.47      0.00
    8    2    2     -1.47      0.00
    9    2    2      0.44      0.00
   10    2    2     -1.05      0.00
   11    2    2      1.60      0.00
   12    2    2     -0.67      0.00
   13    2    2      0.59      0.00
   14    2    2     -0.55      0.00
   15    2    2     -0.50      0.00
  -14    3    2     -1.15      0.00
  -12    3    2     -1.74      0.00
  -11    3    2      1.02      0.00
  -10    3    2     -0.15      0.00
   -9    3    2     -1.97      0.00
   -8    3    2      0.09      0.00
   -7    3    2      1.47      0.00
   -6    3    2     -0.98      0.00
   -5    3    2     -0.17      0.00
   -4    3    2      2.36      0.00
   -3    3    2     -2.83      0.00
    3    3    2     -5.89      0.00
    4    3    2     -0.30      0.00
    5    3    2     -5.52      0.00
    6    3    2      1.21      0.00
    7    3    2      1.88      0.00
    8    3    2     -1.03      0.00
    9    3    2      0.55      0.00
   10    3    2      0.29      0.00
   11    3    2     -0.71      0.00
   12    3    2     -0.07      0.00
   13    3    2      0.80      0.00
   14    3    2     -0.88      0.00
   15    3    2      0.59      0.00
  -12    4    2      1.60      0.00
  -11    4    2     -0.58      0.00
  -10    4    2      0.78      0.00
   -9    4    2      1.60      0.00
   -8    4    2     -2.03      0.00
   -7    4    2      0.55      0.00
   -6    4    2      3.19      0.00
   -5    4    2     -2.48      0.00
   -4    4    2      1.40      0.00
   -3    4    2     -1.61      0.00
   -2    4    2    -16.12      0.00
    3    4    2     -2.78      0.00
    4    4    2      4.33      0.00
    5    4    2     -3.05      0.00
    6    4    2      0.99      0.00
    7    4    2     -2.08      0.00
    8    4    2      3.42      0.00
    9    4    2     -0.69      0.00
   10    4    2     -0.12      0.00
   11    4    2      0.66      0.00
   12    4    2      0.99      0.00
   13    4    2     -0.82      0.00
   14    4    2      1.19      0.00
   15    4    2     -0.20      0.00
  -13    5    2     -0.02      0.00
  -12    5    2     -1.31      0.00
  -11    5    2     -1.03      0.00
  -10    5    2      1.10      0.00
   -9    5    2     -0.13      0.00
   -8    5    2      0.89      0.00
   -7    5    2     -1.77      0.00
   -6    5    2     -1.50      0.00
   -5    5    2      2.21      0.00
   -4    5    2     -0.59      0.00
   -3    5    2      7.75      0.00
   -2    5    2      1.28      0.00
   -1    5    2     -0.98      0.00
    0    5    2    -34.98      0.00
    2    5    2    -22.96      0.00
    3    5    2     10.51      0.00
    4    5    2     -2.75      0.00
    5    5    2     -1.98      0.00
    6    5    2      1.94      0.00
    7    5    2     -4.03      0.00
    8    5    2     -1.74      0.00
    9    5    2     -1.30      0.00
   10    5    2     -1.44      0.00
   11    5    2     -1.04      0.00
   12    5    2     -0.36      0.00
   13    5    2     -0.24      0.00
   14    5    2      0.23      0.00
   15    5    2     -1.11      0.00
  -13    6    2      1.08      0.00
  -12    6    2     -1.38      0.00
  -11    6    2     -0.58      0.00
  -10    6    2     -1.76      0.00
   -9    6    2      0.64      0.00
   -8    6    2     -1.00      0.00
   -7    6    2     -0.68      0.00
   -6    6    2     -0.37      0.00
   -5    6    2     -0.62      0.00
   -4    6    2     -2.88      0.00
   -3    6    2      7.13      0.00
   -2    6    2     12.18      0.00
   -1    6    2      7.82      0.00
    0    6    2      8.06      0.00
    1    6    2    -11.26      0.00
    2    6    2     -5.54      0.00
    3    6    2      1.63      0.00
    4    6    2     -2.62      0.00
    5    6    2      4.30      0.00
    6    6    2      1.12      0.00
    7    6    2      4.15      0.00
    8    6    2      0.41      0.00
    9    6    2      1.49      0.00
   10    6    2      1.31      0.00
   11    6    2     -0.81      0.00
   12    6    2      0.56      0.00
   13    6    2      0.43      0.00
   14    6    2      0.26      0.00
   15    6    2     -0.58      0.00
  -13    7    2     -0.26      0.00
  -12    7    2      0.21      0.00
  -11    7    2      1.35      0.00
  -10    7    2      1.28      0.00
   -9    7    2      0.77      0.00
   -8    7    2      1.60      0.00
   -7    7    2      1.59      0.00
   -6    7    2     -0.34      0.00
   -5    7    2      0.62      0.00
   -4    7    2     -1.19      0.00
   -3    7    2    -13.14      0.00
   -2    7    2     -8.11      0.00
   -1    7    2    -13.07      0.00
    0    7    2      9.91      0.00
    1    7    2      3.51      0.00
    2    7    2      7.99      0.00
    3    7    2     -2.68      0.00
    4    7    2      5.44      0.00
    5    7    2     -2.41      0.00
    6    7    2     -0.84      0.00
    7    7    2     -0.51      0.00
    8    7    2     -0.36      0.00
    9    7    2     -0.94      0.00
   10    7    2      0.88      0.00
   11    7    2      0.93      0.00
   12    7    2     -0.26      0.00
   13    7    2     -0.09      0.00
   14    7    2     -0.71      0.00
  -13    8    2     -0.87      0.00
  -12    8    2      1.15      0.00
  -11    8    2     -0.66      0.00
  -10    8    2     -0.88      0.00
   -9    8    2     -1.16      0.00
   -8    8    2      0.31      0.00
   -7    8    2     -0.58      0.00
   -6    8    2      0.29      0.00
   -5    8    2      0.43      0.00
   -4    8    2      3.52      0.00
   -3    8    2      1.40      0.00
   -2    8    2      3.13      0.00
   -1    8    2      5.40      0.00
    0    8    2     -8.55      0.00
    1    8    2      8.95      0.00
    2    8    2      1.89      0.00
    3    8    2     -3.10      0.00
    4    8    2     -0.32      0.00
    5    8    2     -1.13      0.00
    6    8    2     -3.08      0.00
    7    8    2     -0.94      0.00
    8    8    2     -0.64      0.00
    9    8    2     -0.55      0.00
   10    8    2      0.50      0.00
   11    8    2     -0.37      0.00
   12    8    2     -1.36      0.00
   13    8    2     -0.22      0.00
   14    8    2     -0.38      0.00
  -13    9    2     -0.47      0.00
  -12    9    2     -0.42      0.00
  -11    9    2     -0.46      0.00
  -10    9    2     -0.14      0.00
   -9    9    2     -0.43      0.00
   -8    9    2     -2.26      0.00
   -7    9    2     -2.56      0.00
   -6    9    2      0.64      0.00
   -5    9    2      0.22      0.00
   -4    9    2      4.95      0.00
   -3    9    2      2.14      0.00
   -2    9    2      3.63      0.00
   -1    9    2     -0.51      0.00
    0    9    2     -0.28      0.00
    1    9    2     -7.25      0.00
    2    9    2     -0.94      0.00
    3    9    2     -0.07      0.00
    4    9    2     -5.12      0.00
    5    9    2      4.10      0.00
    6    9    2      2.42      0.00
    7    9    2      2.25      0.00
    8    9    2      1.19      0.00
    9    9    2     -0.52      0.00
   10    9    2     -1.00      0.00
   11    9    2      1.34      0.00
   12    9    2      1.69      0.00
   13    9    2      1.35      0.00
   14    9    2     -0.03      0.00
  -12   10    2      1.30      0.00
  -11   10    2      0.29      0.00
  -10   10    2      2.47      0.00
   -9   10    2      0.00      0.00
   -8   10    2      2.31      0.00
   -7   10    2      1.16      0.00
   -6   10    2      1.51      0.00
   -5   10    2     -2.02      0.00
   -4   10    2     -3.05      0.00
   -3   10    2     -4.32      0.00
   -2   10    2     -3.10      0.00
   -1   10    2      2.49      0.00
    0   10    2      1.19      0.00
    1   10    2     -4.64      0.00
    2   10    2     -1.05      0.00
    3   10    2      1.14      0.00
    4   10    2      1.33      0.00
    5   10    2     -4.52      0.00
    6   10    2     -1.38      0.00
    7   10    2     -2.24      0.00
    8   10    2      0.72      0.00
    9   10    2      1.40      0.00
   10   10    2     -0.86      0.00
   11   10    2     -0.76      0.00
   12   10    2     -0.89      0.00
   13   10    2     -0.35      0.00
   14   10    2     -0.08      0.00
  -12   11    2     -0.56      0.00
  -11   11    2      1.26      0.00
  -10   11    2     -1.35      0.00
   -9   11    2      1.49      0.00
   -8   11    2     -0.12      0.00
   -7   11    2      0.63      0.00
   -6   11    2     -2.21      0.00
   -5   11    2     -0.86      0.00
   -4   11    2     -0.63      0.00
   -3   11    2      1.40      0.00
   -2   11    2     -0.70      0.00
   -1   11    2     -0.10      0.00
    0   11    2      1.63      0.00
    1   11    2      2.48      0.00
    2   11    2      0.02      0.00
    3   11    2      3.45      0.00
    4   11    2      4.79      0.00
    5   11    2      4.10      0.00
    6   11    2      0.07      0.00
    7   11    2     -0.73      0.00
    8   11    2     -1.95      0.00
    9   11    2      0.27      0.00
   10   11    2     -0.08      0.00
   11   11    2      0.54      0.00
   12   11    2     -0.08      0.00
   13   11    2     -1.39      0.00
   -9   12    2     -0.90      0.00
   -7   12    2      0.49      0.00
   -6   12    2     -0.13      0.00
   -5   12    2      0.96      0.00
   -4   12    2      0.53      0.00
   -3   12    2      0.92      0.00
   -2   12    2     -1.58      0.00
   -1   12    2     -3.91      0.00
    0   12    2      3.87      0.00
    1   12    2     -0.90      0.00
    2   12    2      0.56      0.00
    3   12    2     -4.75      0.00
    4   12    2     -3.97      0.00
    5   12    2     -2.23      0.00
    6   12    2      2.30      0.00
    7   12    2      1.84      0.00
    8   12    2      0.64      0.00
    9   12    2     -0.66      0.00
   10   12    2      2.13      0.00
   11   12    2     -0.64      0.00
   12   12    2      1.61      0.00
   13   12    2      0.95      0.00
   -9   13    2     -0.19      0.00
   -8   13    2      1.72      0.00
   -7   13    2      1.96      0.00
   -6   13    2      1.48      0.00
   -5   13    2     -1.06      0.00
   -4   13    2      0.31      0.00
   -3   13    2      3.17      0.00
   -2   13    2      2.62      0.00
   -1   13    2      2.24      0.00
    0   13    2     -2.69      0.00
    1   13    2     -0.29      0.00
    2   13    2      0.31      0.00
    3   13    2      4.04      0.00
    4   13    2      2.82      0.00
    5   13    2     -0.62      0.00
    6   13    2     -2.43      0.00
    7   13    2      0.57      0.00
    8   13    2      2.13      0.00
    9   13    2     -0.61      0.00
   10   13    2     -0.72      0.00
   11   13    2     -1.12      0.00
   12   13    2     -1.58      0.00
  -10   14    2      0.77      0.00
   -9   14    2     -0.95      0.00
   -8   14    2      0.13      0.00
   -7   14    2     -1.45      0.00
   -5   14    2      3.35      0.00
   -4   14    2      0.42      0.00
   -3   14    2     -3.00      0.00
   -2   14    2      1.36      0.00
   -1   14    2     -1.69      0.00
    0   14    2     -0.10      0.00
    1   14    2      0.87      0.00
    2   14    2     -1.82      0.00
    3   14    2     -4.10      0.00
    4   14    2     -1.71      0.00
    5   14    2      1.51      0.00
    6   14    2     -0.73      0.00
    7   14    2     -1.05      0.00
    8   14    2     -2.10      0.00
    9   14    2      0.43      0.00
   10   14    2     -0.40      0.00
   11   14    2      1.59      0.00
   12   14    2      0.07      0.00
  -10   15    2     -0.31      0.00
   -9   15    2      0.89      0.00
   -8   15    2     -0.30      0.00
   -7   15    2     -1.44      0.00
   -6   15    2     -1.23      0.00
   -5   15    2     -2.04      0.00
   -4   15    2     -3.90      0.00
   -3   15    2     -0.23      0.00
   -2   15    2     -2.13      0.00
   -1   15    2     -0.31      0.00
    0   15    2     -1.80      0.00
    1   15    2      1.46      0.00
    2   15    2      2.81      0.00
    3   15    2      2.32      0.00
    4   15    2      0.55      0.00
    5   15    2     -0.46      0.00
    6   15    2      1.18      0.00
    7   15    2     -0.17      0.00
    8   15    2      0.41      0.00
    9   15    2      0.30      0.00
   10   15    2     -1.04      0.00
   11   15    2     -0.47      0.00
   -9   16    2      0.47      0.00
   -8   16    2      0.25      0.00
   -7   16    2      1.93      0.00
   -6   16    2      0.45      0.00
   -5   16    2      0.57      0.00
   -4   16    2     -0.37      0.00
   -2   16    2      0.05      0.00
   -1   16    2      1.41      0.00
    0   16    2      0.97      0.00
    1   16    2     -1.46      0.00
    2   16    2     -1.48      0.00
    3   16    2     -0.02      0.00
    4   16    2     -1.07      0.00
    5   16    2      2.03      0.00
    6   16    2     -0.68      0.00
    7   16    2      0.17      0.00
    8   16    2     -0.90      0.00
    9   16    2      0.37      0.00
   10   16    2      0.61      0.00
   -8   17    2     -0.01      0.00
   -7   17    2      1.36      0.00
   -6   17    2     -0.04      0.00
   -5   17    2      2.09      0.00
   -4   17    2      1.26      0.00
   -2   17    2      0.98      0.00
   -1   17    2      0.55      0.00
    1   17    2      2.26      0.00
    2   17    2      0.57      0.00
    3   17    2     -0.13      0.00
    4   17    2     -1.78      0.00
    5   17    2     -0.77      0.00
    6   17    2      0.17      0.00
    7   17    2      0.35      0.00
    8   17    2      0.77      0.00
    9   17    2      0.78      0.00
   10   17    2      0.18      0.00
   -7   18    2     -2.97      0.00
   -6   18    2      0.39      0.00
   -5   18    2     -2.72      0.00
   -4   18    2      1.71      0.00
   -3   18    2     -1.97      0.00
   -2   18    2     -0.90      0.00
   -1   18    2      0.32      0.00
    0   18    2     -4.94      0.00
    1   18    2     -1.08      0.00
    2   18    2     -1.18      0.00
    3   18    2      1.23      0.00
    4   18    2      1.50      0.00
    5   18    2     -1.10      0.00
    6   18    2      0.54      0.00
    7   18    2     -0.68      0.00
    8   18    2     -0.16      0.00
    9   18    2     -1.07      0.00
   -6   19    2     -0.66      0.00
   -5   19    2     -0.11      0.00
   -4   19    2     -0.33      0.00
   -3   19    2      0.67      0.00
   -2   19    2      0.50      0.00
   -1   19    2     -0.02      0.00
    0   19    2      3.29      0.00
    1   19    2      0.08      0.00
    2   19    2      0.65      0.00
    3   19    2     -1.10      0.00
    4   19    2     -0.41      0.00
    5   19    2      0.94      0.00
    6   19    2     -0.68      0.00
    7   19    2      0.31      0.00
   -5   20    2      1.01      0.00
   -4   20    2     -1.35      0.00
   -3   20    2      0.73      0.00
   -2   20    2     -0.49      0.00
   -1   20    2     -0.09      0.00
    0   20    2     -1.06      0.00
    1   20    2     -0.72      0.00
    2   20    2      0.21      0.00
    3   20    2      0.25      0.00
    4   20    2     -0.62      0.00
    5   20    2     -0.88      0.00
    6   20    2      1.20      0.00
   -2   21    2     -1.70      0.00
   -1   21    2      0.25      0.00
    0   21    2      1.56      0.00
    1   21    2      0.90      0.00
    2   21    2     -0.21      0.00
    3   21    2      0.48      0.00
    4   21    2      1.28      0.00
   -4  -19    3     -0.66      0.00
   -3  -19    3     -0.30      0.00
   -2  -19    3     -0.27      0.00
   -1  -19    3      1.05      0.00
    0  -19    3     -0.41      0.00
    1  -19    3      1.17      0.00
    2  -19    3     -1.03      0.00
    3  -19    3     -1.54      0.00
    4  -19    3     -0.14      0.00
   -5  -18    3     -0.04      0.00
   -4  -18    3     -0.87      0.00
   -3  -18    3     -0.88      0.00
   -2  -18    3      0.29      0.00
   -1  -18    3     -0.04      0.00
    0  -18    3     -0.50      0.00
    1  -18    3      0.01      0.00
    2  -18    3      0.60      0.00
    3  -18    3      1.93      0.00
    4  -18    3     -0.52      0.00
    5  -18    3     -0.04      0.00
    6  -18    3      0.67      0.00
   -7  -17    3     -0.54      0.00
   -6  -17    3     -0.39      0.00
   -5  -17    3      0.47      0.00
   -4  -17    3      1.32      0.00
   -3  -17    3      0.41      0.00
   -2  -17    3     -0.74      0.00
   -1  -17    3      0.39      0.00
    0  -17    3      1.06      0.00
    1  -17    3      1.18      0.00
    2  -17    3     -0.33      0.00
    3  -17    3      0.65      0.00
    4  -17    3     -0.37      0.00
    5  -17    3     -1.16      0.00
    6  -17    3      0.02      0.00
    7  -17    3     -1.40      0.00
   -8  -16    3      0.31      0.00
   -7  -16    3      0.76      0.00
   -6  -16    3      0.80      0.00
   -5  -16    3     -1.09      0.00
   -4  -16    3      0.39      0.00
   -3  -16    3      0.75      0.00
   -2  -16    3     -0.02      0.00
   -1  -16    3      0.42      0.00
    0  -16    3     -1.10      0.00
    1  -16    3     -0.31      0.00
    2  -16    3      0.32      0.00
    3  -16    3     -1.11      0.00
    4  -16    3      0.15      0.00
    5  -16    3      1.17      0.00
    6  -16    3      1.07      0.00
    7  -16    3      0.39      0.00
    8  -16    3     -1.68      0.00
    9  -16    3     -1.11      0.00
   -9  -15    3      1.35      0.00
   -8  -15    3      0.56      0.00
   -7  -15    3     -1.50      0.00
   -6  -15    3     -0.46      0.00
   -5  -15    3      0.62      0.00
   -4  -15    3     -0.92      0.00
   -3  -15    3     -1.35      0.00
   -2  -15    3     -1.13      0.00
   -1  -15    3     -1.50      0.00
    0  -15    3      1.80      0.00
    1  -15    3     -2.24      0.00
    2  -15    3     -0.07      0.00
    3  -15    3      0.21      0.00
    4  -15    3     -0.55      0.00
    5  -15    3     -0.09      0.00
    6  -15    3     -0.98      0.00
    7  -15    3      0.26      0.00
    8  -15    3      0.66      0.00
    9  -15    3      0.75      0.00
  -10  -14    3      0.16      0.00
   -9  -14    3     -1.20      0.00
   -8  -14    3     -0.10      0.00
   -7  -14    3      0.49      0.00
   -6  -14    3      0.77      0.00
   -5  -14    3      0.49      0.00
   -4  -14    3      0.13      0.00
   -3  -14    3      1.89      0.00
   -2  -14    3      1.35      0.00
   -1  -14    3     -0.33      0.00
    0  -14    3      0.65      0.00
    1  -14    3     -0.65      0.00
    2  -14    3     -0.81      0.00
    3  -14    3      1.39      0.00
    4  -14    3      2.11      0.00
    5  -14    3      0.45      0.00
    6  -14    3     -1.09      0.00
    7  -14    3      0.44      0.00
    8  -14    3      0.32      0.00
    9  -14    3      1.50      0.00
   10  -14    3      0.45      0.00
  -10  -13    3      1.11      0.00
   -9  -13    3      0.57      0.00
   -8  -13    3     -0.59      0.00
   -7  -13    3     -0.23      0.00
   -6  -13    3     -0.57      0.00
   -5  -13    3      0.04      0.00
   -4  -13    3      0.12      0.00
   -3  -13    3     -1.19      0.00
   -2  -13    3      1.57      0.00
   -1  -13    3     -0.71      0.00
    0  -13    3      0.05      0.00
    1  -13    3      1.17      0.00
    2  -13    3     -1.73      0.00
    3  -13    3     -1.19      0.00
    4  -13    3     -1.42      0.00
    5  -13    3      1.04      0.00
    6  -13    3     -0.99      0.00
    7  -13    3      0.57      0.00
    8  -13    3     -0.92      0.00
    9  -13    3     -2.17      0.00
  -11  -12    3      0.00      0.00
  -10  -12    3     -0.95      0.00
   -9  -12    3     -0.81      0.00
   -8  -12    3      0.52      0.00
   -7  -12    3      0.21      0.00
   -6  -12    3     -0.89      0.00
   -5  -12    3     -0.81      0.00
   -4  -12    3      0.35      0.00
   -3  -12    3     -1.02      0.00
   -2  -12    3      0.27      0.00
   -1  -12    3      1.74      0.00
    0  -12    3     -0.07      0.00
    1  -12    3      4.78      0.00
    2  -12    3      4.52      0.00
    3  -12    3      2.54      0.00
    4  -12    3      0.62      0.00
    5  -12    3     -2.66      0.00
    6  -12    3      1.53      0.00
    7  -12    3     -1.46      0.00
    8  -12    3     -0.15      0.00
    9  -12    3      1.22      0.00
   10  -12    3      1.21      0.00
  -11  -11    3      0.26      0.00
  -10  -11    3     -0.79      0.00
   -9  -11    3      0.31      0.00
   -8  -11    3      0.04      0.00
   -7  -11    3      0.98      0.00
   -6  -11    3      1.68      0.00
   -5  -11    3      0.74      0.00
   -4  -11    3     -0.42      0.00
   -3  -11    3     -1.15      0.00
   -2  -11    3     -2.43      0.00
   -1  -11    3      1.13      0.00
    0  -11    3     -5.62      0.00
    1  -11    3     -8.39      0.00
    2  -11    3     -5.00      0.00
    3  -11    3     -3.35      0.00
    4  -11    3     -0.02      0.00
    5  -11    3     -0.18      0.00
    6  -11    3      0.75      0.00
    7  -11    3     -0.97      0.00
    8  -11    3      2.29      0.00
    9  -11    3      0.20      0.00
   10  -11    3     -2.24      0.00
   11  -11    3     -1.24      0.00
  -12  -10    3     -1.31      0.00
  -11  -10    3      0.02      0.00
  -10  -10    3      0.48      0.00
   -9  -10    3      0.41      0.00
   -8  -10    3     -1.31      0.00
   -7  -10    3     -0.72      0.00
   -6  -10    3     -0.02      0.00
   -5  -10    3     -0.36      0.00
   -4  -10    3      1.71      0.00
   -3  -10    3     -1.36      0.00
   -2  -10    3     -0.19      0.00
   -1  -10    3     -0.63      0.00
    0  -10    3      9.23      0.00
    1  -10    3      1.64      0.00
    2  -10    3      3.52      0.00
    3  -10    3     -2.82      0.00
    4  -10    3      1.14      0.00
    5  -10    3      1.73      0.00
    6  -10    3      1.07      0.00
    7  -10    3      0.29      0.00
    8  -10    3     -0.87      0.00
    9  -10    3     -1.73      0.00
   10  -10    3      0.10      0.00
   11  -10    3      0.58      0.00
   12  -10    3      1.02      0.00
  -12   -9    3     -0.61      0.00
  -11   -9    3     -0.76      0.00
  -10   -9    3      1.82      0.00
   -9   -9    3     -0.57      0.00
   -8   -9    3      1.26      0.00
   -7   -9    3      0.04      0.00
   -6   -9    3     -2.01      0.00
   -5   -9    3     -3.02      0.00
   -4   -9    3     -1.57      0.00
   -3   -9    3      6.78      0.00
   -2   -9    3     -0.17      0.00
   -1   -9    3     -3.24      0.00
    0   -9    3     -3.69      0.00
    1   -9    3      1.84      0.00
    2   -9    3      5.97      0.00
    3   -9    3      1.57      0.00
    4   -9    3      1.19      0.00
    5   -9    3     -1.59      0.00
    6   -9    3     -2.27      0.00
    7   -9    3      0.98      0.00
    8   -9    3      1.08      0.00
    9   -9    3      1.57      0.00
   10   -9    3     -0.17      0.00
   11   -9    3      0.08      0.00
   12   -9    3     -0.30      0.00
  -13   -8    3      0.31      0.00
  -12   -8    3      0.69      0.00
  -11   -8    3      0.55      0.00
  -10   -8    3     -0.88      0.00
   -9   -8    3     -0.49      0.00
   -8   -8    3     -0.10      0.00
   -7   -8    3     -0.11      0.00
   -6   -8    3      2.49      0.00
   -5   -8    3     -0.05      0.00
   -4   -8    3     -0.20      0.00
   -3   -8    3     -1.65      0.00
   -2   -8    3      5.21      0.00
   -1   -8    3      3.46      0.00
    0   -8    3      4.29      0.00
    1   -8    3     -2.79      0.00
    2   -8    3     -0.33      0.00
    3   -8    3     -0.80      0.00
    4   -8    3     -3.63      0.00
    5   -8    3     -0.38      0.00
    6   -8    3      0.27      0.00
    7   -8    3     -0.39      0.00
    8   -8    3     -0.22      0.00
    9   -8    3     -0.01      0.00
   10   -8    3     -0.81      0.00
   11   -8    3      0.42      0.00
   12   -8    3      0.16      0.00
   13   -8    3      0.40      0.00
  -13   -7    3     -0.43      0.00
  -12   -7    3     -0.15      0.00
  -11   -7    3     -0.83      0.00
  -10   -7    3     -0.01      0.00
   -9   -7    3     -0.32      0.00
   -8   -7    3     -0.64      0.00
   -7   -7    3      1.44      0.00
   -6   -7    3      1.35      0.00
   -5   -7    3      2.56      0.00
   -4   -7    3      1.17      0.00
   -3   -7    3     -2.16      0.00
   -2   -7    3     -4.90      0.00
   -1   -7    3    -10.10      0.00
    0   -7    3     -3.57      0.00
    1   -7    3     -3.32      0.00
    2   -7    3     -6.67      0.00
    3   -7    3      3.85      0.00
    4   -7    3      2.23      0.00
    5   -7    3      3.24      0.00
    6   -7    3     -1.44      0.00
    7   -7    3     -1.07      0.00
    8   -7    3     -1.97      0.00
    9   -7    3     -0.66      0.00
   10   -7    3      1.09      0.00
   11   -7    3     -0.53      0.00
   12   -7    3     -1.06      0.00
   13   -7    3      0.68      0.00
  -13   -6    3      0.68      0.00
  -12   -6    3      0.17      0.00
  -11   -6    3     -0.72      0.00
  -10   -6    3      0.79      0.00
   -9   -6    3      0.89      0.00
   -8   -6    3     -0.24      0.00
   -7   -6    3     -1.62      0.00
   -6   -6    3     -2.04      0.00
   -5   -6    3      1.26      0.00
   -4   -6    3     -2.86      0.00
   -3   -6    3      4.14      0.00
   -2   -6    3     10.52      0.00
   -1   -6    3      5.25      0.00
    0   -6    3     -0.22      0.00
    1   -6    3      8.99      0.00
    2   -6    3     -4.82      0.00
    3   -6    3     -0.70      0.00
    4   -6    3      0.00      0.00
    5   -6    3      1.75      0.00
    6   -6    3      2.73      0.00
    7   -6    3      2.81      0.00
    8   -6    3      1.01      0.00
    9   -6    3      1.17      0.00
   10   -6    3      0.57      0.00
   11   -6    3      0.89      0.00
   12   -6    3      0.42      0.00
   13   -6    3     -0.09      0.00
   14   -6    3     -0.26      0.00
  -13   -5    3     -0.36      0.00
  -12   -5    3      0.15      0.00
  -11   -5    3      2.02      0.00
  -10   -5    3     -0.44      0.00
   -9   -5    3      0.43      0.00
   -8   -5    3      1.58      0.00
   -7   -5    3     -0.79      0.00
   -6   -5    3     -1.39      0.00
   -5   -5    3     -0.04      0.00
   -4   -5    3      0.68      0.00
   -3   -5    3     -7.99      0.00
   -2   -5    3    -10.76      0.00
   -1   -5    3     -1.18      0.00
    0   -5    3     -4.07      0.00
    1   -5    3      6.33      0.00
    2   -5    3      5.52      0.00
    3   -5    3     -5.62      0.00
    4   -5    3     -5.05      0.00
    5   -5    3     -4.46      0.00
    6   -5    3      2.25      0.00
    7   -5    3      0.68      0.00
    8   -5    3     -1.01      0.00
    9   -5    3      0.06      0.00
   10   -5    3     -1.08      0.00
   11   -5    3     -0.33      0.00
   12   -5    3      0.65      0.00
   13   -5    3      0.09      0.00
   14   -5    3      0.88      0.00
  -14   -4    3     -0.79      0.00
  -13   -4    3      0.01      0.00
  -12   -4    3      0.45      0.00
  -11   -4    3     -1.25      0.00
  -10   -4    3      0.11      0.00
   -9   -4    3     -0.73      0.00
   -8   -4    3      0.39      0.00
   -7   -4    3      0.82      0.00
   -6   -4    3     -1.19      0.00
   -5   -4    3     -0.99      0.00
   -4   -4    3      0.16      0.00
   -3   -4    3      4.88      0.00
   -2   -4    3     -6.55      0.00
   -1   -4    3     12.28      0.00
    0   -4    3     -5.91      0.00
    1   -4    3     -1.95      0.00
    2   -4    3      7.06      0.00
    3   -4    3      5.35      0.00
    4   -4    3      1.62      0.00
    5   -4    3     -3.14      0.00
    6   -4    3     -7.40      0.00
    7   -4    3     -4.24      0.00
    8   -4    3     -0.79      0.00
    9   -4    3     -1.16      0.00
   10   -4    3     -0.36      0.00
   11   -4    3     -0.11      0.00
   12   -4    3     -0.62      0.00
   13   -4    3     -0.56      0.00
   14   -4    3     -0.98      0.00
   15   -4    3     -0.52      0.00
  -14   -3    3      0.30      0.00
  -13   -3    3      1.06      0.00
  -12   -3    3     -2.64      0.00
  -11   -3    3      0.75      0.00
  -10   -3    3     -0.53      0.00
   -9   -3    3     -0.06      0.00
   -8   -3    3     -1.84      0.00
   -7   -3    3      0.85      0.00
   -6   -3    3      2.02      0.00
   -5   -3    3      1.99      0.00
   -4   -3    3      5.70      0.00
   -3   -3    3      1.27      0.00
   -2   -3    3      7.93      0.00
   -1   -3    3     10.69      0.00
    0   -3    3      4.61      0.00
    1   -3    3    -16.92      0.00
    2   -3    3     -6.44      0.00
    3   -3    3      0.29      0.00
    4   -3    3      6.16      0.00
    5   -3    3      7.72      0.00
    6   -3    3      6.47      0.00
    7   -3    3      4.00      0.00
    8   -3    3     -1.25      0.00
    9   -3    3      0.30      0.00
   10   -3    3      1.53      0.00
   11   -3    3      0.40      0.00
   12   -3    3      0.56      0.00
   13   -3    3     -0.50      0.00
   14   -3    3      1.57      0.00
   15   -3    3      0.00      0.00
  -14   -2    3     -0.08      0.00
  -13   -2    3      0.55      0.00
  -12   -2    3      2.01      0.00
  -11   -2    3      0.46      0.00
  -10   -2    3     -1.29      0.00
   -9   -2    3      2.32      0.00
   -7   -2    3      0.57      0.00
   -6   -2    3     -1.02      0.00
   -5   -2    3     -4.83      0.00
   -4   -2    3     -0.03      0.00
   -3   -2    3     -4.92      0.00
   -2   -2    3     -0.84      0.00
    2   -2    3     12.50      0.00
    3   -2    3     -7.95      0.00
    4   -2    3     -4.55      0.00
    5   -2    3     -4.27      0.00
    6   -2    3     -1.91      0.00
    7   -2    3      1.08      0.00
    8   -2    3      3.36      0.00
    9   -2    3     -0.80      0.00
   10   -2    3      0.29      0.00
   11   -2    3     -0.80      0.00
   12   -2    3     -0.02      0.00
   13   -2    3     -0.10      0.00
   14   -2    3      0.45      0.00
   15   -2    3      0.26      0.00
  -14   -1    3      0.00      0.00
  -13   -1    3     -2.18      0.00
  -12   -1    3      0.98      0.00
  -11   -1    3     -0.51      0.00
  -10   -1    3      0.24      0.00
   -9   -1    3     -0.02      0.00
   -8   -1    3      1.33      0.00
   -7   -1    3      0.57      0.00
   -6   -1    3      0.37      0.00
   -5   -1    3      4.22      0.00
   -4   -1    3    -10.58      0.00
   -3   -1    3      3.96      0.00
    3   -1    3     32.25      0.00
    4   -1    3     13.82      0.00
    5   -1    3     -1.67      0.00
    6   -1    3     -2.08      0.00
    7   -1    3     -2.90      0.00
    8   -1    3     -0.82      0.00
    9   -1    3     -0.05      0.00
   10   -1    3     -1.50      0.00
   11   -1    3     -0.02      0.00
   12   -1    3     -0.47      0.00
   13   -1    3      0.17      0.00
   14   -1    3     -2.26      0.00
   15   -1    3      0.97      0.00
  -14    0    3     -0.09      0.00
  -13    0    3      0.53      0.00
  -11    0    3     -0.34      0.00
  -10    0    3      0.62      0.00
   -9    0    3     -2.07      0.00
   -8    0    3     -0.90      0.00
   -7    0    3     -3.51      0.00
   -6    0    3     -0.70      0.00
   -5    0    3      3.82      0.00
   -4    0    3      1.33      0.00
   -3    0    3      9.28      0.00
    4    0    3    -24.30      0.00
    5    0    3      1.96      0.00
    6    0    3     -1.07      0.00
    7    0    3      2.57      0.00
    8    0    3     -0.03      0.00
    9    0    3      1.51      0.00
   10    0    3      0.62      0.00
   11    0    3      0.84      0.00
   12    0    3      0.18      0.00
   13    0    3      0.25      0.00
   14    0    3      1.51      0.00
   15    0    3     -0.57      0.00
  -14    1    3      1.31      0.00
  -12    1    3     -0.59      0.00
  -11    1    3      1.16      0.00
  -10    1    3     -1.80      0.00
   -9    1    3      0.48      0.00
   -8    1    3      3.53      0.00
   -7    1    3      1.75      0.00
   -6    1    3      2.16      0.00
   -5    1    3     -4.98      0.00
   -4    1    3      3.11      0.00
   -3    1    3     -8.27      0.00
    4    1    3      7.64      0.00
    5    1    3      2.39      0.00
    6    1    3     -1.61      0.00
    7    1    3     -2.09      0.00
    8    1    3     -0.41      0.00
    9    1    3      1.27      0.00
   10    1    3     -1.08      0.00
   11    1    3      0.13      0.00
   12    1    3      0.10      0.00
   13    1    3     -0.06      0.00
   14    1    3      1.29      0.00
   15    1    3      0.42      0.00
  -14    2    3     -1.14      0.00
  -12    2    3      0.22      0.00
  -11    2    3      0.21      0.00
  -10    2    3      1.53      0.00
   -9    2    3     -1.85      0.00
   -8    2    3     -1.83      0.00
   -7    2    3      1.55      0.00
   -6    2    3     -0.97      0.00
   -5    2    3     -1.57      0.00
   -4    2    3      2.98      0.00
   -3    2    3     -6.41      0.00
   -2    2    3      7.60      0.00
    4    2    3     12.03      0.00
    5    2    3      1.47      0.00
    6    2    3      2.53      0.00
    7    2    3     -0.68      0.00
    8    2    3     -0.28      0.00
    9    2    3     -0.61      0.00
   10    2    3      0.07      0.00
   11    2    3      0.22      0.00
   12    2    3     -2.65      0.00
   13    2    3      0.48      0.00
   14    2    3     -2.37      0.00
   15    2    3     -1.15      0.00
  -13    3    3      0.93      0.00
  -12    3    3     -0.51      0.00
  -11    3    3     -0.49      0.00
  -10    3    3      0.74      0.00
   -9    3    3      1.10      0.00
   -8    3    3      0.29      0.00
   -7    3    3     -1.15      0.00
   -6    3    3      1.08      0.00
   -5    3    3      1.14      0.00
   -4    3    3     -0.04      0.00
   -3    3    3      1.69      0.00
   -2    3    3    -15.81      0.00
    3    3    3    -22.39      0.00
    4    3    3     -7.14      0.00
    5    3    3     -4.86      0.00
    6    3    3      5.86      0.00
    7    3    3     -0.14      0.00
    8    3    3      1.15      0.00
    9    3    3      0.03      0.00
   10    3    3      1.89      0.00
   11    3    3     -0.07      0.00
   12    3    3      3.01      0.00
   13    3    3      0.38      0.00
   14    3    3      0.17      0.00
   15    3    3      0.30      0.00
  -13    4    3      0.93      0.00
  -12    4    3     -0.15      0.00
  -11    4    3     -1.39      0.00
  -10    4    3      0.81      0.00
   -9    4    3      0.23      0.00
   -8    4    3     -0.14      0.00
   -7    4    3      0.34      0.00
   -6    4    3     -0.23      0.00
   -5    4    3     -2.44      0.00
   -4    4    3     -2.16      0.00
   -3    4    3      3.13      0.00
   -2    4    3     -8.91      0.00
   -1    4    3      2.85      0.00
    3    4    3     27.08      0.00
    4    4    3     -0.15      0.00
    5    4    3     -1.39      0.00
    6    4    3     -0.81      0.00
    7    4    3     -1.63      0.00
    8    4    3     -0.14      0.00
    9    4    3     -3.39      0.00
   10    4    3     -1.89      0.00
   11    4    3     -1.54      0.00
   12    4    3      0.54      0.00
   13    4    3     -1.00      0.00
   14    4    3      1.57      0.00
   15    4    3     -0.58      0.00
  -13    5    3     -1.13      0.00
  -12    5    3      0.73      0.00
  -11    5    3      0.41      0.00
  -10    5    3     -0.72      0.00
   -9    5    3      0.92      0.00
   -8    5    3     -1.41      0.00
   -7    5    3     -1.78      0.00
   -6    5    3     -1.68      0.00
   -5    5    3      3.51      0.00
   -4    5    3     -1.23      0.00
   -3    5    3      7.87      0.00
   -2    5    3     11.10      0.00
   -1    5    3     13.47      0.00
    0    5    3     19.69      0.00
    2    5    3    -42.18      0.00
    3    5    3      6.16      0.00
    5    5    3      0.24      0.00
    6    5    3     -1.38      0.00
    7    5    3     -0.17      0.00
    8    5    3      1.06      0.00
    9    5    3      2.58      0.00
   10    5    3     -0.27      0.00
   11    5    3     -0.36      0.00
   12    5    3     -1.34      0.00
   13    5    3      0.57      0.00
   14    5    3     -0.59      0.00
   15    5    3     -0.10      0.00
  -13    6    3      0.95      0.00
  -12    6    3     -2.76      0.00
  -11    6    3     -0.11      0.00
  -10    6    3     -0.44      0.00
   -9    6    3      0.15      0.00
   -8    6    3      0.93      0.00
   -7    6    3      1.43      0.00
   -6    6    3      1.68      0.00
   -5    6    3     -0.23      0.00
   -4    6    3      1.84      0.00
   -3    6    3     -7.78      0.00
   -2    6    3      0.20      0.00
   -1    6    3    -19.84      0.00
    0    6    3    -11.32      0.00
    1    6    3    -10.55      0.00
    2    6    3     11.29      0.00
    3    6    3    -14.00      0.00
    4    6    3      7.01      0.00
    5    6    3      1.84      0.00
    6    6    3      0.39      0.00
    7    6    3      3.65      0.00
    8    6    3     -1.48      0.00
    9    6    3      0.74      0.00
   10    6    3      1.95      0.00
   11    6    3      0.65      0.00
   12    6    3      0.73      0.00
   13    6    3      0.16      0.00
   14    6    3     -0.32      0.00
   15    6    3      0.35      0.00
  -13    7    3     -1.02      0.00
  -12    7    3      1.85      0.00
  -11    7    3      0.30      0.00
  -10    7    3      0.39      0.00
   -9    7    3     -0.33      0.00
   -8    7    3      1.15      0.00
   -7    7    3     -0.19      0.00
   -6    7    3      0.34      0.00
   -5    7    3     -1.93      0.00
   -4    7    3     -0.58      0.00
   -3    7    3     -4.37      0.00
   -2    7    3     -0.17      0.00
   -1    7    3      4.32      0.00
    0    7    3      5.63      0.00
    1    7    3     -2.41      0.00
    2    7    3     13.58      0.00
    3    7    3      4.40      0.00
    4    7    3      0.18      0.00
    5    7    3      0.26      0.00
    6    7    3     -2.83      0.00
    7    7    3     -2.23      0.00
    8    7    3      0.25      0.00
    9    7    3     -2.74      0.00
   10    7    3      0.02      0.00
   11    7    3      1.27      0.00
   12    7    3     -1.47      0.00
   13    7    3     -0.24      0.00
   14    7    3     -1.02      0.00
   15    7    3      0.43      0.00
  -13    8    3     -0.16      0.00
  -12    8    3      1.25      0.00
  -11    8    3      0.66      0.00
  -10    8    3     -0.24      0.00
   -9    8    3     -0.58      0.00
   -8    8    3     -1.15      0.00
   -7    8    3     -1.34      0.00
   -6    8    3     -1.36      0.00
   -5    8    3      0.93      0.00
   -4    8    3      5.13      0.00
   -3    8    3      1.73      0.00
   -2    8    3      4.01      0.00
   -1    8    3      2.75      0.00
    0    8    3     -2.53      0.00
    1    8    3      8.15      0.00
    2    8    3     -5.71      0.00
    3    8    3      2.04      0.00
    4    8    3     -2.64      0.00
    5    8    3     -0.45      0.00
    6    8    3     -0.52      0.00
    7    8    3      0.07      0.00
    8    8    3     -0.04      0.00
    9    8    3      0.75      0.00
   10    8    3     -1.33      0.00
   11    8    3     -0.22      0.00
   12    8    3      1.22      0.00
   13    8    3      0.71      0.00
   14    8    3      0.81      0.00
  -13    9    3     -1.08      0.00
  -12    9    3     -0.85      0.00
  -11    9    3     -0.34      0.00
  -10    9    3     -0.63      0.00
   -9    9    3     -0.53      0.00
   -8    9    3     -0.53      0.00
   -6    9    3      1.65      0.00
   -5    9    3      0.14      0.00
   -4    9    3     -1.60      0.00
   -3    9    3      0.08      0.00
   -2    9    3     -1.22      0.00
   -1    9    3      2.89      0.00
    0    9    3     -0.61      0.00
    1    9    3     -8.35      0.00
    2    9    3     -3.29      0.00
    3    9    3     -4.55      0.00
    4    9    3     -2.83      0.00
    5    9    3      2.52      0.00
    6    9    3      1.75      0.00
    7    9    3      1.07      0.00
    8    9    3     -0.41      0.00
    9    9    3      1.98      0.00
   10    9    3      0.80      0.00
   11    9    3     -0.65      0.00
   12    9    3     -0.09      0.00
   13    9    3     -0.86      0.00
   14    9    3      0.27      0.00
  -12   10    3     -0.29      0.00
  -11   10    3     -0.11      0.00
  -10   10    3      2.14      0.00
   -9   10    3      1.49      0.00
   -8   10    3      0.70      0.00
   -7   10    3      1.10      0.00
   -6   10    3     -1.65      0.00
   -5   10    3      0.18      0.00
   -4   10    3     -2.65      0.00
   -3   10    3      0.47      0.00
   -2   10    3     -6.11      0.00
   -1   10    3     -1.20      0.00
    0   10    3     -0.08      0.00
    1   10    3     -0.40      0.00
    2   10    3      1.83      0.00
    3   10    3      3.29      0.00
    4   10    3      1.61      0.00
    5   10    3     -1.73      0.00
    6   10    3      0.78      0.00
    7   10    3     -0.05      0.00
    8   10    3      0.47      0.00
    9   10    3     -2.04      0.00
   10   10    3     -1.09      0.00
   11   10    3      0.11      0.00
   12   10    3      0.18      0.00
   13   10    3      0.02      0.00
   14   10    3     -1.05      0.00
  -12   11    3      1.30      0.00
  -11   11    3      0.63      0.00
  -10   11    3     -2.80      0.00
   -9   11    3     -0.08      0.00
   -8   11    3     -0.06      0.00
   -7   11    3      1.91      0.00
   -6   11    3      0.25      0.00
   -5   11    3     -0.92      0.00
   -4   11    3      0.64      0.00
   -3   11    3      0.20      0.00
   -2   11    3      2.55      0.00
   -1   11    3     -2.58      0.00
    0   11    3      4.61      0.00
    1   11    3      0.36      0.00
    2   11    3      2.02      0.00
    3   11    3      1.39      0.00
    4   11    3      3.22      0.00
    5   11    3     -2.26      0.00
    6   11    3     -3.39      0.00
    7   11    3     -0.31      0.00
    8   11    3     -0.38      0.00
    9   11    3      1.44      0.00
   10   11    3      0.91      0.00
   11   11    3      0.50      0.00
   12   11    3     -0.40      0.00
   13   11    3     -0.14      0.00
  -10   12    3     -0.33      0.00
   -9   12    3     -0.45      0.00
   -8   12    3     -0.90      0.00
   -7   12    3     -1.10      0.00
   -6   12    3      0.27      0.00
   -5   12    3     -0.12      0.00
   -4   12    3     -1.10      0.00
   -3   12    3      3.53      0.00
   -2   12    3      1.34      0.00
   -1   12    3      0.40      0.00
    0   12    3     -1.27      0.00
    1   12    3     -0.02      0.00
    2   12    3     -2.24      0.00
    3   12    3     -2.10      0.00
    4   12    3      0.93      0.00
    5   12    3      4.56      0.00
    6   12    3      3.42      0.00
    7   12    3     -0.07      0.00
    8   12    3      1.04      0.00
    9   12    3     -0.12      0.00
   10   12    3      0.56      0.00
   11   12    3     -0.50      0.00
   12   12    3      0.82      0.00
   13   12    3     -0.87      0.00
   -9   13    3     -1.40      0.00
   -8   13    3      0.29      0.00
   -7   13    3      0.75      0.00
   -6   13    3     -0.93      0.00
   -5   13    3      2.78      0.00
   -4   13    3      0.87      0.00
   -3   13    3     -1.16      0.00
   -2   13    3     -2.39      0.00
   -1   13    3      0.76      0.00
    0   13    3     -1.63      0.00
    1   13    3      1.60      0.00
    2   13    3      1.06      0.00
    3   13    3     -1.28      0.00
    4   13    3     -5.24      0.00
    5   13    3     -2.93      0.00
    6   13    3     -2.92      0.00
    7   13    3      1.40      0.00
    8   13    3     -0.80      0.00
    9   13    3     -1.35      0.00
   10   13    3     -0.48      0.00
   11   13    3     -0.43      0.00
   12   13    3     -0.52      0.00
   13   13    3      0.94      0.00
   -9   14    3      1.76      0.00
   -8   14    3      1.61      0.00
   -7   14    3     -0.27      0.00
   -5   14    3     -1.39      0.00
   -4   14    3     -0.91      0.00
   -2   14    3      3.03      0.00
   -1   14    3     -0.42      0.00
    0   14    3     -0.08      0.00
    1   14    3     -0.97      0.00
    2   14    3      0.85      0.00
    3   14    3      1.75      0.00
    4   14    3      4.09      0.00
    5   14    3      1.58      0.00
    6   14    3     -1.50      0.00
    7   14    3     -0.61      0.00
    8   14    3     -0.18      0.00
    9   14    3      1.58      0.00
   10   14    3     -1.07      0.00
   11   14    3      0.22      0.00
   12   14    3     -1.23      0.00
   -9   15    3     -0.70      0.00
   -8   15    3     -1.57      0.00
   -7   15    3     -1.04      0.00
   -6   15    3      0.81      0.00
   -5   15    3      1.18      0.00
   -4   15    3     -1.98      0.00
   -3   15    3      3.48      0.00
   -2   15    3     -3.73      0.00
   -1   15    3      0.96      0.00
    0   15    3     -2.28      0.00
    1   15    3      3.16      0.00
    2   15    3     -2.20      0.00
    3   15    3     -1.30      0.00
    4   15    3     -2.17      0.00
    5   15    3      1.17      0.00
    6   15    3      5.02      0.00
    7   15    3     -1.56      0.00
    8   15    3      0.39      0.00
    9   15    3     -1.24      0.00
   10   15    3      0.32      0.00
   11   15    3      0.60      0.00
   -9   16    3      0.00      0.00
   -8   16    3      0.13      0.00
   -6   16    3      0.00      0.00
   -5   16    3     -1.20      0.00
   -4   16    3     -1.18      0.00
   -3   16    3     -1.56      0.00
   -2   16    3      1.57      0.00
   -1   16    3      0.03      0.00
    0   16    3      1.17      0.00
    1   16    3     -1.05      0.00
    2   16    3      3.07      0.00
    3   16    3      2.39      0.00
    4   16    3     -1.50      0.00
    5   16    3     -1.83      0.00
    6   16    3     -3.39      0.00
    7   16    3      0.31      0.00
    8   16    3     -0.09      0.00
    9   16    3      1.43      0.00
   10   16    3      0.43      0.00
   11   16    3     -0.40      0.00
   -8   17    3      0.54      0.00
   -7   17    3     -1.53      0.00
   -6   17    3     -0.76      0.00
   -5   17    3      0.04      0.00
   -4   17    3      3.21      0.00
   -3   17    3     -1.21      0.00
   -2   17    3      1.91      0.00
   -1   17    3      0.55      0.00
    0   17    3     -0.43      0.00
    1   17    3     -1.10      0.00
    2   17    3     -3.11      0.00
    3   17    3     -2.59      0.00
    4   17    3      0.90      0.00
    5   17    3      0.31      0.00
    6   17    3      0.80      0.00
    7   17    3      0.07      0.00
    8   17    3      0.18      0.00
    9   17    3     -0.52      0.00
   10   17    3      0.90      0.00
   -7   18    3     -0.29      0.00
   -6   18    3      2.35      0.00
   -5   18    3     -0.29      0.00
   -4   18    3      2.15      0.00
   -3   18    3     -0.99      0.00
   -2   18    3     -1.53      0.00
   -1   18    3      0.83      0.00
    0   18    3     -1.03      0.00
    1   18    3      2.44      0.00
    2   18    3      2.53      0.00
    3   18    3      1.00      0.00
    4   18    3      1.87      0.00
    5   18    3     -0.59      0.00
    6   18    3      1.89      0.00
    7   18    3     -0.14      0.00
    8   18    3     -0.03      0.00
    9   18    3     -1.57      0.00
   -6   19    3     -1.13      0.00
   -5   19    3     -1.02      0.00
   -4   19    3     -2.30      0.00
   -3   19    3      0.41      0.00
   -2   19    3     -0.59      0.00
   -1   19    3     -1.54      0.00
    0   19    3      0.96      0.00
    1   19    3     -4.57      0.00
    2   19    3      0.45      0.00
    3   19    3     -0.46      0.00
    4   19    3     -0.98      0.00
    5   19    3     -0.18      0.00
    6   19    3     -2.22      0.00
    7   19    3      1.88      0.00
    8   19    3     -0.65      0.00
   -5   20    3      2.23      0.00
   -4   20    3      0.04      0.00
   -3   20    3      2.20      0.00
   -2   20    3     -0.35      0.00
   -1   20    3      0.58      0.00
    0   20    3      0.90      0.00
    1   20    3      2.07      0.00
    2   20    3     -1.22      0.00
    3   20    3     -0.44      0.00
    4   20    3      0.10      0.00
    5   20    3     -0.05      0.00
    6   20    3      1.31      0.00
    7   20    3     -0.64      0.00
   -3   21    3     -1.69      0.00
   -2   21    3      0.74      0.00
   -1   21    3     -0.23      0.00
    0   21    3      0.61      0.00
    1   21    3     -0.97      0.00
    2   21    3      0.61      0.00
    3   21    3      0.08      0.00
    4   21    3      1.43      0.00
    5   21    3     -0.43      0.00
   -2  -19    4      0.09      0.00
   -1  -19    4      0.47      0.00
    0  -19    4     -0.56      0.00
    1  -19    4      0.09      0.00
    2  -19    4     -0.19      0.00
    3  -19    4     -0.61      0.00
   -5  -18    4      0.54      0.00
   -4  -18    4      0.14      0.00
   -3  -18    4     -1.51      0.00
   -2  -18    4     -0.30      0.00
   -1  -18    4     -0.32      0.00
    0  -18    4      1.01      0.00
    1  -18    4     -0.37      0.00
    2  -18    4      0.81      0.00
    3  -18    4      0.70      0.00
    4  -18    4     -0.34      0.00
    5  -18    4      0.21      0.00
   -6  -17    4     -0.19      0.00
   -5  -17    4     -1.27      0.00
   -4  -17    4      0.29      0.00
   -3  -17    4      0.72      0.00
   -2  -17    4     -0.55      0.00
   -1  -17    4      0.06      0.00
    0  -17    4     -0.26      0.00
    1  -17    4     -1.48      0.00
    2  -17    4      0.65      0.00
    3  -17    4      0.08      0.00
    4  -17    4     -1.05      0.00
    5  -17    4     -0.54      0.00
    6  -17    4      1.54      0.00
    7  -17    4     -0.64      0.00
   -7  -16    4      0.65      0.00
   -6  -16    4     -0.45      0.00
   -5  -16    4      0.32      0.00
   -4  -16    4      0.68      0.00
   -3  -16    4      0.57      0.00
   -2  -16    4     -0.42      0.00
   -1  -16    4     -0.66      0.00
    0  -16    4      1.70      0.00
    1  -16    4      0.29      0.00
    2  -16    4     -0.15      0.00
    3  -16    4     -0.29      0.00
    4  -16    4      0.33      0.00
    5  -16    4      0.88      0.00
    6  -16    4     -1.42      0.00
    7  -16    4     -0.41      0.00
    8  -16    4     -1.41      0.00
   -8  -15    4     -0.14      0.00
   -7  -15    4     -0.27      0.00
   -6  -15    4      1.36      0.00
   -5  -15    4      0.37      0.00
   -4  -15    4     -1.13      0.00
   -3  -15    4     -0.43      0.00
   -2  -15    4      2.19      0.00
   -1  -15    4     -0.03      0.00
    0  -15    4      1.02      0.00
    1  -15    4     -1.00      0.00
    2  -15    4     -0.76      0.00
    3  -15    4     -0.08      0.00
    4  -15    4      0.89      0.00
    5  -15    4      1.09      0.00
    6  -15    4      0.80      0.00
    7  -15    4      1.67      0.00
    8  -15    4      0.94      0.00
    9  -15    4      0.32      0.00
   -9  -14    4     -0.18      0.00
   -8  -14    4      0.56      0.00
   -7  -14    4     -1.64      0.00
   -6  -14    4     -0.84      0.00
   -5  -14    4      0.59      0.00
   -4  -14    4      1.25      0.00
   -3  -14    4     -0.82      0.00
   -2  -14    4     -0.43      0.00
   -1  -14    4     -1.51      0.00
    0  -14    4     -0.95      0.00
    1  -14    4      0.08      0.00
    2  -14    4     -1.24      0.00
    4  -14    4     -0.44      0.00
    5  -14    4     -2.29      0.00
    6  -14    4     -1.36      0.00
    7  -14    4     -0.95      0.00
    8  -14    4      0.22      0.00
    9  -14    4      0.51      0.00
   10  -14    4     -0.93      0.00
  -10  -13    4      0.93      0.00
   -9  -13    4      0.15      0.00
   -8  -13    4     -1.72      0.00
   -7  -13    4      2.43      0.00
   -6  -13    4     -0.06      0.00
   -5  -13    4     -0.94      0.00
   -4  -13    4     -1.40      0.00
   -3  -13    4     -0.16      0.00
   -2  -13    4      0.53      0.00
   -1  -13    4      2.14      0.00
    0  -13    4     -1.35      0.00
    1  -13    4      2.28      0.00
    2  -13    4      2.23      0.00
    3  -13    4      3.12      0.00
    4  -13    4      1.37      0.00
    5  -13    4      1.47      0.00
    7  -13    4      0.13      0.00
    8  -13    4     -1.63      0.00
    9  -13    4     -1.03      0.00
   10  -13    4      1.47      0.00
  -10  -12    4     -0.46      0.00
   -9  -12    4      0.80      0.00
   -8  -12    4      0.71      0.00
   -7  -12    4     -0.97      0.00
   -6  -12    4     -0.79      0.00
   -5  -12    4     -0.43      0.00
   -4  -12    4      1.20      0.00
   -3  -12    4     -0.13      0.00
   -2  -12    4     -1.57      0.00
   -1  -12    4      0.98      0.00
    0  -12    4      0.16      0.00
    1  -12    4     -0.79      0.00
    2  -12    4     -0.66      0.00
    3  -12    4     -4.10      0.00
    4  -12    4     -0.90      0.00
    5  -12    4     -1.78      0.00
    7  -12    4     -0.65      0.00
    8  -12    4      2.00      0.00
    9  -12    4      0.95      0.00
   10  -12    4      0.02      0.00
  -11  -11    4     -0.81      0.00
  -10  -11    4     -1.73      0.00
   -9  -11    4     -1.05      0.00
   -8  -11    4      0.06      0.00
   -7  -11    4      1.28      0.00
   -6  -11    4      1.15      0.00
   -5  -11    4      0.78      0.00
   -4  -11    4      0.68      0.00
   -3  -11    4      0.36      0.00
   -2  -11    4     -1.31      0.00
   -1  -11    4     -1.72      0.00
    0  -11    4     -0.49      0.00
    1  -11    4     -2.31      0.00
    2  -11    4      1.73      0.00
    3  -11    4     -0.21      0.00
    4  -11    4      0.63      0.00
    5  -11    4      0.18      0.00
    6  -11    4     -0.83      0.00
    7  -11    4      0.10      0.00
    8  -11    4     -0.04      0.00
    9  -11    4     -0.16      0.00
   11  -11    4      2.21      0.00
   12  -11    4      1.01      0.00
  -11  -10    4      0.83      0.00
  -10  -10    4      0.54      0.00
   -9  -10    4      0.15      0.00
   -8  -10    4     -0.38      0.00
   -7  -10    4      0.61      0.00
   -6  -10    4      0.28      0.00
   -5  -10    4     -1.32      0.00
   -4  -10    4     -2.06      0.00
   -3  -10    4      0.49      0.00
   -2  -10    4      2.11      0.00
   -1  -10    4      0.73      0.00
    0  -10    4      1.86      0.00
    1  -10    4     -3.11      0.00
    2  -10    4     -2.07      0.00
    3  -10    4     -0.46      0.00
    4  -10    4     -0.15      0.00
    5  -10    4      2.50      0.00
    6  -10    4     -0.55      0.00
    7  -10    4      0.26      0.00
    8  -10    4     -0.18      0.00
    9  -10    4     -0.88      0.00
   10  -10    4     -0.63      0.00
   11  -10    4     -1.85      0.00
   12  -10    4     -0.89      0.00
  -12   -9    4     -0.70      0.00
  -11   -9    4      0.19      0.00
  -10   -9    4      2.18      0.00
   -9   -9    4     -0.03      0.00
   -8   -9    4     -0.29      0.00
   -7   -9    4     -2.94      0.00
   -6   -9    4     -1.04      0.00
   -5   -9    4     -0.71      0.00
   -4   -9    4      0.97      0.00
   -3   -9    4      2.65      0.00
   -2   -9    4     -1.56      0.00
   -1   -9    4      0.54      0.00
    0   -9    4      5.24      0.00
    1   -9    4     10.05      0.00
    2   -9    4      5.30      0.00
    3   -9    4      1.04      0.00
    4   -9    4     -0.48      0.00
    5   -9    4     -2.52      0.00
    6   -9    4      0.71      0.00
    7   -9    4      1.27      0.00
    8   -9    4      0.69      0.00
    9   -9    4      1.82      0.00
   10   -9    4     -0.71      0.00
   11   -9    4      0.97      0.00
   12   -9    4      0.78      0.00
   13   -9    4      0.97      0.00
  -12   -8    4      0.99      0.00
  -11   -8    4      0.07      0.00
  -10   -8    4     -1.09      0.00
   -9   -8    4      0.15      0.00
   -8   -8    4      0.16      0.00
   -7   -8    4      2.45      0.00
   -6   -8    4      0.14      0.00
   -5   -8    4      0.88      0.00
   -4   -8    4     -0.36      0.00
   -3   -8    4      1.20      0.00
   -2   -8    4      1.69      0.00
   -1   -8    4     -7.91      0.00
    0   -8    4    -10.55      0.00
    1   -8    4     -7.82      0.00
    2   -8    4     -3.65      0.00
    3   -8    4      1.39      0.00
    4   -8    4     -0.89      0.00
    5   -8    4      1.65      0.00
    6   -8    4     -3.64      0.00
    7   -8    4     -1.46      0.00
    8   -8    4     -1.38      0.00
    9   -8    4     -0.06      0.00
   10   -8    4      1.22      0.00
   11   -8    4      0.15      0.00
   12   -8    4     -0.82      0.00
   13   -8    4      0.94      0.00
  -13   -7    4     -0.38      0.00
  -12   -7    4     -0.01      0.00
  -11   -7    4     -0.16      0.00
  -10   -7    4     -0.53      0.00
   -9   -7    4      0.09      0.00
   -8   -7    4      0.36      0.00
   -7   -7    4      0.24      0.00
   -6   -7    4      0.31      0.00
   -5   -7    4      2.68      0.00
   -4   -7    4     -1.44      0.00
   -2   -7    4      2.29      0.00
   -1   -7    4     10.04      0.00
    0   -7    4      5.06      0.00
    1   -7    4      3.15      0.00
    2   -7    4     -6.27      0.00
    3   -7    4     -0.21      0.00
    4   -7    4      0.27      0.00
    5   -7    4      1.42      0.00
    6   -7    4      3.08      0.00
    7   -7    4     -0.11      0.00
    8   -7    4     -0.86      0.00
    9   -7    4     -0.82      0.00
   10   -7    4      1.16      0.00
   11   -7    4     -0.60      0.00
   12   -7    4     -0.84      0.00
   13   -7    4     -0.48      0.00
   14   -7    4     -2.15      0.00
  -13   -6    4     -1.19      0.00
  -12   -6    4     -1.20      0.00
  -11   -6    4     -1.01      0.00
  -10   -6    4      1.59      0.00
   -9   -6    4     -0.70      0.00
   -8   -6    4      0.13      0.00
   -7   -6    4     -0.88      0.00
   -6   -6    4     -1.28      0.00
   -5   -6    4      0.59      0.00
   -4   -6    4     -0.67      0.00
   -3   -6    4     -0.81      0.00
   -2   -6    4     -4.24      0.00
   -1   -6    4     -6.30      0.00
    0   -6    4     -4.71      0.00
    1   -6    4      5.82      0.00
    2   -6    4      0.05      0.00
    3   -6    4     -2.29      0.00
    4   -6    4      1.84      0.00
    5   -6    4     -0.63      0.00
    6   -6    4      1.94      0.00
    7   -6    4      2.28      0.00
    8   -6    4      0.79      0.00
    9   -6    4      0.18      0.00
   10   -6    4      0.38      0.00
   11   -6    4      0.80      0.00
   12   -6    4      0.80      0.00
   13   -6    4      0.24      0.00
   14   -6    4     -0.68      0.00
  -13   -5    4      2.40      0.00
  -12   -5    4      1.46      0.00
  -11   -5    4      0.97      0.00
  -10   -5    4     -1.75      0.00
   -9   -5    4      1.15      0.00
   -8   -5    4      0.58      0.00
   -7   -5    4     -0.99      0.00
   -6   -5    4     -0.17      0.00
   -5   -5    4     -1.13      0.00
   -4   -5    4      1.64      0.00
   -3   -5    4     -3.36      0.00
   -2   -5    4      0.63      0.00
   -1   -5    4      4.48      0.00
    0   -5    4     -2.10      0.00
    1   -5    4      0.22      0.00
    2   -5    4     12.00      0.00
    3   -5    4     -1.04      0.00
    4   -5    4     -4.22      0.00
    5   -5    4     -3.32      0.00
    6   -5    4     -2.37      0.00
    7   -5    4     -2.22      0.00
    8   -5    4     -1.78      0.00
    9   -5    4      0.07      0.00
   10   -5    4     -2.17      0.00
   11   -5    4     -0.59      0.00
   12   -5    4      1.41      0.00
   13   -5    4     -0.25      0.00
   14   -5    4      1.60      0.00
  -13   -4    4     -0.61      0.00
  -12   -4    4      0.41      0.00
  -11   -4    4      0.47      0.00
  -10   -4    4      0.70      0.00
   -9   -4    4     -0.07      0.00
   -8   -4    4     -0.93      0.00
   -7   -4    4      0.87      0.00
   -6   -4    4      0.28      0.00
   -5   -4    4     -0.22      0.00
   -4   -4    4      2.97      0.00
   -3   -4    4      3.32      0.00
   -2   -4    4     -8.61      0.00
   -1   -4    4     12.27      0.00
    0   -4    4      2.20      0.00
    1   -4    4     -9.63      0.00
    2   -4    4      2.27      0.00
    3   -4    4      6.80      0.00
    4   -4    4      1.64      0.00
    5   -4    4     -0.33      0.00
    6   -4    4      1.29      0.00
    7   -4    4      1.25      0.00
    8   -4    4      1.08      0.00
    9   -4    4     -1.95      0.00
   10   -4    4      0.61      0.00
   11   -4    4     -0.64      0.00
   12   -4    4     -1.55      0.00
   13   -4    4     -0.88      0.00
   14   -4    4      0.72      0.00
   15   -4    4     -0.16      0.00
  -13   -3    4     -0.84      0.00
  -12   -3    4     -1.78      0.00
  -11   -3    4      0.41      0.00
  -10   -3    4     -1.51      0.00
   -9   -3    4      0.15      0.00
   -8   -3    4     -1.22      0.00
   -7   -3    4     -0.19      0.00
   -6   -3    4     -0.13      0.00
   -5   -3    4     -1.48      0.00
   -4   -3    4     -0.63      0.00
   -3   -3    4      1.76      0.00
   -2   -3    4     11.26      0.00
   -1   -3    4     -4.95      0.00
    0   -3    4     10.61      0.00
    1   -3    4    -15.38      0.00
    2   -3    4    -21.93      0.00
    3   -3    4      2.22      0.00
    4   -3    4      4.78      0.00
    5   -3    4      2.78      0.00
    6   -3    4     -1.10      0.00
    7   -3    4     -0.56      0.00
    8   -3    4      1.00      0.00
    9   -3    4      1.85      0.00
   10   -3    4      2.35      0.00
   11   -3    4      1.51      0.00
   12   -3    4      0.53      0.00
   13   -3    4     -0.35      0.00
   14   -3    4      0.53      0.00
   15   -3    4      0.17      0.00
  -14   -2    4      2.01      0.00
  -13   -2    4      0.77      0.00
  -12   -2    4      0.52      0.00
  -11   -2    4     -0.68      0.00
  -10   -2    4     -0.79      0.00
   -9   -2    4      1.29      0.00
   -8   -2    4      0.83      0.00
   -7   -2    4      0.68      0.00
   -6   -2    4      1.09      0.00
   -5   -2    4      2.38      0.00
   -4   -2    4     -2.91      0.00
   -3   -2    4     -4.70      0.00
   -2   -2    4     -8.41      0.00
   -1   -2    4    -18.38      0.00
    0   -2    4     -0.52      0.00
    1   -2    4     22.35      0.00
    2   -2    4      7.00      0.00
    3   -2    4    -10.99      0.00
    4   -2    4     -0.03      0.00
    5   -2    4      3.37      0.00
    6   -2    4      1.12      0.00
    7   -2    4      3.71      0.00
    8   -2    4     -0.05      0.00
    9   -2    4     -1.12      0.00
   10   -2    4     -1.88      0.00
   11   -2    4     -0.79      0.00
   12   -2    4      0.00      0.00
   13   -2    4      0.70      0.00
   14   -2    4     -0.72      0.00
   15   -2    4      1.40      0.00
  -14   -1    4     -1.55      0.00
  -13   -1    4     -1.42      0.00
  -11   -1    4     -0.38      0.00
  -10   -1    4      0.04      0.00
   -9   -1    4      0.44      0.00
   -8   -1    4      0.79      0.00
   -7   -1    4     -0.74      0.00
   -6   -1    4     -0.38      0.00
   -5   -1    4     -2.15      0.00
   -4   -1    4     -3.66      0.00
   -3   -1    4      8.26      0.00
   -2   -1    4      1.55      0.00
   -1   -1    4     -0.02      0.00
    3   -1    4      2.28      0.00
    4   -1    4    -13.58      0.00
    5   -1    4    -10.76      0.00
    6   -1    4     -7.68      0.00
    7   -1    4     -3.13      0.00
    8   -1    4      0.91      0.00
    9   -1    4      0.28      0.00
   10   -1    4     -1.20      0.00
   11   -1    4     -0.17      0.00
   12   -1    4     -0.80      0.00
   13   -1    4      0.16      0.00
   14   -1    4     -1.83      0.00
   15   -1    4      0.01      0.00
  -14    0    4      1.33      0.00
  -11    0    4      1.23      0.00
  -10    0    4      1.39      0.00
   -9    0    4     -3.70      0.00
   -8    0    4      0.52      0.00
   -7    0    4     -1.19      0.00
   -6    0    4      2.68      0.00
   -5    0    4      2.68      0.00
   -4    0    4      5.26      0.00
   -3    0    4     -4.30      0.00
   -2    0    4     13.16      0.00
    3    0    4     34.67      0.00
    4    0    4     25.20      0.00
    5    0    4     10.54      0.00
    6    0    4      5.13      0.00
    7    0    4     -3.21      0.00
    8    0    4     -1.73      0.00
    9    0    4      2.04      0.00
   10    0    4      1.46      0.00
   11    0    4      0.67      0.00
   12    0    4      0.31      0.00
   13    0    4     -0.20      0.00
   14    0    4      1.60      0.00
   15    0    4     -1.00      0.00
  -14    1    4     -0.36      0.00
  -12    1    4     -0.20      0.00
  -11    1    4     -0.03      0.00
  -10    1    4      0.79      0.00
   -9    1    4     -0.52      0.00
   -8    1    4     -0.30      0.00
   -7    1    4      0.02      0.00
   -6    1    4     -3.01      0.00
   -5    1    4     -4.67      0.00
   -4    1    4      1.13      0.00
   -3    1    4     -7.28      0.00
   -2    1    4     -3.20      0.00
    3    1    4    -81.20      0.00
    4    1    4    -31.57      0.00
    5    1    4      0.50      0.00
    6    1    4      5.10      0.00
    7    1    4      1.31      0.00
    8    1    4      2.02      0.00
    9    1    4     -0.34      0.00
   10    1    4     -0.82      0.00
   11    1    4      0.41      0.00
   12    1    4     -0.44      0.00
   13    1    4      0.69      0.00
   14    1    4      0.88      0.00
   15    1    4     -0.31      0.00
  -13    2    4      0.25      0.00
  -12    2    4      0.17      0.00
  -11    2    4     -1.52      0.00
  -10    2    4     -0.67      0.00
   -9    2    4      1.61      0.00
   -8    2    4      1.02      0.00
   -7    2    4      4.52      0.00
   -6    2    4      0.62      0.00
   -5    2    4     -0.06      0.00
   -4    2    4     -0.36      0.00
   -3    2    4      2.08      0.00
   -2    2    4      0.61      0.00
    3    2    4     77.31      0.00
    4    2    4     26.27      0.00
    5    2    4    -11.56      0.00
    6    2    4     -0.02      0.00
    7    2    4     -0.80      0.00
    8    2    4     -0.32      0.00
    9    2    4     -1.64      0.00
   10    2    4      0.83      0.00
   11    2    4     -1.32      0.00
   12    2    4      0.62      0.00
   13    2    4      0.53      0.00
   14    2    4     -1.35      0.00
   15    2    4      0.12      0.00
  -13    3    4      0.95      0.00
  -12    3    4     -0.05      0.00
  -11    3    4     -0.03      0.00
  -10    3    4      1.98      0.00
   -9    3    4     -0.20      0.00
   -8    3    4     -2.23      0.00
   -7    3    4     -3.76      0.00
   -6    3    4      2.08      0.00
   -5    3    4      2.13      0.00
   -4    3    4     -0.59      0.00
   -3    3    4      5.96      0.00
   -2    3    4    -14.77      0.00
   -1    3    4     -2.96      0.00
    3    3    4    -40.47      0.00
    4    3    4     -0.74      0.00
    5    3    4      5.74      0.00
    6    3    4      0.81      0.00
    7    3    4     -0.66      0.00
    8    3    4      0.93      0.00
    9    3    4     -0.04      0.00
   10    3    4      0.99      0.00
   11    3    4     -1.05      0.00
   12    3    4      1.19      0.00
   13    3    4     -1.57      0.00
   14    3    4      0.01      0.00
   15    3    4     -0.44      0.00
  -13    4    4     -0.63      0.00
  -12    4    4     -0.73      0.00
  -11    4    4      0.58      0.00
  -10    4    4     -0.62      0.00
   -9    4    4      1.74      0.00
   -8    4    4      1.53      0.00
   -7    4    4     -0.74      0.00
   -6    4    4     -2.93      0.00
   -5    4    4      0.29      0.00
   -4    4    4     -1.54      0.00
   -3    4    4      1.95      0.00
   -2    4    4      3.34      0.00
   -1    4    4      4.75      0.00
    0    4    4      9.08      0.00
    2    4    4     67.06      0.00
    3    4    4     14.82      0.00
    4    4    4    -19.24      0.00
    5    4    4      2.21      0.00
    6    4    4     -3.17      0.00
    7    4    4      0.23      0.00
    8    4    4     -2.66      0.00
    9    4    4      0.38      0.00
   10    4    4     -1.99      0.00
   11    4    4      0.12      0.00
   12    4    4      0.02      0.00
   13    4    4      0.07      0.00
   14    4    4      0.64      0.00
   15    4    4     -0.30      0.00
  -13    5    4      1.32      0.00
  -12    5    4      1.05      0.00
  -11    5    4     -1.39      0.00
  -10    5    4     -2.00      0.00
   -9    5    4     -0.50      0.00
   -8    5    4     -2.20      0.00
   -7    5    4      1.88      0.00
   -6    5    4      0.29      0.00
   -5    5    4     -0.36      0.00
   -4    5    4      1.70      0.00
   -3    5    4     -2.61      0.00
   -2    5    4     12.11      0.00
   -1    5    4      1.81      0.00
    0    5    4     11.88      0.00
    1    5    4    -31.00      0.00
    2    5    4    -35.66      0.00
    3    5    4      3.77      0.00
    4    5    4      6.50      0.00
    5    5    4     -0.54      0.00
    6    5    4     -0.22      0.00
    7    5    4      2.92      0.00
    8    5    4      0.94      0.00
    9    5    4     -0.94      0.00
   10    5    4     -0.05      0.00
   11    5    4      0.69      0.00
   12    5    4     -1.52      0.00
   13    5    4      1.08      0.00
   14    5    4     -0.63      0.00
   15    5    4      0.57      0.00
  -13    6    4     -2.03      0.00
  -12    6    4     -1.23      0.00
  -11    6    4      1.95      0.00
  -10    6    4      0.92      0.00
   -9    6    4     -0.67      0.00
   -8    6    4      1.53      0.00
   -7    6    4     -1.65      0.00
   -6    6    4      1.85      0.00
   -5    6    4     -0.02      0.00
   -4    6    4     -0.78      0.00
   -3    6    4     -5.98      0.00
   -2    6    4     -3.44      0.00
   -1    6    4     -7.14      0.00
    0    6    4     -0.21      0.00
    1    6    4     29.82      0.00
    2    6    4      6.64      0.00
    3    6    4     -8.86      0.00
    4    6    4      8.28      0.00
    5    6    4     -0.90      0.00
    6    6    4      0.20      0.00
    7    6    4      0.87      0.00
    8    6    4      1.40      0.00
    9    6    4      2.35      0.00
   10    6    4      1.77      0.00
   11    6    4      1.89      0.00
   12    6    4      0.38      0.00
   13    6    4      0.45      0.00
   14    6    4     -0.05      0.00
   15    6    4      0.59      0.00
  -13    7    4      0.01      0.00
  -12    7    4      0.77      0.00
  -11    7    4     -0.15      0.00
  -10    7    4      1.13      0.00
   -9    7    4      0.72      0.00
   -8    7    4      0.73      0.00
   -7    7    4      0.94      0.00
   -6    7    4     -0.05      0.00
   -5    7    4     -0.85      0.00
   -4    7    4      1.36      0.00
   -3    7    4      0.00      0.00
   -2    7    4     -5.25      0.00
   -1    7    4     -2.15      0.00
    0    7    4    -16.72      0.00
    1    7    4    -12.55      0.00
    2    7    4     13.41      0.00
    3    7    4      5.37      0.00
    4    7    4     -5.73      0.00
    5    7    4      3.01      0.00
    6    7    4     -4.86      0.00
    7    7    4     -1.60      0.00
    8    7    4     -2.44      0.00
    9    7    4     -2.46      0.00
   10    7    4     -1.66      0.00
   11    7    4     -0.09      0.00
   12    7    4     -0.33      0.00
   13    7    4     -0.75      0.00
   14    7    4     -0.19      0.00
   15    7    4      0.05      0.00
  -13    8    4     -0.24      0.00
  -12    8    4      0.64      0.00
  -11    8    4      0.22      0.00
  -10    8    4     -2.43      0.00
   -9    8    4     -1.55      0.00
   -8    8    4     -1.59      0.00
   -7    8    4     -0.78      0.00
   -6    8    4     -1.66      0.00
   -5    8    4      2.02      0.00
   -4    8    4      1.66      0.00
   -3    8    4      3.40      0.00
   -2    8    4      8.34      0.00
   -1    8    4      9.55      0.00
    0    8    4     10.97      0.00
    1    8    4     -2.20      0.00
    2    8    4     -9.77      0.00
    3    8    4      0.46      0.00
    4    8    4     -3.85      0.00
    5    8    4     -1.06      0.00
    6    8    4      2.83      0.00
    7    8    4     -0.33      0.00
    8    8    4      0.52      0.00
    9    8    4      0.92      0.00
   10    8    4      0.71      0.00
   11    8    4     -1.62      0.00
   12    8    4      0.31      0.00
   13    8    4     -1.14      0.00
   14    8    4      0.33      0.00
   15    8    4     -0.04      0.00
  -12    9    4      0.10      0.00
  -11    9    4     -0.75      0.00
  -10    9    4      1.18      0.00
   -9    9    4      1.39      0.00
   -8    9    4      0.84      0.00
   -7    9    4      0.29      0.00
   -6    9    4     -0.68      0.00
   -5    9    4      0.26      0.00
   -4    9    4     -3.36      0.00
   -3    9    4      2.19      0.00
   -2    9    4     -7.21      0.00
   -1    9    4     -0.36      0.00
    0    9    4     -5.22      0.00
    1    9    4      2.25      0.00
    2    9    4     -1.00      0.00
    3    9    4     -2.56      0.00
    4    9    4      2.84      0.00
    5    9    4      0.01      0.00
    6    9    4      1.37      0.00
    7    9    4      1.16      0.00
    8    9    4      0.29      0.00
    9    9    4      1.15      0.00
   10    9    4     -0.02      0.00
   11    9    4     -0.39      0.00
   12    9    4      1.05      0.00
   13    9    4      1.03      0.00
   14    9    4      0.59      0.00
  -12   10    4      0.11      0.00
  -11   10    4      0.61      0.00
  -10   10    4      0.61      0.00
   -9   10    4      0.30      0.00
   -8   10    4     -0.82      0.00
   -7   10    4      2.16      0.00
   -6   10    4      1.50      0.00
   -5   10    4     -0.11      0.00
   -4   10    4     -1.18      0.00
   -3   10    4     -2.69      0.00
   -2   10    4     -2.99      0.00
   -1   10    4     -2.43      0.00
    0   10    4      4.88      0.00
    1   10    4     -2.65      0.00
    2   10    4      3.18      0.00
    3   10    4     -0.48      0.00
    4   10    4      2.36      0.00
    5   10    4     -0.21      0.00
    6   10    4     -0.96      0.00
    7   10    4     -0.56      0.00
    8   10    4     -0.53      0.00
    9   10    4     -1.62      0.00
   10   10    4      1.20      0.00
   11   10    4      1.38      0.00
   12   10    4     -1.47      0.00
   13   10    4     -0.68      0.00
   14   10    4     -0.95      0.00
  -12   11    4     -0.20      0.00
  -11   11    4     -0.67      0.00
  -10   11    4     -1.89      0.00
   -9   11    4     -0.44      0.00
   -8   11    4      0.71      0.00
   -7   11    4     -1.14      0.00
   -6   11    4     -0.61      0.00
   -5   11    4     -1.98      0.00
   -4   11    4      1.99      0.00
   -3   11    4      2.78      0.00
   -2   11    4      4.88      0.00
   -1   11    4     -2.84      0.00
    0   11    4     -0.08      0.00
    1   11    4     -0.05      0.00
    2   11    4      1.27      0.00
    3   11    4      0.88      0.00
    4   11    4      2.32      0.00
    5   11    4     -1.85      0.00
    6   11    4      1.81      0.00
    7   11    4      1.38      0.00
    8   11    4      1.77      0.00
    9   11    4      0.04      0.00
   10   11    4     -1.28      0.00
   11   11    4     -0.44      0.00
   12   11    4      1.21      0.00
   13   11    4      0.77      0.00
   14   11    4      0.65      0.00
  -11   12    4      0.39      0.00
  -10   12    4      0.74      0.00
   -9   12    4     -1.02      0.00
   -8   12    4     -0.41      0.00
   -7   12    4      0.05      0.00
   -6   12    4     -0.44      0.00
   -5   12    4      1.38      0.00
   -4   12    4     -1.35      0.00
   -3   12    4      1.17      0.00
   -2   12    4     -1.61      0.00
   -1   12    4      2.12      0.00
    0   12    4     -2.31      0.00
    1   12    4      3.84      0.00
    2   12    4     -1.86      0.00
    3   12    4     -0.39      0.00
    4   12    4     -2.71      0.00
    5   12    4      0.95      0.00
    6   12    4     -3.57      0.00
    7   12    4     -1.57      0.00
    8   12    4     -0.27      0.00
    9   12    4      1.07      0.00
   10   12    4      0.39      0.00
   11   12    4     -0.34      0.00
   12   12    4     -0.82      0.00
   13   12    4     -0.91      0.00
   -9   13    4      1.34      0.00
   -7   13    4      0.99      0.00
   -6   13    4     -0.67      0.00
   -5   13    4      1.76      0.00
   -4   13    4     -0.26      0.00
   -3   13    4     -1.60      0.00
   -2   13    4      1.10      0.00
   -1   13    4      2.30      0.00
    0   13    4      0.66      0.00
    1   13    4     -1.82      0.00
    2   13    4      1.42      0.00
    3   13    4     -1.75      0.00
    4   13    4      0.18      0.00
    5   13    4      3.01      0.00
    6   13    4      0.50      0.00
    7   13    4      0.12      0.00
    8   13    4     -1.15      0.00
    9   13    4     -0.57      0.00
   10   13    4      0.04      0.00
   11   13    4     -0.86      0.00
   12   13    4     -0.41      0.00
   13   13    4      0.13      0.00
   -8   14    4     -0.39      0.00
   -6   14    4     -0.71      0.00
   -5   14    4     -1.51      0.00
   -4   14    4      0.80      0.00
   -2   14    4     -2.52      0.00
   -1   14    4     -2.37      0.00
    0   14    4     -3.15      0.00
    1   14    4      1.53      0.00
    2   14    4     -0.34      0.00
    3   14    4      0.26      0.00
    4   14    4     -1.70      0.00
    5   14    4     -4.10      0.00
    6   14    4      1.57      0.00
    7   14    4     -0.14      0.00
    8   14    4      0.41      0.00
    9   14    4     -0.68      0.00
   10   14    4     -0.84      0.00
   11   14    4      1.22      0.00
   12   14    4      0.33      0.00
  -10   15    4      1.42      0.00
   -8   15    4      0.01      0.00
   -7   15    4      1.38      0.00
   -6   15    4      2.22      0.00
   -5   15    4     -0.28      0.00
   -4   15    4     -3.74      0.00
   -2   15    4      0.71      0.00
   -1   15    4      0.97      0.00
    0   15    4      0.86      0.00
    1   15    4      0.63      0.00
    2   15    4     -0.98      0.00
    3   15    4      2.52      0.00
    4   15    4      2.60      0.00
    5   15    4      3.09      0.00
    6   15    4      1.41      0.00
    7   15    4     -1.68      0.00
    8   15    4      0.79      0.00
    9   15    4      0.93      0.00
   10   15    4      0.54      0.00
   11   15    4     -0.30      0.00
   12   15    4      0.37      0.00
   -8   16    4     -0.16      0.00
   -7   16    4     -0.40      0.00
   -6   16    4      0.87      0.00
   -5   16    4     -0.56      0.00
   -4   16    4      3.86      0.00
   -2   16    4      3.46      0.00
    0   16    4      0.86      0.00
    1   16    4     -0.48      0.00
    2   16    4      2.53      0.00
    3   16    4     -2.94      0.00
    4   16    4     -2.73      0.00
    5   16    4     -2.57      0.00
    6   16    4     -0.45      0.00
    7   16    4      1.66      0.00
    8   16    4     -0.60      0.00
    9   16    4      0.21      0.00
   10   16    4      0.01      0.00
   11   16    4      0.37      0.00
   -8   17    4      0.25      0.00
   -7   17    4     -2.59      0.00
   -6   17    4      0.02      0.00
   -5   17    4      0.18      0.00
   -4   17    4      2.22      0.00
   -3   17    4     -1.32      0.00
   -2   17    4     -1.30      0.00
   -1   17    4      0.36      0.00
    0   17    4     -1.06      0.00
    1   17    4     -1.50      0.00
    2   17    4     -0.41      0.00
    3   17    4      0.92      0.00
    4   17    4      2.83      0.00
    5   17    4     -0.52      0.00
    6   17    4     -1.44      0.00
    7   17    4     -0.12      0.00
    8   17    4     -0.67      0.00
    9   17    4      0.09      0.00
   10   17    4      0.55      0.00
   -7   18    4      0.56      0.00
   -6   18    4     -1.20      0.00
   -5   18    4     -0.90      0.00
   -4   18    4     -2.01      0.00
   -3   18    4     -0.95      0.00
   -2   18    4     -0.57      0.00
   -1   18    4     -0.59      0.00
    0   18    4      0.90      0.00
    1   18    4     -1.22      0.00
    2   18    4     -1.85      0.00
    3   18    4     -0.92      0.00
    4   18    4     -0.44      0.00
    5   18    4      1.28      0.00
    6   18    4      1.17      0.00
    7   18    4      0.53      0.00
    8   18    4     -0.31      0.00
    9   18    4     -1.19      0.00
   -6   19    4      0.99      0.00
   -5   19    4      0.67      0.00
   -4   19    4      0.67      0.00
   -3   19    4      1.40      0.00
   -2   19    4     -0.80      0.00
   -1   19    4      0.85      0.00
    0   19    4      0.91      0.00
    1   19    4      1.81      0.00
    2   19    4      2.19      0.00
    3   19    4      0.92      0.00
    4   19    4     -1.05      0.00
    5   19    4     -1.34      0.00
    6   19    4      0.38      0.00
    7   19    4      1.06      0.00
    8   19    4      0.87      0.00
   -5   20    4      1.23      0.00
   -4   20    4     -0.57      0.00
   -3   20    4      0.96      0.00
   -2   20    4     -0.46      0.00
   -1   20    4     -0.91      0.00
    0   20    4     -0.09      0.00
    1   20    4     -1.43      0.00
    2   20    4     -1.76      0.00
    3   20    4      0.64      0.00
    4   20    4      1.72      0.00
    5   20    4      0.36      0.00
    6   20    4     -0.57      0.00
    7   20    4     -0.97      0.00
   -3   21    4     -1.33      0.00
   -2   21    4      1.62      0.00
   -1   21    4     -1.15      0.00
    0   21    4      1.41      0.00
    1   21    4      1.37      0.00
    2   21    4      0.59      0.00
    3   21    4     -0.81      0.00
    4   21    4     -0.43      0.00
    5   21    4      0.75      0.00
    1   22    4     -0.92      0.00
    2   22    4     -1.60      0.00
   -3  -18    5     -0.27      0.00
   -2  -18    5      0.61      0.00
   -1  -18    5      0.00      0.00
    0  -18    5      0.33      0.00
    1  -18    5     -1.73      0.00
    2  -18    5      0.05      0.00
    3  -18    5      0.44      0.00
    4  -18    5      0.21      0.00
    5  -18    5      0.26      0.00
   -5  -17    5     -0.40      0.00
   -4  -17    5      1.40      0.00
   -3  -17    5      0.57      0.00
   -2  -17    5     -0.11      0.00
   -1  -17    5     -0.48      0.00
    0  -17    5      0.82      0.00
    1  -17    5      0.18      0.00
    2  -17    5      1.22      0.00
    3  -17    5      0.05      0.00
    4  -17    5     -1.78      0.00
    5  -17    5      0.72      0.00
    6  -17    5     -0.11      0.00
   -6  -16    5     -0.23      0.00
   -5  -16    5     -0.03      0.00
   -4  -16    5     -0.99      0.00
   -3  -16    5     -0.48      0.00
   -2  -16    5      0.23      0.00
   -1  -16    5     -0.34      0.00
    0  -16    5      0.26      0.00
    1  -16    5     -0.23      0.00
    2  -16    5     -2.39      0.00
    3  -16    5      0.46      0.00
    4  -16    5     -0.21      0.00
    5  -16    5      0.28      0.00
    6  -16    5      0.47      0.00
    7  -16    5      0.86      0.00
    8  -16    5      0.01      0.00
   -8  -15    5      1.96      0.00
   -7  -15    5      0.31      0.00
   -6  -15    5     -0.86      0.00
   -5  -15    5      0.00      0.00
   -4  -15    5      0.14      0.00
   -3  -15    5      0.08      0.00
   -2  -15    5      0.26      0.00
   -1  -15    5     -0.31      0.00
    0  -15    5     -0.42      0.00
    1  -15    5      1.05      0.00
    2  -15    5     -0.19      0.00
    3  -15    5     -0.67      0.00
    4  -15    5      2.58      0.00
    5  -15    5     -1.13      0.00
    6  -15    5     -0.82      0.00
    7  -15    5      0.41      0.00
    8  -15    5      0.12      0.00
    9  -15    5      1.47      0.00
   -8  -14    5     -1.27      0.00
   -7  -14    5      0.27      0.00
   -6  -14    5      1.48      0.00
   -5  -14    5      1.57      0.00
   -4  -14    5     -0.74      0.00
   -3  -14    5      0.27      0.00
   -2  -14    5      0.79      0.00
   -1  -14    5      1.99      0.00
    0  -14    5     -0.86      0.00
    1  -14    5      0.22      0.00
    2  -14    5     -0.60      0.00
    3  -14    5      0.46      0.00
    4  -14    5     -0.67      0.00
    5  -14    5      0.74      0.00
    6  -14    5     -0.04      0.00
    7  -14    5     -0.17      0.00
    8  -14    5      0.06      0.00
    9  -14    5     -0.74      0.00
   10  -14    5     -0.73      0.00
   -9  -13    5      0.82      0.00
   -8  -13    5     -0.98      0.00
   -7  -13    5      1.67      0.00
   -6  -13    5     -2.31      0.00
   -5  -13    5     -1.85      0.00
   -4  -13    5     -0.42      0.00
   -3  -13    5     -0.40      0.00
   -2  -13    5     -2.09      0.00
   -1  -13    5      0.34      0.00
    0  -13    5     -1.89      0.00
    1  -13    5      1.31      0.00
    2  -13    5      2.19      0.00
    3  -13    5      0.42      0.00
    4  -13    5     -0.51      0.00
    5  -13    5     -1.48      0.00
    6  -13    5     -1.78      0.00
    7  -13    5      0.17      0.00
    8  -13    5     -1.28      0.00
    9  -13    5     -0.15      0.00
   10  -13    5     -0.29      0.00
   11  -13    5     -1.47      0.00
  -10  -12    5     -0.23      0.00
   -9  -12    5     -0.80      0.00
   -8  -12    5     -0.99      0.00
   -7  -12    5     -0.69      0.00
   -6  -12    5      1.76      0.00
   -5  -12    5      0.92      0.00
   -4  -12    5      0.96      0.00
   -3  -12    5      0.00      0.00
   -2  -12    5     -1.17      0.00
   -1  -12    5     -0.49      0.00
    0  -12    5      1.83      0.00
    1  -12    5     -1.80      0.00
    2  -12    5      0.89      0.00
    3  -12    5     -0.80      0.00
    4  -12    5      1.76      0.00
    5  -12    5      1.08      0.00
    6  -12    5      1.81      0.00
    7  -12    5     -0.77      0.00
    8  -12    5      1.85      0.00
    9  -12    5      0.25      0.00
   10  -12    5      1.82      0.00
   11  -12    5     -0.34      0.00
  -10  -11    5     -1.16      0.00
   -9  -11    5      0.44      0.00
   -8  -11    5      2.20      0.00
   -7  -11    5     -0.75      0.00
   -6  -11    5     -0.78      0.00
   -5  -11    5      0.68      0.00
   -4  -11    5      0.78      0.00
   -3  -11    5      1.24      0.00
   -2  -11    5     -0.04      0.00
   -1  -11    5     -1.71      0.00
    0  -11    5      0.68      0.00
    1  -11    5     -1.36      0.00
    2  -11    5     -3.98      0.00
    3  -11    5     -3.45      0.00
    4  -11    5     -3.66      0.00
    5  -11    5     -0.54      0.00
    6  -11    5      1.27      0.00
    7  -11    5      0.41      0.00
    8  -11    5      0.71      0.00
    9  -11    5     -0.37      0.00
   11  -11    5      0.51      0.00
   12  -11    5     -1.56      0.00
  -11  -10    5      0.91      0.00
  -10  -10    5      0.04      0.00
   -9  -10    5      0.45      0.00
   -8  -10    5     -0.15      0.00
   -7  -10    5      0.62      0.00
   -6  -10    5     -0.98      0.00
   -5  -10    5     -2.05      0.00
   -4  -10    5     -1.91      0.00
   -3  -10    5      2.39      0.00
   -2  -10    5      2.62      0.00
   -1  -10    5      1.06      0.00
    0  -10    5      0.30      0.00
    1  -10    5      3.85      0.00
    2  -10    5      5.21      0.00
    3  -10    5      5.22      0.00
    4  -10    5      3.03      0.00
    5  -10    5      1.33      0.00
    6  -10    5     -1.17      0.00
    7  -10    5      0.40      0.00
    8  -10    5     -0.69      0.00
    9  -10    5      0.34      0.00
   10  -10    5     -0.39      0.00
   11  -10    5      0.35      0.00
   12  -10    5      1.11      0.00
   13  -10    5      0.45      0.00
  -11   -9    5      0.72      0.00
  -10   -9    5      1.07      0.00
   -9   -9    5     -0.67      0.00
   -8   -9    5     -1.01      0.00
   -7   -9    5      0.06      0.00
   -6   -9    5      2.08      0.00
   -5   -9    5     -0.71      0.00
   -4   -9    5     -0.29      0.00
   -3   -9    5     -1.31      0.00
   -2   -9    5      0.30      0.00
   -1   -9    5     -0.78      0.00
    0   -9    5     -0.25      0.00
    1   -9    5     -2.97      0.00
    2   -9    5     -3.81      0.00
    3   -9    5     -1.80      0.00
    4   -9    5     -0.37      0.00
    5   -9    5      0.04      0.00
    6   -9    5     -0.49      0.00
    7   -9    5     -0.76      0.00
    8   -9    5     -0.06      0.00
    9   -9    5      1.51      0.00
   10   -9    5      1.12      0.00
   11   -9    5     -0.18      0.00
   12   -9    5     -0.35      0.00
   13   -9    5     -0.62      0.00
  -12   -8    5      0.92      0.00
  -11   -8    5     -1.32      0.00
  -10   -8    5      0.18      0.00
   -9   -8    5      0.27      0.00
   -8   -8    5     -0.20      0.00
   -7   -8    5      0.17      0.00
   -6   -8    5     -2.24      0.00
   -5   -8    5      4.11      0.00
   -4   -8    5     -0.12      0.00
   -3   -8    5      0.55      0.00
   -2   -8    5     -3.18      0.00
   -1   -8    5     -1.08      0.00
    0   -8    5     -1.14      0.00
    1   -8    5      5.34      0.00
    2   -8    5      0.11      0.00
    3   -8    5     -0.83      0.00
    4   -8    5     -2.07      0.00
    5   -8    5     -1.08      0.00
    6   -8    5     -0.95      0.00
    7   -8    5      0.06      0.00
    8   -8    5     -1.16      0.00
    9   -8    5     -2.12      0.00
   10   -8    5      1.01      0.00
   11   -8    5     -0.10      0.00
   12   -8    5     -0.60      0.00
   13   -8    5      1.45      0.00
  -12   -7    5      0.42      0.00
  -11   -7    5      0.01      0.00
  -10   -7    5     -0.43      0.00
   -9   -7    5     -0.11      0.00
   -8   -7    5      0.94      0.00
   -7   -7    5     -0.48      0.00
   -6   -7    5      1.09      0.00
   -5   -7    5     -0.16      0.00
   -4   -7    5      0.62      0.00
   -3   -7    5     -2.25      0.00
   -2   -7    5      4.75      0.00
   -1   -7    5      1.73      0.00
    0   -7    5     -5.54      0.00
    1   -7    5     -5.85      0.00
    2   -7    5     -3.28      0.00
    3   -7    5     -1.22      0.00
    4   -7    5      1.92      0.00
    5   -7    5      2.37      0.00
    6   -7    5      2.66      0.00
    7   -7    5     -0.97      0.00
    8   -7    5      0.04      0.00
    9   -7    5     -0.82      0.00
   10   -7    5      0.43      0.00
   11   -7    5     -0.38      0.00
   12   -7    5     -0.50      0.00
   13   -7    5     -0.36      0.00
   14   -7    5     -0.88      0.00
  -12   -6    5      0.87      0.00
  -11   -6    5      0.18      0.00
  -10   -6    5      1.06      0.00
   -9   -6    5     -0.47      0.00
   -8   -6    5      1.70      0.00
   -7   -6    5     -1.60      0.00
   -6   -6    5      0.23      0.00
   -5   -6    5     -1.02      0.00
   -4   -6    5      0.82      0.00
   -3   -6    5     -2.87      0.00
   -2   -6    5     -2.48      0.00
   -1   -6    5      4.77      0.00
    0   -6    5      7.43      0.00
    1   -6    5      7.55      0.00
    2   -6    5      4.99      0.00
    3   -6    5      1.80      0.00
    4   -6    5     -2.03      0.00
    5   -6    5     -2.71      0.00
    6   -6    5      0.34      0.00
    7   -6    5      2.31      0.00
    8   -6    5      1.31      0.00
    9   -6    5      1.96      0.00
   10   -6    5      0.22      0.00
   11   -6    5      0.23      0.00
   12   -6    5      1.58      0.00
   13   -6    5     -0.15      0.00
   14   -6    5      0.57      0.00
  -13   -5    5      1.17      0.00
  -12   -5    5     -1.43      0.00
  -11   -5    5     -0.33      0.00
  -10   -5    5     -1.41      0.00
   -9   -5    5      1.42      0.00
   -8   -5    5     -1.74      0.00
   -7   -5    5      1.10      0.00
   -6   -5    5      0.32      0.00
   -5   -5    5     -0.79      0.00
   -4   -5    5     -0.20      0.00
   -3   -5    5      1.07      0.00
   -2   -5    5     -7.34      0.00
   -1   -5    5     -6.78      0.00
    0   -5    5     -7.90      0.00
    1   -5    5     -6.41      0.00
    2   -5    5      5.00      0.00
    3   -5    5      3.56      0.00
    4   -5    5     -0.11      0.00
    5   -5    5     -1.34      0.00
    6   -5    5     -2.29      0.00
    7   -5    5     -1.19      0.00
    8   -5    5     -2.21      0.00
    9   -5    5     -1.61      0.00
   10   -5    5     -2.24      0.00
   11   -5    5      0.44      0.00
   12   -5    5     -0.52      0.00
   13   -5    5     -1.33      0.00
   14   -5    5      1.13      0.00
  -13   -4    5     -0.11      0.00
  -12   -4    5      0.58      0.00
  -11   -4    5      0.20      0.00
  -10   -4    5     -2.06      0.00
   -9   -4    5     -0.26      0.00
   -8   -4    5     -1.75      0.00
   -7   -4    5     -0.16      0.00
   -6   -4    5     -0.36      0.00
   -5   -4    5     -0.98      0.00
   -4   -4    5      2.65      0.00
   -3   -4    5      1.65      0.00
   -2   -4    5      6.53      0.00
   -1   -4    5     13.81      0.00
    0   -4    5     10.28      0.00
    1   -4    5     -6.01      0.00
    2   -4    5     -6.43      0.00
    3   -4    5      3.08      0.00
    4   -4    5      1.91      0.00
    5   -4    5      1.95      0.00
    6   -4    5      2.25      0.00
    7   -4    5     -0.65      0.00
    8   -4    5      0.37      0.00
    9   -4    5     -0.68      0.00
   10   -4    5      1.24      0.00
   11   -4    5     -0.34      0.00
   12   -4    5      0.26      0.00
   13   -4    5     -0.13      0.00
   14   -4    5      0.40      0.00
   15   -4    5     -0.91      0.00
  -13   -3    5      0.50      0.00
  -12   -3    5      0.59      0.00
  -11   -3    5      1.35      0.00
  -10   -3    5      1.48      0.00
   -9   -3    5      0.32      0.00
   -8   -3    5      0.50      0.00
   -7   -3    5     -0.52      0.00
   -6   -3    5      0.12      0.00
   -5   -3    5      1.31      0.00
   -4   -3    5     -0.55      0.00
   -3   -3    5      2.51      0.00
   -2   -3    5      1.11      0.00
   -1   -3    5    -11.31      0.00
    0   -3    5      0.95      0.00
    1   -3    5     -0.12      0.00
    2   -3    5    -13.18      0.00
    3   -3    5     -4.25      0.00
    4   -3    5      1.03      0.00
    5   -3    5      0.15      0.00
    6   -3    5      0.71      0.00
    7   -3    5      4.86      0.00
    8   -3    5      4.46      0.00
    9   -3    5      1.27      0.00
   10   -3    5      0.93      0.00
   11   -3    5      0.24      0.00
   12   -3    5     -0.33      0.00
   13   -3    5      0.77      0.00
   14   -3    5     -0.03      0.00
   15   -3    5      2.33      0.00
  -13   -2    5     -1.23      0.00
  -10   -2    5     -1.10      0.00
   -9   -2    5      1.49      0.00
   -7   -2    5      0.92      0.00
   -6   -2    5      0.69      0.00
   -5   -2    5     -1.51      0.00
   -4   -2    5     -7.07      0.00
   -3   -2    5     -4.66      0.00
   -2   -2    5     -0.46      0.00
   -1   -2    5    -10.81      0.00
    1   -2    5     16.71      0.00
    2   -2    5      7.97      0.00
    3   -2    5     -5.79      0.00
    4   -2    5     -0.29      0.00
    5   -2    5     -0.80      0.00
    6   -2    5     -8.05      0.00
    7   -2    5     -5.62      0.00
    8   -2    5     -3.96      0.00
    9   -2    5      0.41      0.00
   10   -2    5     -1.31      0.00
   11   -2    5     -0.29      0.00
   12   -2    5     -0.59      0.00
   13   -2    5      0.56      0.00
   14   -2    5     -1.37      0.00
   15   -2    5      0.04      0.00
  -13   -1    5     -0.10      0.00
  -11   -1    5     -2.28      0.00
  -10   -1    5      0.87      0.00
   -9   -1    5     -1.36      0.00
   -8   -1    5     -0.77      0.00
   -7   -1    5     -0.13      0.00
   -6   -1    5      0.51      0.00
   -5   -1    5      0.57      0.00
   -4   -1    5      7.10      0.00
   -3   -1    5      2.43      0.00
   -2   -1    5      2.89      0.00
   -1   -1    5      5.13      0.00
    0   -1    5      4.28      0.00
    1   -1    5      5.09      0.00
    2   -1    5     20.61      0.00
    3   -1    5     -2.64      0.00
    4   -1    5     -0.41      0.00
    5   -1    5      1.41      0.00
    6   -1    5      4.85      0.00
    7   -1    5      1.45      0.00
    8   -1    5      1.77      0.00
    9   -1    5     -1.12      0.00
   10   -1    5      0.18      0.00
   11   -1    5     -0.39      0.00
   12   -1    5      0.53      0.00
   13   -1    5     -0.97      0.00
   14   -1    5     -0.49      0.00
   15   -1    5     -0.36      0.00
  -12    0    5     -1.09      0.00
  -11    0    5      1.63      0.00
  -10    0    5      1.84      0.00
   -9    0    5     -4.54      0.00
   -8    0    5      0.11      0.00
   -7    0    5     -0.56      0.00
   -6    0    5     -0.61      0.00
   -5    0    5     -1.06      0.00
   -4    0    5     -1.55      0.00
   -3    0    5     -1.26      0.00
   -2    0    5      4.54      0.00
   -1    0    5      7.93      0.00
    0    0    5     -9.82      0.00
    1    0    5    -22.97      0.00
    3    0    5     16.54      0.00
    4    0    5    -12.22      0.00
    5    0    5    -10.09      0.00
    6    0    5      5.19      0.00
    7    0    5     -5.90      0.00
    8    0    5      1.15      0.00
    9    0    5      2.62      0.00
   10    0    5      0.36      0.00
   11    0    5      0.91      0.00
   12    0    5      0.06      0.00
   13    0    5      1.16      0.00
   14    0    5      1.50      0.00
   15    0    5     -0.36      0.00
  -13    1    5      1.41      0.00
  -12    1    5     -0.15      0.00
  -11    1    5     -0.36      0.00
  -10    1    5      0.98      0.00
   -9    1    5      0.41      0.00
   -8    1    5      0.27      0.00
   -7    1    5      1.69      0.00
   -6    1    5      0.04      0.00
   -5    1    5      1.81      0.00
   -4    1    5      0.07      0.00
   -3    1    5     -3.59      0.00
   -2    1    5     -5.84      0.00
   -1    1    5      7.44      0.00
    0    1    5      4.76      0.00
    3    1    5     -0.21      0.00
    4    1    5     41.43      0.00
    5    1    5     20.67      0.00
    6    1    5      1.12      0.00
    7    1    5      2.42      0.00
    8    1    5     -2.12      0.00
    9    1    5     -2.22      0.00
   10    1    5     -0.34      0.00
   11    1    5     -0.98      0.00
   12    1    5     -0.59      0.00
   13    1    5      0.11      0.00
   14    1    5     -0.13      0.00
   15    1    5     -0.82      0.00
  -13    2    5     -0.41      0.00
  -12    2    5      1.06      0.00
  -11    2    5     -0.92      0.00
  -10    2    5     -0.44      0.00
   -9    2    5      4.45      0.00
   -8    2    5     -1.23      0.00
   -7    2    5     -1.31      0.00
   -6    2    5     -1.93      0.00
   -5    2    5     -2.22      0.00
   -4    2    5      1.38      0.00
   -3    2    5      7.79      0.00
   -1    2    5    -14.80      0.00
    0    2    5      5.39      0.00
    3    2    5    -63.33      0.00
    5    2    5    -18.16      0.00
    6    2    5     -2.33      0.00
    7    2    5      4.30      0.00
    8    2    5      1.67      0.00
    9    2    5     -0.19      0.00
   10    2    5      0.73      0.00
   11    2    5     -0.47      0.00
   12    2    5      1.56      0.00
   13    2    5     -1.69      0.00
   14    2    5     -0.57      0.00
   15    2    5     -0.40      0.00
  -13    3    5      0.78      0.00
  -12    3    5     -1.29      0.00
  -11    3    5     -0.43      0.00
  -10    3    5     -1.25      0.00
   -9    3    5     -0.75      0.00
   -8    3    5      1.01      0.00
   -7    3    5      1.17      0.00
   -6    3    5      2.71      0.00
   -5    3    5      1.91      0.00
   -3    3    5     -0.49      0.00
   -2    3    5     -6.14      0.00
   -1    3    5     -0.01      0.00
    0    3    5    -13.13      0.00
    1    3    5     16.17      0.00
    2    3    5     -1.75      0.00
    3    3    5    110.13      0.00
    4    3    5     31.93      0.00
    5    3    5      4.54      0.00
    6    3    5     -3.14      0.00
    7    3    5     -1.31      0.00
    8    3    5     -1.67      0.00
    9    3    5      1.36      0.00
   10    3    5     -1.04      0.00
   11    3    5      0.16      0.00
   12    3    5      0.31      0.00
   13    3    5      1.47      0.00
   14    3    5      0.34      0.00
   15    3    5      0.84      0.00
  -13    4    5     -1.45      0.00
  -12    4    5      0.81      0.00
  -11    4    5      1.99      0.00
  -10    4    5     -0.30      0.00
   -9    4    5      0.54      0.00
   -8    4    5     -1.92      0.00
   -7    4    5     -2.57      0.00
   -6    4    5     -1.73      0.00
   -5    4    5     -0.76      0.00
   -4    4    5      1.18      0.00
   -3    4    5     -3.70      0.00
   -2    4    5      9.73      0.00
   -1    4    5      3.20      0.00
    0    4    5     19.68      0.00
    1    4    5    -19.55      0.00
    2    4    5    -31.91      0.00
    4    4    5     -8.18      0.00
    5    4    5     10.35      0.00
    6    4    5     -3.34      0.00
    7    4    5      0.85      0.00
    8    4    5     -1.95      0.00
    9    4    5     -0.45      0.00
   10    4    5     -1.56      0.00
   11    4    5      0.39      0.00
   12    4    5     -1.94      0.00
   13    4    5     -0.34      0.00
   14    4    5     -0.77      0.00
   15    4    5     -0.11      0.00
  -13    5    5      0.46      0.00
  -12    5    5     -0.36      0.00
  -11    5    5     -1.45      0.00
  -10    5    5      0.28      0.00
   -9    5    5     -0.86      0.00
   -8    5    5      1.16      0.00
   -7    5    5      1.42      0.00
   -6    5    5     -0.57      0.00
   -5    5    5      0.88      0.00
   -4    5    5      3.05      0.00
   -3    5    5      0.11      0.00
   -2    5    5      6.12      0.00
   -1    5    5      0.00      0.00
    0    5    5      2.76      0.00
    1    5    5      0.90      0.00
    2    5    5     46.61      0.00
    3    5    5      8.57      0.00
    4    5    5     -3.08      0.00
    5    5    5     -9.75      0.00
    6    5    5      2.69      0.00
    7    5    5      1.38      0.00
    8    5    5      2.56      0.00
    9    5    5     -0.36      0.00
   10    5    5      3.09      0.00
   11    5    5      1.97      0.00
   12    5    5     -0.27      0.00
   13    5    5      0.85      0.00
   14    5    5      0.42      0.00
   15    5    5      0.62      0.00
  -13    6    5      0.66      0.00
  -12    6    5      0.95      0.00
  -11    6    5      0.28      0.00
  -10    6    5     -0.61      0.00
   -9    6    5     -0.53      0.00
   -8    6    5     -0.06      0.00
   -7    6    5      0.72      0.00
   -6    6    5      3.38      0.00
   -5    6    5      0.80      0.00
   -4    6    5     -4.68      0.00
   -3    6    5     -1.45      0.00
   -2    6    5    -11.97      0.00
   -1    6    5     -2.12      0.00
    0    6    5    -19.62      0.00
    1    6    5      3.58      0.00
    2    6    5    -41.88      0.00
    3    6    5     14.34      0.00
    4    6    5      7.07      0.00
    5    6    5      3.51      0.00
    6    6    5      0.33      0.00
    7    6    5     -0.42      0.00
    8    6    5      0.12      0.00
    9    6    5     -0.45      0.00
   10    6    5     -2.16      0.00
   11    6    5      0.12      0.00
   12    6    5      0.68      0.00
   13    6    5     -0.27      0.00
   14    6    5     -0.49      0.00
   15    6    5      0.48      0.00
  -13    7    5     -2.50      0.00
  -12    7    5     -0.47      0.00
  -11    7    5      2.17      0.00
  -10    7    5      0.92      0.00
   -9    7    5      0.52      0.00
   -8    7    5     -0.33      0.00
   -7    7    5     -0.95      0.00
   -6    7    5     -2.79      0.00
   -5    7    5     -1.79      0.00
   -4    7    5      1.52      0.00
   -3    7    5      0.17      0.00
   -2    7    5      4.45      0.00
   -1    7    5      5.87      0.00
    0    7    5      8.08      0.00
    1    7    5     10.40      0.00
    2    7    5     25.44      0.00
    3    7    5     -5.92      0.00
    4    7    5     -3.43      0.00
    5    7    5      0.69      0.00
    6    7    5     -3.53      0.00
    7    7    5     -1.37      0.00
    8    7    5     -2.95      0.00
    9    7    5      0.11      0.00
   10    7    5      0.62      0.00
   11    7    5     -2.14      0.00
   12    7    5      0.66      0.00
   13    7    5     -1.85      0.00
   14    7    5      0.38      0.00
   15    7    5     -0.67      0.00
  -12    8    5      0.51      0.00
  -11    8    5     -1.86      0.00
  -10    8    5     -1.55      0.00
   -9    8    5     -0.09      0.00
   -8    8    5      0.41      0.00
   -7    8    5      0.55      0.00
   -6    8    5     -1.21      0.00
   -5    8    5      2.42      0.00
   -4    8    5      0.87      0.00
   -3    8    5      4.68      0.00
   -2    8    5      0.64      0.00
   -1    8    5      1.10      0.00
    0    8    5     -2.32      0.00
    1    8    5    -16.84      0.00
    2    8    5     -3.21      0.00
    3    8    5     -3.01      0.00
    4    8    5     -2.33      0.00
    5    8    5     -1.65      0.00
    6    8    5      4.94      0.00
    7    8    5      0.35      0.00
    8    8    5      3.35      0.00
    9    8    5     -0.14      0.00
   10    8    5      2.28      0.00
   11    8    5     -1.34      0.00
   12    8    5     -0.03      0.00
   13    8    5      1.21      0.00
   14    8    5      0.80      0.00
   15    8    5      0.43      0.00
  -12    9    5     -0.28      0.00
  -11    9    5     -0.52      0.00
  -10    9    5      0.38      0.00
   -9    9    5      0.23      0.00
   -8    9    5     -0.60      0.00
   -7    9    5      0.02      0.00
   -6    9    5      0.19      0.00
   -5    9    5      0.62      0.00
   -4    9    5     -1.62      0.00
   -2    9    5     -5.49      0.00
   -1    9    5     -2.21      0.00
    0    9    5      2.25      0.00
    1    9    5      7.44      0.00
    2    9    5     -6.66      0.00
    3    9    5     -0.31      0.00
    4    9    5      2.80      0.00
    5    9    5     -2.31      0.00
    6    9    5     -0.41      0.00
    7    9    5      0.72      0.00
    8    9    5     -0.87      0.00
    9    9    5      0.89      0.00
   10    9    5     -0.29      0.00
   11    9    5      2.15      0.00
   12    9    5     -0.74      0.00
   13    9    5     -0.58      0.00
   14    9    5     -0.77      0.00
  -12   10    5      1.07      0.00
  -11   10    5      0.63      0.00
  -10   10    5      1.02      0.00
   -9   10    5      0.59      0.00
   -8   10    5      0.96      0.00
   -7   10    5      1.54      0.00
   -6   10    5      1.82      0.00
   -5   10    5     -3.28      0.00
   -4   10    5      1.05      0.00
   -3   10    5     -0.27      0.00
   -2   10    5      3.45      0.00
   -1   10    5     -3.79      0.00
    0   10    5      0.69      0.00
    1   10    5     -3.25      0.00
    2   10    5      6.36      0.00
    3   10    5      0.03      0.00
    4   10    5      6.46      0.00
    5   10    5      0.22      0.00
    6   10    5     -1.18      0.00
    7   10    5     -1.49      0.00
    8   10    5     -0.49      0.00
    9   10    5     -1.18      0.00
   10   10    5     -1.51      0.00
   11   10    5     -0.48      0.00
   12   10    5      0.33      0.00
   13   10    5      0.87      0.00
   14   10    5      0.47      0.00
  -11   11    5      0.22      0.00
  -10   11    5     -0.38      0.00
   -9   11    5     -1.50      0.00
   -8   11    5     -0.96      0.00
   -7   11    5     -0.83      0.00
   -6   11    5     -0.09      0.00
   -5   11    5      0.95      0.00
   -4   11    5     -0.47      0.00
   -3   11    5      0.68      0.00
   -2   11    5      0.46      0.00
   -1   11    5      2.27      0.00
    0   11    5      0.21      0.00
    1   11    5      3.29      0.00
    2   11    5     -2.18      0.00
    3   11    5      0.62      0.00
    4   11    5     -2.89      0.00
    5   11    5      1.27      0.00
    6   11    5      1.95      0.00
    7   11    5      0.40      0.00
    8   11    5      0.54      0.00
    9   11    5     -0.12      0.00
   10   11    5      0.42      0.00
   11   11    5      0.25      0.00
   12   11    5      0.79      0.00
   13   11    5     -0.68      0.00
   14   11    5     -0.32      0.00
  -11   12    5     -1.29      0.00
  -10   12    5     -0.35      0.00
   -9   12    5      0.59      0.00
   -8   12    5      1.12      0.00
   -7   12    5     -1.06      0.00
   -6   12    5     -2.44      0.00
   -5   12    5      0.71      0.00
   -4   12    5     -0.33      0.00
   -3   12    5     -0.34      0.00
   -2   12    5      0.55      0.00
   -1   12    5      0.49      0.00
    0   12    5     -1.60      0.00
    1   12    5      0.86      0.00
    2   12    5     -0.36      0.00
    3   12    5     -0.34      0.00
    4   12    5     -3.47      0.00
    5   12    5      1.11      0.00
    6   12    5     -2.25      0.00
    7   12    5      1.65      0.00
    8   12    5      0.52      0.00
    9   12    5      2.02      0.00
   10   12    5     -1.47      0.00
   11   12    5     -1.04      0.00
   12   12    5     -1.13      0.00
   13   12    5      0.16      0.00
  -11   13    5      0.86      0.00
  -10   13    5      0.79      0.00
   -9   13    5     -0.38      0.00
   -8   13    5      0.28      0.00
   -7   13    5      0.30      0.00
   -6   13    5      1.01      0.00
   -5   13    5     -0.04      0.00
   -4   13    5      0.08      0.00
   -3   13    5      1.39      0.00
   -2   13    5     -1.89      0.00
   -1   13    5      0.45      0.00
    0   13    5     -0.70      0.00
    1   13    5     -0.42      0.00
    2   13    5      2.17      0.00
    3   13    5     -1.37      0.00
    4   13    5      1.29      0.00
    5   13    5     -2.04      0.00
    6   13    5     -1.53      0.00
    7   13    5     -3.79      0.00
    8   13    5     -0.86      0.00
    9   13    5     -0.95      0.00
   10   13    5      0.78      0.00
   11   13    5      0.52      0.00
   12   13    5     -0.17      0.00
   13   13    5     -0.24      0.00
   -9   14    5      0.03      0.00
   -6   14    5      0.63      0.00
   -5   14    5      0.03      0.00
   -4   14    5     -0.54      0.00
   -3   14    5     -1.61      0.00
   -2   14    5      0.77      0.00
   -1   14    5      0.44      0.00
    0   14    5     -1.06      0.00
    1   14    5      0.73      0.00
    2   14    5     -2.55      0.00
    3   14    5      1.27      0.00
    4   14    5     -0.68      0.00
    5   14    5      2.49      0.00
    6   14    5      5.27      0.00
    7   14    5      1.69      0.00
    8   14    5      0.13      0.00
    9   14    5     -0.09      0.00
   10   14    5      0.36      0.00
   11   14    5      0.57      0.00
   12   14    5      0.69      0.00
   13   14    5      1.12      0.00
   -9   15    5     -1.20      0.00
   -7   15    5     -1.05      0.00
   -5   15    5     -1.90      0.00
   -4   15    5      0.73      0.00
   -2   15    5      2.62      0.00
   -1   15    5     -2.87      0.00
    0   15    5      1.01      0.00
    1   15    5     -1.18      0.00
    2   15    5      2.42      0.00
    3   15    5      0.78      0.00
    4   15    5     -0.34      0.00
    5   15    5     -2.86      0.00
    6   15    5     -2.47      0.00
    7   15    5      0.54      0.00
    8   15    5     -0.03      0.00
    9   15    5      0.26      0.00
   10   15    5     -1.08      0.00
   11   15    5      0.03      0.00
   12   15    5      0.95      0.00
   -9   16    5      1.40      0.00
   -7   16    5     -0.62      0.00
   -6   16    5      1.36      0.00
   -5   16    5     -0.43      0.00
   -4   16    5      1.45      0.00
   -3   16    5     -0.23      0.00
   -1   16    5      2.84      0.00
    0   16    5     -0.33      0.00
    1   16    5      0.16      0.00
    2   16    5     -0.62      0.00
    3   16    5     -0.98      0.00
    4   16    5      2.08      0.00
    5   16    5      0.14      0.00
    6   16    5     -0.08      0.00
    7   16    5     -1.54      0.00
    8   16    5     -0.77      0.00
    9   16    5      0.41      0.00
   10   16    5      0.99      0.00
   11   16    5      0.14      0.00
   -7   17    5     -1.19      0.00
   -6   17    5     -2.12      0.00
   -5   17    5      1.11      0.00
   -4   17    5      1.45      0.00
   -3   17    5      1.08      0.00
   -2   17    5      0.49      0.00
   -1   17    5     -0.61      0.00
    1   17    5     -1.08      0.00
    2   17    5     -0.85      0.00
    3   17    5      0.13      0.00
    4   17    5     -1.85      0.00
    5   17    5      0.55      0.00
    6   17    5      0.94      0.00
    7   17    5      3.36      0.00
    8   17    5      0.20      0.00
    9   17    5     -0.26      0.00
   10   17    5     -0.34      0.00
   11   17    5     -0.64      0.00
   -7   18    5      1.16      0.00
   -6   18    5     -0.97      0.00
   -5   18    5      1.35      0.00
   -4   18    5     -1.78      0.00
   -3   18    5     -0.26      0.00
   -2   18    5     -1.14      0.00
   -1   18    5     -0.71      0.00
    0   18    5      0.96      0.00
    1   18    5      0.03      0.00
    2   18    5     -0.83      0.00
    3   18    5      2.31      0.00
    4   18    5      1.19      0.00
    5   18    5     -0.07      0.00
    6   18    5     -0.80      0.00
    7   18    5     -1.62      0.00
    8   18    5      0.41      0.00
    9   18    5     -0.69      0.00
   10   18    5      0.75      0.00
   -6   19    5     -0.50      0.00
   -5   19    5     -1.60      0.00
   -4   19    5     -0.89      0.00
   -3   19    5     -0.48      0.00
   -2   19    5     -0.59      0.00
   -1   19    5      2.01      0.00
    0   19    5     -1.18      0.00
    1   19    5      1.43      0.00
    2   19    5     -1.58      0.00
    3   19    5     -2.31      0.00
    4   19    5     -0.74      0.00
    5   19    5     -1.18      0.00
    6   19    5      0.92      0.00
    7   19    5     -0.90      0.00
    8   19    5      1.19      0.00
    9   19    5     -0.32      0.00
   -5   20    5      1.05      0.00
   -4   20    5      1.29      0.00
   -3   20    5      1.24      0.00
   -2   20    5      0.20      0.00
   -1   20    5     -2.13      0.00
    0   20    5      2.24      0.00
    1   20    5     -0.42      0.00
    2   20    5      3.10      0.00
    3   20    5      1.45      0.00
    4   20    5      0.22      0.00
    5   20    5      1.97      0.00
    6   20    5     -1.41      0.00
    7   20    5      1.13      0.00
   -3   21    5     -0.76      0.00
   -2   21    5      0.40      0.00
   -1   21    5     -0.52      0.00
    0   21    5     -0.50      0.00
    1   21    5     -0.06      0.00
    2   21    5     -2.30      0.00
    3   21    5      0.42      0.00
    4   21    5     -0.07      0.00
    5   21    5      0.89      0.00
    6   21    5     -0.27      0.00
    0   22    5     -1.81      0.00
    1   22    5      0.43      0.00
    2   22    5      0.07      0.00
    3   22    5     -0.18      0.00
   -2  -18    6     -0.76      0.00
   -1  -18    6     -0.94      0.00
    0  -18    6      0.79      0.00
    1  -18    6     -0.58      0.00
    2  -18    6      0.54      0.00
    3  -18    6      0.74      0.00
   -4  -17    6     -0.22      0.00
   -3  -17    6     -0.43      0.00
   -2  -17    6      1.56      0.00
   -1  -17    6      0.07      0.00
    0  -17    6      0.31      0.00
    1  -17    6      0.39      0.00
    2  -17    6     -0.71      0.00
    3  -17    6     -0.33      0.00
    4  -17    6     -1.56      0.00
    5  -17    6      0.25      0.00
    6  -17    6     -0.17      0.00
   -6  -16    6      0.39      0.00
   -5  -16    6      1.22      0.00
   -4  -16    6      0.39      0.00
   -3  -16    6      1.30      0.00
   -2  -16    6     -1.29      0.00
   -1  -16    6      0.36      0.00
    0  -16    6     -0.29      0.00
    1  -16    6      1.64      0.00
    2  -16    6     -0.29      0.00
    3  -16    6      0.66      0.00
    4  -16    6      1.55      0.00
    5  -16    6     -0.20      0.00
    6  -16    6      0.06      0.00
    7  -16    6     -0.71      0.00
   -7  -15    6     -0.37      0.00
   -6  -15    6     -1.29      0.00
   -5  -15    6      1.50      0.00
   -4  -15    6     -1.13      0.00
   -3  -15    6     -0.36      0.00
   -2  -15    6      0.12      0.00
   -1  -15    6      0.61      0.00
    0  -15    6     -0.91      0.00
    1  -15    6     -0.66      0.00
    2  -15    6     -1.15      0.00
    3  -15    6     -1.33      0.00
    4  -15    6      1.39      0.00
    5  -15    6     -0.99      0.00
    6  -15    6     -0.10      0.00
    7  -15    6      1.40      0.00
    8  -15    6     -0.23      0.00
    9  -15    6      0.93      0.00
   -8  -14    6      0.26      0.00
   -7  -14    6      1.44      0.00
   -6  -14    6     -0.22      0.00
   -5  -14    6     -1.67      0.00
   -4  -14    6     -1.08      0.00
   -3  -14    6      0.53      0.00
   -2  -14    6     -0.72      0.00
   -1  -14    6     -0.16      0.00
    0  -14    6     -1.88      0.00
    1  -14    6     -0.14      0.00
    2  -14    6      0.58      0.00
    3  -14    6      0.89      0.00
    4  -14    6     -1.04      0.00
    5  -14    6      0.92      0.00
    6  -14    6     -1.92      0.00
    7  -14    6     -1.58      0.00
    8  -14    6     -0.29      0.00
    9  -14    6     -1.29      0.00
   -9  -13    6     -0.05      0.00
   -8  -13    6     -1.81      0.00
   -7  -13    6      0.14      0.00
   -6  -13    6      0.76      0.00
   -5  -13    6      0.46      0.00
   -4  -13    6      1.08      0.00
   -3  -13    6     -1.06      0.00
   -2  -13    6      0.53      0.00
   -1  -13    6      0.44      0.00
    0  -13    6      2.47      0.00
    1  -13    6      0.43      0.00
    2  -13    6      1.79      0.00
    3  -13    6      0.28      0.00
    4  -13    6      0.96      0.00
    5  -13    6      0.05      0.00
    6  -13    6      2.05      0.00
    7  -13    6      1.16      0.00
    8  -13    6      0.58      0.00
    9  -13    6     -0.11      0.00
   10  -13    6      0.55      0.00
   -9  -12    6     -1.27      0.00
   -8  -12    6      0.66      0.00
   -7  -12    6     -0.46      0.00
   -6  -12    6     -0.06      0.00
   -5  -12    6     -0.41      0.00
   -4  -12    6      1.01      0.00
   -3  -12    6      1.50      0.00
   -2  -12    6     -0.76      0.00
   -1  -12    6     -1.51      0.00
    0  -12    6      0.35      0.00
    1  -12    6     -0.74      0.00
    2  -12    6     -0.79      0.00
    3  -12    6     -2.14      0.00
    4  -12    6     -2.11      0.00
    5  -12    6     -1.47      0.00
    6  -12    6     -0.36      0.00
    7  -12    6     -0.36      0.00
    8  -12    6      1.62      0.00
    9  -12    6      0.12      0.00
   10  -12    6      0.83      0.00
   11  -12    6     -1.31      0.00
  -10  -11    6     -0.17      0.00
   -9  -11    6      0.98      0.00
   -8  -11    6      0.63      0.00
   -7  -11    6     -2.64      0.00
   -6  -11    6      1.11      0.00
   -5  -11    6      1.17      0.00
   -4  -11    6     -0.30      0.00
   -3  -11    6     -0.41      0.00
   -2  -11    6     -0.22      0.00
   -1  -11    6     -0.06      0.00
    0  -11    6      0.52      0.00
    1  -11    6     -0.26      0.00
    2  -11    6     -1.18      0.00
    3  -11    6      0.74      0.00
    4  -11    6      0.71      0.00
    5  -11    6      1.84      0.00
    6  -11    6      1.85      0.00
    7  -11    6     -1.65      0.00
    8  -11    6      0.31      0.00
    9  -11    6      0.05      0.00
   10  -11    6     -2.09      0.00
   12  -11    6     -0.62      0.00
  -10  -10    6      0.58      0.00
   -9  -10    6      1.70      0.00
   -8  -10    6      0.84      0.00
   -7  -10    6      1.72      0.00
   -6  -10    6     -2.11      0.00
   -5  -10    6     -2.54      0.00
   -4  -10    6     -0.72      0.00
   -3  -10    6      1.18      0.00
   -2  -10    6      2.13      0.00
   -1  -10    6     -0.19      0.00
    0  -10    6      0.16      0.00
    1  -10    6      2.27      0.00
    2  -10    6      1.22      0.00
    3  -10    6      0.15      0.00
    4  -10    6     -0.28      0.00
    5  -10    6     -0.89      0.00
    6  -10    6     -1.96      0.00
    7  -10    6      1.65      0.00
    8  -10    6     -1.53      0.00
    9  -10    6      0.85      0.00
   10  -10    6     -0.28      0.00
   11  -10    6     -0.65      0.00
   12  -10    6     -0.84      0.00
  -11   -9    6     -0.11      0.00
  -10   -9    6      0.13      0.00
   -9   -9    6     -0.74      0.00
   -8   -9    6     -0.82      0.00
   -7   -9    6      1.64      0.00
   -6   -9    6      0.74      0.00
   -5   -9    6     -0.55      0.00
   -4   -9    6      0.15      0.00
   -3   -9    6     -0.19      0.00
   -2   -9    6      0.36      0.00
   -1   -9    6     -0.97      0.00
    0   -9    6     -2.74      0.00
    1   -9    6     -0.66      0.00
    2   -9    6      1.68      0.00
    3   -9    6      3.11      0.00
    4   -9    6      2.08      0.00
    5   -9    6      1.85      0.00
    6   -9    6     -1.53      0.00
    7   -9    6     -1.35      0.00
    8   -9    6     -0.01      0.00
    9   -9    6     -0.78      0.00
   10   -9    6      2.62      0.00
   11   -9    6     -0.26      0.00
   12   -9    6      1.32      0.00
   13   -9    6      0.88      0.00
  -11   -8    6     -1.34      0.00
  -10   -8    6      0.56      0.00
   -9   -8    6     -1.86      0.00
   -8   -8    6     -0.75      0.00
   -7   -8    6     -1.10      0.00
   -6   -8    6      1.50      0.00
   -5   -8    6      4.34      0.00
   -4   -8    6     -1.00      0.00
   -3   -8    6     -2.57      0.00
   -2   -8    6     -1.54      0.00
   -1   -8    6      3.09      0.00
    0   -8    6     -1.58      0.00
    1   -8    6     -2.82      0.00
    2   -8    6     -7.62      0.00
    3   -8    6     -5.89      0.00
    4   -8    6     -2.42      0.00
    5   -8    6     -0.64      0.00
    6   -8    6      3.17      0.00
    7   -8    6     -0.82      0.00
    8   -8    6     -1.08      0.00
    9   -8    6     -1.74      0.00
   10   -8    6     -0.19      0.00
   11   -8    6      0.72      0.00
   12   -8    6     -1.46      0.00
   13   -8    6      0.52      0.00
  -12   -7    6      0.28      0.00
  -11   -7    6     -0.13      0.00
  -10   -7    6     -0.12      0.00
   -9   -7    6      1.02      0.00
   -8   -7    6      1.87      0.00
   -7   -7    6     -1.98      0.00
   -6   -7    6     -0.26      0.00
   -5   -7    6     -1.08      0.00
   -4   -7    6      2.98      0.00
   -3   -7    6     -1.97      0.00
   -2   -7    6      2.03      0.00
   -1   -7    6      0.24      0.00
    0   -7    6      3.65      0.00
    1   -7    6      7.29      0.00
    2   -7    6      7.77      0.00
    4   -7    6     -1.50      0.00
    5   -7    6     -0.05      0.00
    6   -7    6     -0.13      0.00
    7   -7    6      2.72      0.00
    8   -7    6      1.52      0.00
    9   -7    6      1.18      0.00
   10   -7    6     -0.13      0.00
   11   -7    6     -0.69      0.00
   12   -7    6      0.62      0.00
   13   -7    6     -0.61      0.00
   14   -7    6     -0.30      0.00
  -12   -6    6      0.99      0.00
  -11   -6    6      1.15      0.00
  -10   -6    6     -0.63      0.00
   -9   -6    6     -0.23      0.00
   -8   -6    6     -0.85      0.00
   -7   -6    6     -0.48      0.00
   -6   -6    6      1.02      0.00
   -5   -6    6     -1.47      0.00
   -4   -6    6     -0.75      0.00
   -3   -6    6      0.37      0.00
   -2   -6    6     -3.45      0.00
   -1   -6    6     -0.06      0.00
    0   -6    6     -5.89      0.00
    1   -6    6     -8.02      0.00
    2   -6    6     -2.12      0.00
    3   -6    6      3.47      0.00
    4   -6    6      0.40      0.00
    5   -6    6     -1.04      0.00
    6   -6    6     -0.14      0.00
    7   -6    6     -0.27      0.00
    8   -6    6      0.06      0.00
    9   -6    6      0.89      0.00
   10   -6    6     -1.08      0.00
   11   -6    6      0.00      0.00
   12   -6    6      1.28      0.00
   13   -6    6     -0.66      0.00
   14   -6    6      1.66      0.00
  -12   -5    6     -1.36      0.00
  -11   -5    6      0.67      0.00
  -10   -5    6     -0.37      0.00
   -9   -5    6      1.27      0.00
   -8   -5    6     -1.46      0.00
   -7   -5    6      2.20      0.00
   -6   -5    6     -2.44      0.00
   -5   -5    6     -0.36      0.00
   -4   -5    6     -0.69      0.00
   -3   -5    6      2.32      0.00
   -2   -5    6     -2.98      0.00
   -1   -5    6      1.20      0.00
    0   -5    6      8.81      0.00
    1   -5    6      1.85      0.00
    2   -5    6      2.12      0.00
    3   -5    6      2.66      0.00
    4   -5    6      2.26      0.00
    5   -5    6     -4.21      0.00
    6   -5    6     -1.26      0.00
    7   -5    6     -1.18      0.00
    8   -5    6     -2.72      0.00
    9   -5    6     -1.13      0.00
   10   -5    6      0.27      0.00
   11   -5    6      0.67      0.00
   12   -5    6     -1.21      0.00
   13   -5    6      0.10      0.00
   14   -5    6      0.10      0.00
  -12   -4    6     -1.53      0.00
  -11   -4    6     -1.20      0.00
  -10   -4    6     -0.34      0.00
   -9   -4    6      1.60      0.00
   -8   -4    6     -0.10      0.00
   -7   -4    6     -0.41      0.00
   -6   -4    6      0.51      0.00
   -5   -4    6     -0.91      0.00
   -4   -4    6      2.54      0.00
   -3   -4    6     -0.35      0.00
   -2   -4    6      8.45      0.00
   -1   -4    6     -2.02      0.00
    0   -4    6      0.08      0.00
    1   -4    6     -4.03      0.00
    2   -4    6     -8.46      0.00
    3   -4    6     -5.59      0.00
    4   -4    6      1.68      0.00
    5   -4    6      4.71      0.00
    6   -4    6      2.06      0.00
    7   -4    6      1.70      0.00
    8   -4    6      3.28      0.00
    9   -4    6     -0.04      0.00
   10   -4    6      0.27      0.00
   11   -4    6     -0.24      0.00
   12   -4    6      0.46      0.00
   13   -4    6     -0.99      0.00
   14   -4    6     -0.83      0.00
   15   -4    6      0.06      0.00
  -13   -3    6      0.00      0.00
  -12   -3    6      1.93      0.00
  -10   -3    6     -1.24      0.00
   -9   -3    6     -2.92      0.00
   -8   -3    6      1.99      0.00
   -7   -3    6      0.14      0.00
   -6   -3    6      0.83      0.00
   -5   -3    6      1.31      0.00
   -4   -3    6     -3.85      0.00
   -3   -3    6      0.35      0.00
   -2   -3    6     -2.07      0.00
   -1   -3    6     -1.35      0.00
    0   -3    6     -2.96      0.00
    1   -3    6      7.18      0.00
    2   -3    6     -0.49      0.00
    3   -3    6     -7.45      0.00
    4   -3    6     -1.07      0.00
    5   -3    6     -1.35      0.00
    6   -3    6     -1.37      0.00
    7   -3    6     -1.41      0.00
    8   -3    6      0.13      0.00
    9   -3    6     -0.28      0.00
   10   -3    6      0.50      0.00
   11   -3    6     -0.17      0.00
   12   -3    6      0.12      0.00
   13   -3    6      2.22      0.00
   14   -3    6      0.17      0.00
   15   -3    6      1.44      0.00
  -13   -2    6      0.19      0.00
  -11   -2    6      1.47      0.00
   -9   -2    6      1.05      0.00
   -7   -2    6      0.12      0.00
   -6   -2    6      0.92      0.00
   -5   -2    6     -0.34      0.00
   -4   -2    6     -0.57      0.00
   -3   -2    6      0.13      0.00
   -2   -2    6      1.41      0.00
   -1   -2    6    -12.16      0.00
    0   -2    6     -2.44      0.00
    1   -2    6      2.82      0.00
    2   -2    6     17.25      0.00
    3   -2    6      8.78      0.00
    4   -2    6     -1.09      0.00
    5   -2    6      0.23      0.00
    6   -2    6     -4.35      0.00
    7   -2    6     -0.54      0.00
    8   -2    6      0.45      0.00
    9   -2    6      2.01      0.00
   10   -2    6     -1.49      0.00
   11   -2    6     -0.66      0.00
   12   -2    6     -1.38      0.00
   13   -2    6     -0.46      0.00
   14   -2    6     -1.09      0.00
   15   -2    6     -0.41      0.00
  -12   -1    6     -2.01      0.00
  -11   -1    6     -1.87      0.00
   -9   -1    6     -2.02      0.00
   -8   -1    6     -0.97      0.00
   -7   -1    6     -0.15      0.00
   -6   -1    6     -1.12      0.00
   -5   -1    6      0.05      0.00
   -4   -1    6      2.41      0.00
   -3   -1    6     -1.60      0.00
   -2   -1    6      1.97      0.00
   -1   -1    6     15.12      0.00
    0   -1    6      4.31      0.00
    1   -1    6     -4.93      0.00
    2   -1    6     -7.38      0.00
    3   -1    6     -3.58      0.00
    4   -1    6      3.88      0.00
    5   -1    6      0.60      0.00
    6   -1    6      4.56      0.00
    7   -1    6     -3.67      0.00
    8   -1    6     -2.75      0.00
    9   -1    6     -0.77      0.00
   10   -1    6      0.97      0.00
   11   -1    6      0.74      0.00
   12   -1    6      0.86      0.00
   13   -1    6     -0.73      0.00
   14   -1    6      0.51      0.00
   15   -1    6     -0.51      0.00
  -12    0    6      0.04      0.00
  -11    0    6     -0.69      0.00
  -10    0    6      0.21      0.00
   -9    0    6     -1.87      0.00
   -7    0    6     -0.25      0.00
   -6    0    6     -1.58      0.00
   -5    0    6      0.33      0.00
   -4    0    6      1.13      0.00
   -3    0    6      2.80      0.00
   -2    0    6     -7.50      0.00
   -1    0    6      2.82      0.00
    0    0    6     -2.84      0.00
    1    0    6     -6.29      0.00
    2    0    6    -10.78      0.00
    3    0    6      0.31      0.00
    4    0    6     -6.12      0.00
    5    0    6      5.30      0.00
    6    0    6      8.98      0.00
    7    0    6      2.88      0.00
    8    0    6      3.77      0.00
    9    0    6      0.89      0.00
   10    0    6     -0.61      0.00
   11    0    6      0.86      0.00
   12    0    6     -0.17      0.00
   13    0    6      1.32      0.00
   14    0    6      0.38      0.00
   15    0    6      0.42      0.00
  -13    1    6     -0.67      0.00
  -12    1    6      0.68      0.00
  -11    1    6      1.34      0.00
  -10    1    6     -1.30      0.00
   -9    1    6      1.66      0.00
   -8    1    6      0.58      0.00
   -7    1    6      0.78      0.00
   -6    1    6      1.71      0.00
   -5    1    6     -1.76      0.00
   -4    1    6     -4.44      0.00
   -3    1    6     -2.89      0.00
   -2    1    6      2.91      0.00
   -1    1    6     -4.50      0.00
    0    1    6     -2.04      0.00
    1    1    6      2.44      0.00
    2    1    6     11.37      0.00
    3    1    6      2.32      0.00
    4    1    6    -11.80      0.00
    5    1    6    -13.86      0.00
    6    1    6    -16.02      0.00
    7    1    6      0.50      0.00
    8    1    6     -3.47      0.00
    9    1    6     -0.44      0.00
   10    1    6      0.20      0.00
   11    1    6     -1.70      0.00
   12    1    6      0.24      0.00
   13    1    6     -0.60      0.00
   14    1    6      0.16      0.00
   15    1    6     -1.35      0.00
  -13    2    6      0.74      0.00
  -12    2    6      0.63      0.00
  -11    2    6     -0.85      0.00
  -10    2    6     -1.06      0.00
   -9    2    6      3.44      0.00
   -8    2    6     -1.19      0.00
   -7    2    6      0.45      0.00
   -6    2    6      0.82      0.00
   -5    2    6      4.31      0.00
   -4    2    6      5.46      0.00
   -3    2    6      5.32      0.00
   -2    2    6     -3.71      0.00
   -1    2    6     -3.51      0.00
    0    2    6      2.07      0.00
    1    2    6      3.03      0.00
    2    2    6      8.89      0.00
    3    2    6      0.64      0.00
    4    2    6     38.88      0.00
    5    2    6     25.62      0.00
    6    2    6      6.21      0.00
    7    2    6      4.46      0.00
    8    2    6     -1.10      0.00
    9    2    6     -1.42      0.00
   10    2    6     -0.49      0.00
   11    2    6      0.73      0.00
   12    2    6      0.38      0.00
   13    2    6     -1.12      0.00
   14    2    6     -0.11      0.00
   15    2    6     -0.24      0.00
  -13    3    6     -1.59      0.00
  -12    3    6     -1.37      0.00
  -11    3    6      0.95      0.00
  -10    3    6      0.18      0.00
   -9    3    6      1.55      0.00
   -8    3    6     -0.36      0.00
   -7    3    6     -1.50      0.00
   -6    3    6     -3.68      0.00
   -5    3    6     -4.11      0.00
   -4    3    6     -3.13      0.00
   -3    3    6     -2.89      0.00
   -2    3    6      2.04      0.00
   -1    3    6     -3.76      0.00
    0    3    6      0.24      0.00
    1    3    6      1.80      0.00
    2    3    6    -27.18      0.00
    3    3    6     -7.31      0.00
    4    3    6    -56.85      0.00
    5    3    6    -23.29      0.00
    6    3    6     -0.03      0.00
    7    3    6     -1.57      0.00
    8    3    6      1.71      0.00
    9    3    6      1.93      0.00
   10    3    6     -0.56      0.00
   11    3    6      0.79      0.00
   12    3    6     -0.04      0.00
   13    3    6      1.47      0.00
   14    3    6     -0.90      0.00
   15    3    6      1.07      0.00
  -13    4    6      0.70      0.00
  -12    4    6      1.58      0.00
  -11    4    6     -0.12      0.00
  -10    4    6     -1.17      0.00
   -9    4    6     -3.90      0.00
   -8    4    6      0.43      0.00
   -7    4    6      0.83      0.00
   -6    4    6      3.03      0.00
   -5    4    6      0.56      0.00
   -4    4    6      0.51      0.00
   -3    4    6     -3.76      0.00
   -2    4    6      7.07      0.00
   -1    4    6      7.62      0.00
    0    4    6     13.11      0.00
    1    4    6     -3.19      0.00
    2    4    6     20.28      0.00
    3    4    6     27.95      0.00
    4    4    6     48.09      0.00
    5    4    6      7.18      0.00
    6    4    6     -5.87      0.00
    7    4    6     -1.00      0.00
    8    4    6     -1.00      0.00
    9    4    6     -2.13      0.00
   10    4    6      0.66      0.00
   11    4    6     -1.04      0.00
   12    4    6     -0.93      0.00
   13    4    6      0.38      0.00
   14    4    6      0.30      0.00
   15    4    6      1.09      0.00
  -13    5    6     -0.26      0.00
  -12    5    6      0.09      0.00
  -11    5    6     -0.15      0.00
  -10    5    6      1.02      0.00
   -9    5    6     -0.42      0.00
   -8    5    6     -0.19      0.00
   -7    5    6     -1.28      0.00
   -6    5    6     -0.38      0.00
   -5    5    6      3.61      0.00
   -4    5    6     -1.15      0.00
   -3    5    6      3.37      0.00
   -2    5    6     -7.05      0.00
   -1    5    6      0.43      0.00
    0    5    6    -11.74      0.00
    1    5    6      0.67      0.00
    2    5    6     -5.89      0.00
    3    5    6    -51.99      0.00
    4    5    6    -18.31      0.00
    5    5    6      1.74      0.00
    6    5    6      7.64      0.00
    7    5    6      1.10      0.00
    8    5    6      2.36      0.00
    9    5    6      0.56      0.00
   10    5    6      1.52      0.00
   11    5    6      1.44      0.00
   12    5    6      0.13      0.00
   13    5    6     -0.87      0.00
   14    5    6      0.25      0.00
   15    5    6     -0.46      0.00
  -13    6    6      0.06      0.00
  -12    6    6     -2.03      0.00
  -11    6    6     -0.35      0.00
  -10    6    6      0.38      0.00
   -9    6    6      2.33      0.00
   -8    6    6      0.55      0.00
   -7    6    6      2.95      0.00
   -6    6    6     -0.22      0.00
   -5    6    6     -2.27      0.00
   -4    6    6     -1.65      0.00
   -3    6    6     -0.88      0.00
   -2    6    6     -3.45      0.00
   -1    6    6     -0.56      0.00
    0    6    6    -11.26      0.00
    1    6    6      6.57      0.00
    2    6    6      1.07      0.00
    3    6    6     52.85      0.00
    4    6    6      0.02      0.00
    5    6    6     -2.71      0.00
    6    6    6     -2.69      0.00
    7    6    6     -2.08      0.00
    8    6    6     -1.47      0.00
    9    6    6     -0.39      0.00
   10    6    6      0.09      0.00
   11    6    6     -0.87      0.00
   12    6    6      1.30      0.00
   13    6    6     -0.93      0.00
   14    6    6      0.09      0.00
   15    6    6     -0.01      0.00
  -12    7    6      2.62      0.00
  -11    7    6      2.00      0.00
  -10    7    6     -1.73      0.00
   -9    7    6     -1.40      0.00
   -8    7    6     -0.34      0.00
   -7    7    6     -1.79      0.00
   -6    7    6      0.78      0.00
   -5    7    6      0.16      0.00
   -4    7    6      3.34      0.00
   -3    7    6      1.43      0.00
   -2    7    6      6.56      0.00
   -1    7    6      1.67      0.00
    0    7    6      8.49      0.00
    1    7    6    -10.21      0.00
    2    7    6     -9.58      0.00
    3    7    6    -28.93      0.00
    4    7    6      5.07      0.00
    5    7    6     -0.71      0.00
    6    7    6      0.55      0.00
    7    7    6     -0.93      0.00
    8    7    6     -0.72      0.00
    9    7    6     -0.38      0.00
   10    7    6     -0.82      0.00
   11    7    6     -2.63      0.00
   12    7    6     -0.10      0.00
   13    7    6     -0.67      0.00
   14    7    6      0.05      0.00
   15    7    6     -0.72      0.00
  -12    8    6     -1.15      0.00
  -11    8    6     -1.50      0.00
  -10    8    6      0.81      0.00
   -9    8    6     -0.55      0.00
   -8    8    6      0.45      0.00
   -7    8    6     -0.74      0.00
   -6    8    6     -3.48      0.00
   -5    8    6      0.82      0.00
   -4    8    6     -0.13      0.00
   -3    8    6      0.79      0.00
   -2    8    6     -1.93      0.00
   -1    8    6      1.77      0.00
    0    8    6      4.58      0.00
    1    8    6      5.69      0.00
    2    8    6     19.82      0.00
    3    8    6     -2.30      0.00
    4    8    6     -3.32      0.00
    5    8    6     -0.55      0.00
    6    8    6      2.26      0.00
    7    8    6      1.63      0.00
    8    8    6      1.63      0.00
    9    8    6      0.96      0.00
   10    8    6      2.51      0.00
   11    8    6      2.25      0.00
   12    8    6     -0.91      0.00
   13    8    6      1.93      0.00
   14    8    6      0.11      0.00
   15    8    6      0.23      0.00
  -12    9    6     -0.32      0.00
  -11    9    6     -0.77      0.00
  -10    9    6      0.53      0.00
   -9    9    6      1.59      0.00
   -8    9    6      1.01      0.00
   -7    9    6      1.51      0.00
   -6    9    6      1.65      0.00
   -5    9    6     -1.07      0.00
   -4    9    6     -1.03      0.00
   -3    9    6     -2.70      0.00
   -2    9    6     -1.32      0.00
   -1    9    6     -8.30      0.00
    0    9    6     -2.54      0.00
    1    9    6     -5.87      0.00
    2    9    6    -12.01      0.00
    3    9    6     10.34      0.00
    4    9    6      2.64      0.00
    5    9    6      0.00      0.00
    6    9    6     -0.99      0.00
    7    9    6      0.23      0.00
    8    9    6     -0.66      0.00
    9    9    6      0.87      0.00
   10    9    6     -2.59      0.00
   11    9    6      0.38      0.00
   12    9    6     -0.23      0.00
   13    9    6     -0.03      0.00
   14    9    6      1.15      0.00
   15    9    6      0.14      0.00
  -12   10    6      0.43      0.00
  -11   10    6      0.07      0.00
  -10   10    6      1.35      0.00
   -9   10    6     -1.51      0.00
   -8   10    6     -1.06      0.00
   -7   10    6     -0.77      0.00
   -6   10    6      2.18      0.00
   -5   10    6     -0.71      0.00
   -4   10    6      1.56      0.00
   -3   10    6      1.74      0.00
   -2   10    6      0.83      0.00
   -1   10    6      1.84      0.00
    0   10    6      1.51      0.00
    1   10    6      6.16      0.00
    2   10    6     -0.28      0.00
    3   10    6     -4.00      0.00
    4   10    6      2.72      0.00
    5   10    6     -0.66      0.00
    6   10    6      0.42      0.00
    7   10    6     -1.29      0.00
    8   10    6     -0.09      0.00
    9   10    6     -0.90      0.00
   10   10    6     -1.18      0.00
   11   10    6      0.36      0.00
   12   10    6      0.74      0.00
   13   10    6     -1.49      0.00
   14   10    6     -1.27      0.00
  -11   11    6      0.12      0.00
  -10   11    6     -1.52      0.00
   -9   11    6     -0.52      0.00
   -8   11    6      0.62      0.00
   -7   11    6      0.81      0.00
   -6   11    6     -1.28      0.00
   -5   11    6     -0.42      0.00
   -4   11    6     -2.20      0.00
   -3   11    6     -0.55      0.00
   -2   11    6      1.71      0.00
   -1   11    6      2.78      0.00
    0   11    6     -3.00      0.00
    1   11    6     -1.65      0.00
    2   11    6      1.34      0.00
    3   11    6      1.77      0.00
    4   11    6     -3.83      0.00
    5   11    6      3.98      0.00
    6   11    6     -1.79      0.00
    7   11    6      0.56      0.00
    8   11    6      0.29      0.00
    9   11    6      1.01      0.00
   10   11    6      0.11      0.00
   11   11    6     -1.48      0.00
   12   11    6     -0.12      0.00
   13   11    6      0.73      0.00
   14   11    6      0.18      0.00
  -11   12    6      0.06      0.00
  -10   12    6      0.83      0.00
   -9   12    6      1.19      0.00
   -8   12    6      0.61      0.00
   -7   12    6     -2.99      0.00
   -6   12    6     -0.21      0.00
   -5   12    6      1.29      0.00
   -4   12    6      0.10      0.00
   -3   12    6     -0.16      0.00
   -2   12    6     -1.56      0.00
   -1   12    6     -1.12      0.00
    0   12    6      2.06      0.00
    1   12    6      1.95      0.00
    2   12    6      2.49      0.00
    3   12    6     -1.66      0.00
    4   12    6     -2.24      0.00
    5   12    6     -1.60      0.00
    6   12    6     -0.38      0.00
    7   12    6     -0.91      0.00
    8   12    6     -0.66      0.00
    9   12    6     -0.09      0.00
   10   12    6     -0.35      0.00
   11   12    6      1.52      0.00
   12   12    6      0.06      0.00
   13   12    6     -0.29      0.00
   14   12    6     -0.19      0.00
  -10   13    6     -0.83      0.00
   -9   13    6     -1.25      0.00
   -8   13    6      0.54      0.00
   -7   13    6      1.31      0.00
   -6   13    6      0.53      0.00
   -5   13    6     -0.73      0.00
   -4   13    6      1.15      0.00
   -3   13    6      2.36      0.00
   -2   13    6     -1.09      0.00
   -1   13    6      2.24      0.00
    0   13    6     -2.80      0.00
    1   13    6     -0.78      0.00
    2   13    6     -2.58      0.00
    3   13    6      0.25      0.00
    4   13    6      1.25      0.00
    5   13    6     -1.15      0.00
    6   13    6      1.49      0.00
    7   13    6     -0.18      0.00
    8   13    6      1.26      0.00
    9   13    6     -0.08      0.00
   10   13    6      0.69      0.00
   11   13    6     -0.56      0.00
   12   13    6     -0.92      0.00
   13   13    6      0.97      0.00
  -10   14    6      0.79      0.00
   -9   14    6     -0.04      0.00
   -8   14    6     -2.03      0.00
   -7   14    6      1.41      0.00
   -6   14    6      0.52      0.00
   -5   14    6     -0.54      0.00
   -4   14    6     -0.08      0.00
   -3   14    6     -4.20      0.00
   -2   14    6      3.58      0.00
   -1   14    6     -3.44      0.00
    0   14    6     -0.40      0.00
    1   14    6     -1.16      0.00
    2   14    6      0.43      0.00
    3   14    6      1.57      0.00
    4   14    6     -1.19      0.00
    5   14    6      2.27      0.00
    6   14    6     -0.43      0.00
    7   14    6      0.88      0.00
    8   14    6     -1.15      0.00
    9   14    6     -0.82      0.00
   10   14    6      0.65      0.00
   11   14    6     -0.27      0.00
   12   14    6      1.28      0.00
   13   14    6      0.21      0.00
   -9   15    6      1.05      0.00
   -8   15    6      0.77      0.00
   -5   15    6     -0.24      0.00
   -4   15    6      1.40      0.00
   -3   15    6     -1.24      0.00
   -2   15    6     -0.06      0.00
   -1   15    6      1.91      0.00
    0   15    6      1.99      0.00
    1   15    6      0.79      0.00
    2   15    6      0.94      0.00
    3   15    6     -0.75      0.00
    4   15    6      1.74      0.00
    5   15    6     -1.66      0.00
    6   15    6      2.67      0.00
    7   15    6      0.15      0.00
    8   15    6      0.24      0.00
    9   15    6      0.61      0.00
   10   15    6     -0.31      0.00
   11   15    6      0.83      0.00
   12   15    6     -0.32      0.00
   -9   16    6      0.44      0.00
   -8   16    6     -0.51      0.00
   -6   16    6     -2.61      0.00
   -5   16    6     -0.73      0.00
   -4   16    6     -0.60      0.00
   -3   16    6      3.87      0.00
   -1   16    6      2.04      0.00
    0   16    6     -1.56      0.00
    1   16    6     -0.07      0.00
    2   16    6     -1.68      0.00
    3   16    6      1.47      0.00
    4   16    6     -1.11      0.00
    5   16    6     -2.95      0.00
    6   16    6     -2.97      0.00
    7   16    6     -0.81      0.00
    8   16    6      0.10      0.00
    9   16    6      0.11      0.00
   10   16    6     -0.13      0.00
   11   16    6     -0.13      0.00
   12   16    6     -0.80      0.00
   -6   17    6     -2.40      0.00
   -5   17    6      2.50      0.00
   -4   17    6      0.18      0.00
   -3   17    6     -1.10      0.00
   -2   17    6     -0.25      0.00
    1   17    6     -0.69      0.00
    2   17    6     -1.35      0.00
    3   17    6      0.08      0.00
    4   17    6      0.73      0.00
    5   17    6      3.61      0.00
    6   17    6      1.62      0.00
    7   17    6      1.18      0.00
    8   17    6     -0.95      0.00
    9   17    6     -1.32      0.00
   10   17    6      1.05      0.00
   11   17    6     -0.69      0.00
   -7   18    6      0.45      0.00
   -6   18    6      0.33      0.00
   -5   18    6      0.38      0.00
   -4   18    6     -2.62      0.00
   -3   18    6     -0.37      0.00
   -2   18    6     -1.17      0.00
   -1   18    6      1.77      0.00
    0   18    6     -0.34      0.00
    1   18    6      0.57      0.00
    2   18    6      0.50      0.00
    3   18    6     -0.49      0.00
    4   18    6      0.04      0.00
    5   18    6     -1.86      0.00
    6   18    6     -0.42      0.00
    7   18    6      0.17      0.00
    8   18    6      2.31      0.00
    9   18    6      0.37      0.00
   10   18    6      0.14      0.00
   -6   19    6      0.06      0.00
   -5   19    6      0.06      0.00
   -4   19    6      2.14      0.00
   -3   19    6      1.16      0.00
   -2   19    6      1.93      0.00
   -1   19    6     -0.83      0.00
    0   19    6      0.43      0.00
    1   19    6      0.28      0.00
    2   19    6      0.49      0.00
    3   19    6      0.54      0.00
    4   19    6      0.33      0.00
    5   19    6      2.04      0.00
    6   19    6     -1.59      0.00
    7   19    6     -0.60      0.00
    8   19    6     -0.92      0.00
    9   19    6      0.27      0.00
   -5   20    6     -1.39      0.00
   -4   20    6     -0.06      0.00
   -3   20    6     -1.32      0.00
   -2   20    6     -0.16      0.00
   -1   20    6     -0.95      0.00
    0   20    6      0.69      0.00
    1   20    6     -1.01      0.00
    2   20    6     -0.05      0.00
    3   20    6     -0.90      0.00
    5   20    6      1.77      0.00
    6   20    6     -0.34      0.00
    7   20    6      0.09      0.00
    8   20    6     -1.58      0.00
   -3   21    6      1.08      0.00
   -2   21    6     -0.69      0.00
   -1   21    6      0.35      0.00
    0   21    6     -0.78      0.00
    1   21    6      1.03      0.00
    2   21    6      0.28      0.00
    3   21    6      1.04      0.00
    6   21    6      0.87      0.00
   -1   22    6     -0.01      0.00
    0   22    6     -0.52      0.00
    1   22    6     -0.57      0.00
    2   22    6     -0.57      0.00
    3   22    6     -0.87      0.00
   -3  -17    7      0.43      0.00
   -2  -17    7      0.91      0.00
   -1  -17    7     -1.16      0.00
    0  -17    7     -0.32      0.00
    1  -17    7      0.79      0.00
    2  -17    7      0.10      0.00
    3  -17    7      0.26      0.00
    4  -17    7      0.39      0.00
    5  -17    7     -0.37      0.00
   -5  -16    7      0.75      0.00
   -4  -16    7     -0.65      0.00
   -3  -16    7     -0.50      0.00
   -2  -16    7     -1.73      0.00
   -1  -16    7      1.42      0.00
    0  -16    7     -0.30      0.00
    1  -16    7      0.17      0.00
    2  -16    7     -1.14      0.00
    3  -16    7     -1.55      0.00
    4  -16    7      0.98      0.00
    5  -16    7     -0.02      0.00
    6  -16    7     -0.34      0.00
    7  -16    7      0.35      0.00
   -6  -15    7      0.19      0.00
   -5  -15    7      0.79      0.00
   -4  -15    7     -0.24      0.00
   -3  -15    7      1.28      0.00
   -2  -15    7      0.78      0.00
   -1  -15    7     -0.37      0.00
    0  -15    7     -0.29      0.00
    1  -15    7      0.24      0.00
    2  -15    7      0.53      0.00
    3  -15    7      1.06      0.00
    4  -15    7     -0.14      0.00
    5  -15    7      0.35      0.00
    6  -15    7     -0.51      0.00
    7  -15    7     -1.15      0.00
    8  -15    7     -0.40      0.00
   -7  -14    7     -0.99      0.00
   -6  -14    7      0.15      0.00
   -5  -14    7     -0.98      0.00
   -4  -14    7      0.45      0.00
   -3  -14    7     -0.93      0.00
   -2  -14    7      0.23      0.00
   -1  -14    7     -0.06      0.00
    0  -14    7      0.07      0.00
    1  -14    7     -0.45      0.00
    2  -14    7      0.43      0.00
    3  -14    7     -0.07      0.00
    4  -14    7     -0.27      0.00
    5  -14    7     -0.18      0.00
    6  -14    7      0.01      0.00
    7  -14    7      0.26      0.00
    8  -14    7     -0.09      0.00
    9  -14    7     -1.68      0.00
   -8  -13    7      0.18      0.00
   -7  -13    7      0.43      0.00
   -6  -13    7      0.15      0.00
   -5  -13    7     -1.95      0.00
   -4  -13    7     -0.15      0.00
   -3  -13    7     -0.31      0.00
   -2  -13    7     -0.49      0.00
   -1  -13    7     -1.84      0.00
    0  -13    7      1.00      0.00
    1  -13    7     -1.09      0.00
    2  -13    7      0.95      0.00
    3  -13    7      0.94      0.00
    4  -13    7      0.14      0.00
    5  -13    7      0.00      0.00
    6  -13    7      0.46      0.00
    7  -13    7     -0.46      0.00
    8  -13    7      0.80      0.00
    9  -13    7      0.43      0.00
   10  -13    7      1.43      0.00
   -9  -12    7     -0.33      0.00
   -8  -12    7      0.53      0.00
   -7  -12    7     -1.51      0.00
   -6  -12    7      0.38      0.00
   -5  -12    7      2.08      0.00
   -4  -12    7      2.07      0.00
   -3  -12    7      1.28      0.00
   -2  -12    7     -0.03      0.00
   -1  -12    7      0.90      0.00
    0  -12    7      0.07      0.00
    1  -12    7      1.57      0.00
    2  -12    7     -1.85      0.00
    3  -12    7     -2.19      0.00
    4  -12    7     -1.08      0.00
    5  -12    7     -0.32      0.00
    6  -12    7      1.93      0.00
    7  -12    7      1.21      0.00
    8  -12    7      0.98      0.00
    9  -12    7      1.62      0.00
   10  -12    7     -0.29      0.00
   11  -12    7      0.43      0.00
   -9  -11    7      0.65      0.00
   -8  -11    7      0.39      0.00
   -7  -11    7      0.34      0.00
   -6  -11    7      1.40      0.00
   -5  -11    7     -2.10      0.00
   -4  -11    7     -1.98      0.00
   -3  -11    7     -0.66      0.00
   -2  -11    7      1.30      0.00
   -1  -11    7      1.41      0.00
    0  -11    7     -0.21      0.00
    1  -11    7     -0.46      0.00
    2  -11    7      0.85      0.00
    3  -11    7     -0.70      0.00
    4  -11    7     -0.35      0.00
    5  -11    7      0.00      0.00
    6  -11    7     -2.14      0.00
    7  -11    7     -1.84      0.00
    8  -11    7     -0.57      0.00
    9  -11    7     -1.12      0.00
   10  -11    7     -2.82      0.00
  -10  -10    7      1.29      0.00
   -9  -10    7      1.35      0.00
   -8  -10    7     -0.73      0.00
   -6  -10    7     -1.52      0.00
   -5  -10    7      0.93      0.00
   -4  -10    7      0.24      0.00
   -3  -10    7     -0.71      0.00
   -2  -10    7     -0.10      0.00
   -1  -10    7     -1.11      0.00
    0  -10    7      0.02      0.00
    1  -10    7      0.96      0.00
    2  -10    7      0.91      0.00
    3  -10    7      3.79      0.00
    4  -10    7      2.18      0.00
    5  -10    7      2.83      0.00
    6  -10    7      0.17      0.00
    7  -10    7      0.91      0.00
    8  -10    7     -1.62      0.00
    9  -10    7      0.00      0.00
   11  -10    7      0.27      0.00
   12  -10    7      0.52      0.00
  -10   -9    7     -0.47      0.00
   -9   -9    7     -1.53      0.00
   -8   -9    7     -0.21      0.00
   -7   -9    7      1.23      0.00
   -6   -9    7     -0.89      0.00
   -5   -9    7      0.58      0.00
   -4   -9    7      0.56      0.00
   -3   -9    7     -0.01      0.00
   -2   -9    7     -0.91      0.00
   -1   -9    7     -1.23      0.00
    0   -9    7     -3.35      0.00
    1   -9    7     -0.31      0.00
    2   -9    7     -2.21      0.00
    3   -9    7     -2.64      0.00
    4   -9    7     -2.08      0.00
    5   -9    7     -2.28      0.00
    6   -9    7     -0.62      0.00
    7   -9    7     -0.26      0.00
    8   -9    7      0.40      0.00
    9   -9    7     -0.30      0.00
   10   -9    7      1.79      0.00
   11   -9    7     -0.27      0.00
   12   -9    7      0.38      0.00
   13   -9    7      0.07      0.00
  -11   -8    7     -0.37      0.00
  -10   -8    7      0.92      0.00
   -9   -8    7     -0.70      0.00
   -8   -8    7      1.15      0.00
   -7   -8    7     -1.53      0.00
   -6   -8    7      2.20      0.00
   -5   -8    7      0.10      0.00
   -4   -8    7      0.04      0.00
   -3   -8    7     -1.26      0.00
   -2   -8    7      2.19      0.00
   -1   -8    7      3.15      0.00
    0   -8    7      0.58      0.00
    1   -8    7     -1.19      0.00
    2   -8    7      1.89      0.00
    3   -8    7      1.78      0.00
    4   -8    7      0.43      0.00
    5   -8    7      0.74      0.00
    6   -8    7      1.85      0.00
    7   -8    7     -0.77      0.00
    8   -8    7     -0.54      0.00
    9   -8    7     -0.39      0.00
   10   -8    7     -1.86      0.00
   11   -8    7      0.73      0.00
   12   -8    7     -1.61      0.00
   13   -8    7      0.35      0.00
  -11   -7    7      0.90      0.00
  -10   -7    7      0.53      0.00
   -9   -7    7      0.28      0.00
   -8   -7    7     -0.98      0.00
   -7   -7    7     -1.92      0.00
   -6   -7    7      0.22      0.00
   -5   -7    7      1.42      0.00
   -4   -7    7      0.03      0.00
   -3   -7    7     -0.44      0.00
   -2   -7    7     -1.59      0.00
   -1   -7    7      1.69      0.00
    0   -7    7      2.96      0.00
    1   -7    7      0.65      0.00
    2   -7    7     -2.84      0.00
    3   -7    7     -1.60      0.00
    4   -7    7     -2.74      0.00
    5   -7    7     -0.36      0.00
    6   -7    7      1.08      0.00
    7   -7    7      3.10      0.00
    8   -7    7      0.60      0.00
    9   -7    7      1.42      0.00
   10   -7    7      0.51      0.00
   11   -7    7     -0.62      0.00
   12   -7    7      1.24      0.00
   13   -7    7     -1.06      0.00
   14   -7    7     -0.06      0.00
  -11   -6    7      0.10      0.00
  -10   -6    7     -2.87      0.00
   -9   -6    7      0.60      0.00
   -8   -6    7     -0.52      0.00
   -7   -6    7      2.63      0.00
   -6   -6    7     -1.00      0.00
   -5   -6    7     -2.67      0.00
   -4   -6    7     -0.25      0.00
   -3   -6    7      0.24      0.00
   -2   -6    7     -2.66      0.00
   -1   -6    7     -4.98      0.00
    0   -6    7     -0.85      0.00
    1   -6    7     -0.25      0.00
    2   -6    7      7.75      0.00
    3   -6    7      5.70      0.00
    4   -6    7      4.16      0.00
    5   -6    7     -3.74      0.00
    6   -6    7     -2.12      0.00
    7   -6    7     -0.96      0.00
    8   -6    7      0.08      0.00
    9   -6    7     -0.04      0.00
   10   -6    7      0.07      0.00
   11   -6    7      1.22      0.00
   12   -6    7      1.24      0.00
   13   -6    7      0.60      0.00
   14   -6    7      0.94      0.00
  -12   -5    7     -0.87      0.00
  -11   -5    7     -0.25      0.00
  -10   -5    7      1.11      0.00
   -9   -5    7      0.25      0.00
   -8   -5    7     -0.41      0.00
   -7   -5    7     -0.34      0.00
   -6   -5    7     -1.00      0.00
   -5   -5    7      0.87      0.00
   -4   -5    7      0.11      0.00
   -3   -5    7      1.14      0.00
   -2   -5    7      2.09      0.00
   -1   -5    7      0.81      0.00
    0   -5    7      1.85      0.00
    1   -5    7     -7.18      0.00
    2   -5    7     -9.11      0.00
    3   -5    7     -4.17      0.00
    4   -5    7      1.72      0.00
    5   -5    7     -0.21      0.00
    6   -5    7      1.26      0.00
    7   -5    7     -1.02      0.00
    8   -5    7     -1.66      0.00
    9   -5    7     -1.73      0.00
   10   -5    7     -1.56      0.00
   11   -5    7     -1.67      0.00
   12   -5    7     -1.92      0.00
   13   -5    7     -0.11      0.00
   14   -5    7     -1.58      0.00
  -12   -4    7     -0.57      0.00
   -9   -4    7      0.55      0.00
   -8   -4    7      1.12      0.00
   -7   -4    7     -0.70      0.00
   -6   -4    7     -0.51      0.00
   -5   -4    7     -0.62      0.00
   -4   -4    7      0.90      0.00
   -3   -4    7      1.85      0.00
   -2   -4    7      4.99      0.00
   -1   -4    7      1.72      0.00
    0   -4    7      6.57      0.00
    1   -4    7     10.41      0.00
    2   -4    7      2.08      0.00
    3   -4    7     -6.65      0.00
    4   -4    7     -0.56      0.00
    5   -4    7      3.53      0.00
    6   -4    7     -1.56      0.00
    7   -4    7      1.32      0.00
    8   -4    7      2.55      0.00
    9   -4    7      1.25      0.00
   10   -4    7      1.34      0.00
   11   -4    7      1.09      0.00
   12   -4    7     -0.17      0.00
   13   -4    7      0.32      0.00
   14   -4    7      1.14      0.00
   15   -4    7      0.71      0.00
  -10   -3    7     -1.27      0.00
   -9   -3    7      0.08      0.00
   -8   -3    7      2.82      0.00
   -7   -3    7      1.24      0.00
   -6   -3    7      1.56      0.00
   -5   -3    7      0.63      0.00
   -4   -3    7     -2.97      0.00
   -3   -3    7     -1.11      0.00
   -2   -3    7     -3.10      0.00
   -1   -3    7     -6.14      0.00
    0   -3    7    -13.54      0.00
    1   -3    7     -2.74      0.00
    2   -3    7      3.02      0.00
    3   -3    7      0.13      0.00
    4   -3    7     -3.39      0.00
    5   -3    7      1.96      0.00
    6   -3    7     -1.63      0.00
    7   -3    7     -2.14      0.00
    8   -3    7      1.31      0.00
    9   -3    7      1.13      0.00
   10   -3    7      0.15      0.00
   11   -3    7      0.11      0.00
   12   -3    7      0.34      0.00
   13   -3    7      0.17      0.00
   14   -3    7     -0.29      0.00
   15   -3    7      0.08      0.00
  -11   -2    7     -0.22      0.00
  -10   -2    7     -0.19      0.00
   -9   -2    7     -3.56      0.00
   -8   -2    7     -1.50      0.00
   -7   -2    7      0.41      0.00
   -6   -2    7      1.09      0.00
   -5   -2    7     -0.01      0.00
   -4   -2    7     -0.21      0.00
   -3   -2    7     -0.44      0.00
   -2   -2    7     -2.00      0.00
   -1   -2    7     -0.33      0.00
    0   -2    7      6.11      0.00
    1   -2    7      0.56      0.00
    2   -2    7      9.21      0.00
    4   -2    7     -1.46      0.00
    5   -2    7      0.30      0.00
    6   -2    7     -0.66      0.00
    7   -2    7     -1.12      0.00
    8   -2    7     -4.18      0.00
    9   -2    7     -1.16      0.00
   10   -2    7     -1.56      0.00
   11   -2    7     -0.36      0.00
   12   -2    7     -0.55      0.00
   13   -2    7      0.15      0.00
   14   -2    7     -0.90      0.00
   15   -2    7     -0.77      0.00
  -12   -1    7      0.15      0.00
  -11   -1    7     -0.42      0.00
  -10   -1    7      3.50      0.00
   -9   -1    7      0.37      0.00
   -8   -1    7     -3.24      0.00
   -7   -1    7     -1.67      0.00
   -6   -1    7     -2.61      0.00
   -5   -1    7      0.71      0.00
   -4   -1    7      3.58      0.00
   -3   -1    7      3.08      0.00
   -2   -1    7      1.74      0.00
   -1   -1    7     10.34      0.00
    0   -1    7     -1.60      0.00
    1   -1    7     -4.25      0.00
    2   -1    7    -13.86      0.00
    3   -1    7     -0.51      0.00
    4   -1    7      4.88      0.00
    5   -1    7      0.50      0.00
    6   -1    7      5.22      0.00
    7   -1    7      2.72      0.00
    8   -1    7      3.33      0.00
    9   -1    7      2.90      0.00
   10   -1    7      0.65      0.00
   11   -1    7      0.66      0.00
   12   -1    7      0.55      0.00
   13   -1    7     -0.11      0.00
   14   -1    7      0.31      0.00
   15   -1    7     -0.22      0.00
  -13    0    7      0.13      0.00
  -12    0    7     -0.20      0.00
  -11    0    7      0.41      0.00
  -10    0    7     -0.05      0.00
   -9    0    7      2.17      0.00
   -8    0    7     -0.08      0.00
   -7    0    7      1.18      0.00
   -6    0    7     -0.16      0.00
   -5    0    7     -0.50      0.00
   -4    0    7     -1.29      0.00
   -3    0    7     -5.04      0.00
   -2    0    7     -6.32      0.00
   -1    0    7      1.19      0.00
    0    0    7      2.49      0.00
    1    0    7     -1.52      0.00
    2    0    7     -6.63      0.00
    3    0    7    -12.24      0.00
    4    0    7     -5.19      0.00
    5    0    7      0.20      0.00
    6    0    7     -3.28      0.00
    7    0    7     -1.49      0.00
    8    0    7     -2.90      0.00
    9    0    7     -3.82      0.00
   10    0    7      0.69      0.00
   11    0    7     -0.83      0.00
   12    0    7      0.33      0.00
   13    0    7      0.21      0.00
   14    0    7      1.34      0.00
   15    0    7      0.65      0.00
  -13    1    7      1.29      0.00
  -12    1    7      1.22      0.00
  -11    1    7      0.77      0.00
  -10    1    7     -3.32      0.00
   -9    1    7      1.39      0.00
   -8    1    7      2.62      0.00
   -7    1    7      0.88      0.00
   -6    1    7      1.33      0.00
   -5    1    7     -0.84      0.00
   -4    1    7     -0.16      0.00
   -3    1    7      5.31      0.00
   -2    1    7      5.93      0.00
   -1    1    7     -9.36      0.00
    0    1    7      0.01      0.00
    1    1    7      7.44      0.00
    2    1    7     18.04      0.00
    3    1    7     11.08      0.00
    4    1    7     -6.75      0.00
    5    1    7      1.33      0.00
    6    1    7      0.78      0.00
    7    1    7      4.44      0.00
    8    1    7      1.90      0.00
    9    1    7      1.37      0.00
   10    1    7     -1.17      0.00
   11    1    7     -1.02      0.00
   12    1    7      0.19      0.00
   13    1    7     -1.17      0.00
   14    1    7     -1.13      0.00
   15    1    7     -1.32      0.00
  -13    2    7     -1.49      0.00
  -12    2    7     -1.49      0.00
  -11    2    7     -0.88      0.00
  -10    2    7     -0.62      0.00
   -9    2    7      0.73      0.00
   -8    2    7     -1.26      0.00
   -7    2    7     -0.36      0.00
   -6    2    7     -0.45      0.00
   -5    2    7      2.08      0.00
   -4    2    7     -1.61      0.00
   -3    2    7     -3.36      0.00
   -2    2    7     -1.70      0.00
   -1    2    7      0.92      0.00
    0    2    7     -7.01      0.00
    1    2    7     -3.66      0.00
    2    2    7     -2.15      0.00
    3    2    7     -4.75      0.00
    4    2    7     13.97      0.00
    5    2    7    -18.42      0.00
    6    2    7     -8.01      0.00
    7    2    7     -2.63      0.00
    8    2    7     -2.18      0.00
    9    2    7      0.05      0.00
   10    2    7      1.52      0.00
   11    2    7      2.05      0.00
   12    2    7      0.65      0.00
   13    2    7      0.55      0.00
   14    2    7      0.35      0.00
   15    2    7      0.35      0.00
  -13    3    7      0.28      0.00
  -12    3    7      0.88      0.00
  -11    3    7      0.72      0.00
  -10    3    7      0.73      0.00
   -9    3    7     -1.15      0.00
   -8    3    7     -1.71      0.00
   -7    3    7     -0.79      0.00
   -6    3    7     -0.41      0.00
   -5    3    7     -0.44      0.00
   -4    3    7      4.05      0.00
   -3    3    7     -2.34      0.00
   -2    3    7     -0.41      0.00
   -1    3    7     -1.93      0.00
    0    3    7     11.14      0.00
    1    3    7     -2.07      0.00
    2    3    7     -6.86      0.00
    3    3    7      5.50      0.00
    4    3    7     16.99      0.00
    5    3    7     31.74      0.00
    6    3    7     14.84      0.00
    7    3    7      0.66      0.00
    8    3    7      1.69      0.00
    9    3    7     -2.65      0.00
   10    3    7     -0.99      0.00
   11    3    7     -1.32      0.00
   12    3    7     -0.42      0.00
   13    3    7      0.43      0.00
   14    3    7      0.21      0.00
   15    3    7      1.32      0.00
  -12    4    7     -0.21      0.00
  -11    4    7     -0.16      0.00
  -10    4    7      1.61      0.00
   -9    4    7     -1.56      0.00
   -8    4    7      3.30      0.00
   -7    4    7     -1.43      0.00
   -6    4    7     -0.45      0.00
   -5    4    7     -2.44      0.00
   -4    4    7     -4.94      0.00
   -3    4    7      4.06      0.00
   -2    4    7      4.35      0.00
   -1    4    7      9.98      0.00
    0    4    7     -1.84      0.00
    1    4    7      6.32      0.00
    2    4    7     -3.98      0.00
    3    4    7    -12.58      0.00
    4    4    7    -47.25      0.00
    5    4    7    -32.60      0.00
    6    4    7    -10.76      0.00
    7    4    7     -0.98      0.00
    8    4    7      0.97      0.00
    9    4    7      1.55      0.00
   10    4    7      0.53      0.00
   11    4    7     -0.39      0.00
   12    4    7     -0.21      0.00
   13    4    7     -0.61      0.00
   14    4    7     -1.41      0.00
   15    4    7      0.19      0.00
  -12    5    7      0.61      0.00
  -11    5    7     -0.28      0.00
  -10    5    7     -2.01      0.00
   -9    5    7     -0.36      0.00
   -8    5    7     -1.37      0.00
   -7    5    7      1.99      0.00
   -6    5    7      3.22      0.00
   -5    5    7      4.06      0.00
   -4    5    7      0.59      0.00
   -3    5    7      0.14      0.00
   -2    5    7     -6.48      0.00
   -1    5    7     -0.51      0.00
    0    5    7    -10.36      0.00
    1    5    7     -1.51      0.00
    2    5    7      5.92      0.00
    3    5    7     13.30      0.00
    4    5    7     43.81      0.00
    5    5    7     18.99      0.00
    6    5    7      3.40      0.00
    7    5    7     -0.33      0.00
    8    5    7     -0.88      0.00
    9    5    7      1.43      0.00
   10    5    7      1.49      0.00
   11    5    7      1.23      0.00
   12    5    7     -0.08      0.00
   13    5    7     -0.30      0.00
   14    5    7      1.39      0.00
   15    5    7     -0.42      0.00
  -12    6    7     -1.46      0.00
  -11    6    7      1.52      0.00
  -10    6    7      1.00      0.00
   -9    6    7      1.33      0.00
   -8    6    7     -0.08      0.00
   -7    6    7     -0.53      0.00
   -6    6    7     -2.22      0.00
   -5    6    7     -1.77      0.00
   -4    6    7      1.37      0.00
   -3    6    7     -3.56      0.00
   -2    6    7      0.49      0.00
   -1    6    7     -6.99      0.00
    0    6    7      1.65      0.00
    1    6    7     -1.83      0.00
    2    6    7     -3.53      0.00
    3    6    7     -8.55      0.00
    4    6    7    -26.15      0.00
    5    6    7     -3.71      0.00
    6    6    7      4.05      0.00
    7    6    7     -1.24      0.00
    8    6    7     -0.70      0.00
    9    6    7     -1.84      0.00
   10    6    7     -0.46      0.00
   11    6    7     -1.93      0.00
   12    6    7      0.39      0.00
   13    6    7     -0.23      0.00
   14    6    7      0.20      0.00
   15    6    7     -1.24      0.00
  -12    7    7      0.00      0.00
  -11    7    7     -1.24      0.00
  -10    7    7     -0.19      0.00
   -9    7    7     -0.47      0.00
   -8    7    7      1.69      0.00
   -7    7    7     -0.17      0.00
   -6    7    7     -0.22      0.00
   -5    7    7     -1.99      0.00
   -4    7    7      0.96      0.00
   -3    7    7      2.82      0.00
   -2    7    7      5.34      0.00
   -1    7    7      4.57      0.00
    0    7    7      6.95      0.00
    1    7    7     -0.18      0.00
    2    7    7      7.26      0.00
    3    7    7     11.08      0.00
    4    7    7     14.19      0.00
    5    7    7     -5.43      0.00
    6    7    7     -3.68      0.00
    7    7    7      0.03      0.00
    8    7    7      0.32      0.00
    9    7    7      0.90      0.00
   10    7    7     -0.62      0.00
   11    7    7      2.02      0.00
   12    7    7     -0.87      0.00
   13    7    7      0.61      0.00
   14    7    7     -0.21      0.00
   15    7    7      1.02      0.00
  -12    8    7      1.72      0.00
  -11    8    7     -0.53      0.00
  -10    8    7     -0.23      0.00
   -9    8    7     -1.18      0.00
   -8    8    7     -0.35      0.00
   -7    8    7     -0.77      0.00
   -6    8    7     -1.14      0.00
   -5    8    7      2.42      0.00
   -4    8    7      1.23      0.00
   -3    8    7     -0.86      0.00
   -2    8    7     -0.57      0.00
   -1    8    7     -4.10      0.00
    0    8    7     -1.61      0.00
    1    8    7     -4.16      0.00
    2    8    7     -5.94      0.00
    3    8    7    -20.63      0.00
    4    8    7     -3.53      0.00
    5    8    7      5.36      0.00
    6    8    7      0.53      0.00
    7    8    7      2.27      0.00
    8    8    7      0.51      0.00
    9    8    7      2.17      0.00
   10    8    7     -0.21      0.00
   11    8    7      0.14      0.00
   12    8    7     -0.66      0.00
   13    8    7      0.83      0.00
   14    8    7      0.35      0.00
   15    8    7     -0.02      0.00
  -12    9    7     -0.66      0.00
  -11    9    7     -0.40      0.00
  -10    9    7      2.25      0.00
   -9    9    7      1.40      0.00
   -8    9    7      0.04      0.00
   -7    9    7      0.06      0.00
   -6    9    7      0.84      0.00
   -5    9    7     -1.45      0.00
   -4    9    7     -1.50      0.00
   -3    9    7     -0.19      0.00
   -2    9    7     -3.32      0.00
   -1    9    7     -2.00      0.00
    0    9    7      1.59      0.00
    1    9    7      4.78      0.00
    2    9    7      4.89      0.00
    3    9    7     17.64      0.00
    4    9    7     -3.46      0.00
    5    9    7     -0.57      0.00
    6    9    7     -0.19      0.00
    7    9    7     -1.95      0.00
    8    9    7     -0.90      0.00
    9    9    7     -2.14      0.00
   10    9    7     -1.72      0.00
   11    9    7     -0.24      0.00
   12    9    7      1.44      0.00
   13    9    7     -0.98      0.00
   14    9    7     -0.24      0.00
   15    9    7     -1.18      0.00
  -11   10    7      0.33      0.00
  -10   10    7     -0.66      0.00
   -9   10    7     -0.97      0.00
   -8   10    7     -0.38      0.00
   -7   10    7      1.33      0.00
   -6   10    7      3.37      0.00
   -5   10    7     -0.03      0.00
   -4   10    7     -0.56      0.00
   -3   10    7      0.56      0.00
   -2   10    7      0.48      0.00
   -1   10    7      4.16      0.00
    0   10    7     -2.97      0.00
    1   10    7     -0.53      0.00
    2   10    7    -10.27      0.00
    3   10    7     -1.91      0.00
    4   10    7      3.82      0.00
    5   10    7      1.69      0.00
    6   10    7      1.32      0.00
    7   10    7      0.39      0.00
    8   10    7      0.95      0.00
    9   10    7      0.77      0.00
   10   10    7     -0.65      0.00
   11   10    7     -0.68      0.00
   12   10    7     -1.11      0.00
   13   10    7     -0.14      0.00
   14   10    7      0.22      0.00
  -11   11    7     -0.29      0.00
  -10   11    7     -1.16      0.00
   -9   11    7      0.54      0.00
   -8   11    7     -0.40      0.00
   -7   11    7     -2.14      0.00
   -6   11    7     -3.26      0.00
   -5   11    7     -0.74      0.00
   -4   11    7     -0.33      0.00
   -3   11    7     -1.43      0.00
   -2   11    7      1.40      0.00
   -1   11    7     -0.99      0.00
    0   11    7      1.05      0.00
    1   11    7      2.64      0.00
    2   11    7     10.02      0.00
    3   11    7     -4.68      0.00
    4   11    7     -3.42      0.00
    5   11    7     -0.98      0.00
    6   11    7     -2.83      0.00
    7   11    7      1.09      0.00
    8   11    7      0.63      0.00
    9   11    7      0.50      0.00
   10   11    7      1.20      0.00
   11   11    7      0.81      0.00
   12   11    7      1.32      0.00
   13   11    7      0.15      0.00
   14   11    7     -1.11      0.00
  -11   12    7      1.05      0.00
  -10   12    7     -0.62      0.00
   -9   12    7     -0.10      0.00
   -8   12    7      0.84      0.00
   -7   12    7      0.16      0.00
   -6   12    7      1.17      0.00
   -5   12    7      0.16      0.00
   -4   12    7     -0.84      0.00
   -3   12    7      2.79      0.00
   -2   12    7     -1.15      0.00
   -1   12    7      1.94      0.00
    0   12    7     -1.21      0.00
    1   12    7     -1.93      0.00
    2   12    7     -1.60      0.00
    3   12    7      1.11      0.00
    4   12    7      0.34      0.00
    5   12    7     -0.83      0.00
    6   12    7      0.01      0.00
    7   12    7     -3.10      0.00
    8   12    7     -0.56      0.00
    9   12    7     -0.62      0.00
   10   12    7      0.81      0.00
   11   12    7     -0.27      0.00
   12   12    7     -0.80      0.00
   13   12    7      0.13      0.00
   14   12    7      0.38      0.00
  -10   13    7      0.74      0.00
   -9   13    7      0.66      0.00
   -8   13    7     -0.85      0.00
   -7   13    7      1.64      0.00
   -6   13    7      0.58      0.00
   -5   13    7      0.78      0.00
   -4   13    7      2.84      0.00
   -3   13    7     -1.70      0.00
   -2   13    7      0.82      0.00
   -1   13    7     -1.19      0.00
    0   13    7     -1.69      0.00
    1   13    7      0.46      0.00
    2   13    7     -3.06      0.00
    3   13    7      2.42      0.00
    4   13    7     -1.91      0.00
    5   13    7      0.77      0.00
    6   13    7      1.46      0.00
    7   13    7      1.48      0.00
    8   13    7     -0.68      0.00
    9   13    7     -1.40      0.00
   10   13    7     -0.44      0.00
   11   13    7      0.14      0.00
   12   13    7      0.08      0.00
   13   13    7      1.52      0.00
  -10   14    7      0.37      0.00
   -9   14    7     -1.10      0.00
   -8   14    7     -0.92      0.00
   -7   14    7      0.63      0.00
   -6   14    7     -0.58      0.00
   -5   14    7      0.09      0.00
   -4   14    7      0.34      0.00
   -3   14    7     -2.68      0.00
   -2   14    7      1.85      0.00
   -1   14    7     -1.12      0.00
    0   14    7      1.45      0.00
    1   14    7     -2.11      0.00
    2   14    7      1.21      0.00
    3   14    7     -1.34      0.00
    4   14    7      1.71      0.00
    5   14    7      0.49      0.00
    6   14    7      1.51      0.00
    7   14    7      2.42      0.00
    8   14    7      1.01      0.00
    9   14    7      0.97      0.00
   10   14    7      1.13      0.00
   11   14    7     -1.02      0.00
   12   14    7      0.08      0.00
   13   14    7     -0.80      0.00
   -9   15    7      1.41      0.00
   -8   15    7     -0.28      0.00
   -7   15    7     -1.84      0.00
   -6   15    7      0.69      0.00
   -5   15    7     -0.08      0.00
   -4   15    7     -2.53      0.00
   -3   15    7      1.79      0.00
   -2   15    7     -2.22      0.00
   -1   15    7      2.17      0.00
    0   15    7     -0.58      0.00
    1   15    7      1.97      0.00
    2   15    7     -0.12      0.00
    3   15    7      1.16      0.00
    4   15    7      1.32      0.00
    5   15    7     -2.73      0.00
    6   15    7     -0.45      0.00
    7   15    7     -3.78      0.00
    8   15    7     -0.91      0.00
    9   15    7      0.00      0.00
   10   15    7     -1.04      0.00
   11   15    7      1.07      0.00
   12   15    7     -0.25      0.00
   -8   16    7      0.21      0.00
   -7   16    7      1.13      0.00
   -5   16    7      0.23      0.00
   -4   16    7      0.96      0.00
   -2   16    7     -0.58      0.00
   -1   16    7     -0.19      0.00
    0   16    7      1.67      0.00
    1   16    7     -0.32      0.00
    2   16    7     -1.46      0.00
    3   16    7      0.30      0.00
    4   16    7     -1.47      0.00
    5   16    7      0.68      0.00
    6   16    7      0.29      0.00
    7   16    7      3.33      0.00
    8   16    7     -0.18      0.00
    9   16    7      0.32      0.00
   10   16    7      0.67      0.00
   11   16    7      0.38      0.00
   12   16    7     -0.20      0.00
   -8   17    7      0.08      0.00
   -7   17    7      0.78      0.00
   -5   17    7      1.00      0.00
   -4   17    7     -1.30      0.00
   -3   17    7     -1.87      0.00
   -2   17    7     -0.27      0.00
   -1   17    7     -1.21      0.00
    1   17    7     -1.37      0.00
    2   17    7      0.35      0.00
    3   17    7     -0.44      0.00
    4   17    7      0.99      0.00
    5   17    7      0.36      0.00
    6   17    7     -1.84      0.00
    7   17    7     -0.29      0.00
    8   17    7      0.74      0.00
    9   17    7     -1.02      0.00
   10   17    7      1.04      0.00
   11   17    7     -1.71      0.00
   -5   18    7      0.61      0.00
   -4   18    7      0.08      0.00
   -3   18    7     -0.65      0.00
   -2   18    7     -0.05      0.00
   -1   18    7     -0.55      0.00
    1   18    7      0.57      0.00
    2   18    7      0.74      0.00
    3   18    7     -0.80      0.00
    4   18    7     -0.10      0.00
    5   18    7      2.17      0.00
    6   18    7     -1.46      0.00
    7   18    7     -0.48      0.00
    8   18    7     -0.86      0.00
    9   18    7      0.15      0.00
   10   18    7     -1.28      0.00
   -6   19    7      0.25      0.00
   -5   19    7     -1.27      0.00
   -4   19    7      1.29      0.00
   -3   19    7     -0.61      0.00
   -2   19    7      2.13      0.00
   -1   19    7     -1.46      0.00
    0   19    7      0.65      0.00
    1   19    7     -0.49      0.00
    2   19    7      0.00      0.00
    3   19    7      0.68      0.00
    5   19    7      1.30      0.00
    6   19    7      0.09      0.00
    7   19    7      0.42      0.00
    8   19    7      0.60      0.00
    9   19    7      1.25      0.00
   -5   20    7     -0.69      0.00
   -4   20    7      0.96      0.00
   -3   20    7      0.86      0.00
   -2   20    7      0.19      0.00
   -1   20    7      0.90      0.00
    0   20    7     -2.46      0.00
    1   20    7      1.00      0.00
    2   20    7      0.00      0.00
    3   20    7      0.25      0.00
    6   20    7      1.88      0.00
    7   20    7     -1.74      0.00
    8   20    7      0.43      0.00
   -3   21    7      0.40      0.00
   -2   21    7     -1.58      0.00
   -1   21    7      1.55      0.00
    0   21    7      0.84      0.00
    1   21    7     -0.97      0.00
    2   21    7      0.90      0.00
    3   21    7     -2.08      0.00
    7   21    7      0.39      0.00
   -1   22    7     -0.84      0.00
    0   22    7      0.03      0.00
    1   22    7      0.12      0.00
    2   22    7      0.26      0.00
    3   22    7      0.77      0.00
   -1  -17    8     -0.20      0.00
    0  -17    8      0.64      0.00
    1  -17    8      0.01      0.00
    2  -17    8     -0.25      0.00
    3  -17    8     -0.76      0.00
   -3  -16    8      0.36      0.00
   -2  -16    8     -0.03      0.00
   -1  -16    8     -0.03      0.00
    0  -16    8     -1.13      0.00
    1  -16    8      0.37      0.00
    2  -16    8     -0.65      0.00
    3  -16    8      0.18      0.00
    4  -16    8      1.15      0.00
    5  -16    8      1.13      0.00
    6  -16    8     -0.04      0.00
   -5  -15    8     -0.72      0.00
   -4  -15    8     -1.11      0.00
   -3  -15    8     -0.38      0.00
   -2  -15    8     -1.19      0.00
   -1  -15    8      0.93      0.00
    0  -15    8      0.30      0.00
    1  -15    8     -0.20      0.00
    2  -15    8     -0.43      0.00
    3  -15    8     -0.33      0.00
    4  -15    8     -1.91      0.00
    5  -15    8     -0.33      0.00
    6  -15    8     -0.44      0.00
    7  -15    8     -0.29      0.00
   -6  -14    8      0.88      0.00
   -5  -14    8     -1.02      0.00
   -4  -14    8     -0.11      0.00
   -3  -14    8      0.22      0.00
   -2  -14    8      1.35      0.00
   -1  -14    8     -1.73      0.00
    0  -14    8      0.43      0.00
    1  -14    8     -0.35      0.00
    2  -14    8      1.69      0.00
    3  -14    8      0.95      0.00
    4  -14    8      0.95      0.00
    5  -14    8     -0.39      0.00
    6  -14    8      0.07      0.00
    7  -14    8     -0.31      0.00
    8  -14    8     -1.57      0.00
    9  -14    8      0.16      0.00
   -7  -13    8     -1.62      0.00
   -6  -13    8     -0.57      0.00
   -5  -13    8      0.76      0.00
   -4  -13    8      1.95      0.00
   -3  -13    8      0.66      0.00
   -2  -13    8     -0.87      0.00
   -1  -13    8      0.99      0.00
    0  -13    8      0.46      0.00
    1  -13    8      0.67      0.00
    2  -13    8      0.35      0.00
    3  -13    8      0.25      0.00
    4  -13    8     -0.28      0.00
    5  -13    8      0.49      0.00
    6  -13    8      0.60      0.00
    7  -13    8      1.20      0.00
    8  -13    8      1.35      0.00
    9  -13    8      0.54      0.00
   10  -13    8      0.41      0.00
   -8  -12    8      0.47      0.00
   -7  -12    8      0.63      0.00
   -6  -12    8      0.47      0.00
   -5  -12    8     -0.45      0.00
   -4  -12    8     -0.63      0.00
   -3  -12    8     -0.94      0.00
   -2  -12    8      0.46      0.00
   -1  -12    8     -0.48      0.00
    0  -12    8     -1.38      0.00
    1  -12    8     -0.39      0.00
    2  -12    8     -1.73      0.00
    3  -12    8     -2.12      0.00
    4  -12    8     -0.45      0.00
    5  -12    8     -1.32      0.00
    6  -12    8      0.28      0.00
    7  -12    8     -1.30      0.00
    8  -12    8     -1.14      0.00
    9  -12    8      0.91      0.00
   10  -12    8     -1.50      0.00
   -9  -11    8      1.75      0.00
   -8  -11    8     -0.06      0.00
   -7  -11    8      0.67      0.00
   -6  -11    8      0.19      0.00
   -5  -11    8     -0.72      0.00
   -4  -11    8     -0.33      0.00
   -3  -11    8      0.10      0.00
   -2  -11    8      0.86      0.00
   -1  -11    8      0.92      0.00
    0  -11    8     -0.01      0.00
    1  -11    8      0.40      0.00
    2  -11    8      1.05      0.00
    3  -11    8     -0.07      0.00
    4  -11    8      1.09      0.00
    5  -11    8      2.18      0.00
    6  -11    8     -0.95      0.00
    7  -11    8      1.16      0.00
    8  -11    8      0.30      0.00
    9  -11    8     -1.61      0.00
   10  -11    8     -0.48      0.00
   11  -11    8     -0.55      0.00
   -9  -10    8     -1.10      0.00
   -8  -10    8     -0.98      0.00
   -7  -10    8      1.14      0.00
   -6  -10    8      0.45      0.00
   -5  -10    8      1.06      0.00
   -4  -10    8     -1.67      0.00
   -3  -10    8     -0.79      0.00
   -2  -10    8      0.57      0.00
   -1  -10    8      0.62      0.00
    0  -10    8     -0.13      0.00
    1  -10    8     -0.19      0.00
    2  -10    8      0.55      0.00
    3  -10    8      2.23      0.00
    4  -10    8     -0.75      0.00
    5  -10    8      1.13      0.00
    6  -10    8     -0.29      0.00
    7  -10    8     -1.14      0.00
    8  -10    8     -0.38      0.00
    9  -10    8     -0.09      0.00
   12  -10    8     -0.40      0.00
  -10   -9    8      0.53      0.00
   -9   -9    8     -1.05      0.00
   -8   -9    8      0.36      0.00
   -7   -9    8     -1.02      0.00
   -6   -9    8     -2.12      0.00
   -5   -9    8      2.13      0.00
   -4   -9    8      2.20      0.00
   -3   -9    8     -0.37      0.00
   -2   -9    8     -1.35      0.00
   -1   -9    8     -1.84      0.00
    0   -9    8     -0.67      0.00
    1   -9    8     -0.73      0.00
    2   -9    8     -1.52      0.00
    3   -9    8     -0.06      0.00
    4   -9    8     -0.12      0.00
    5   -9    8     -1.48      0.00
    6   -9    8      2.34      0.00
    7   -9    8      1.09      0.00
    8   -9    8     -0.88      0.00
    9   -9    8      1.27      0.00
   10   -9    8      0.67      0.00
   11   -9    8      1.44      0.00
   12   -9    8      0.69      0.00
   13   -9    8      0.61      0.00
  -10   -8    8      1.14      0.00
   -9   -8    8      0.46      0.00
   -8   -8    8     -0.19      0.00
   -7   -8    8     -1.48      0.00
   -6   -8    8      1.23      0.00
   -5   -8    8     -2.13      0.00
   -4   -8    8      0.25      0.00
   -3   -8    8      0.26      0.00
   -2   -8    8      0.58      0.00
   -1   -8    8      1.63      0.00
    0   -8    8      1.61      0.00
    1   -8    8      0.07      0.00
    2   -8    8      1.40      0.00
    3   -8    8     -2.30      0.00
    4   -8    8     -2.61      0.00
    5   -8    8     -2.65      0.00
    6   -8    8     -2.16      0.00
    7   -8    8     -0.05      0.00
    8   -8    8      0.38      0.00
    9   -8    8     -0.40      0.00
   10   -8    8     -0.90      0.00
   11   -8    8     -0.09      0.00
   12   -8    8     -1.68      0.00
   13   -8    8     -0.53      0.00
  -10   -7    8     -0.33      0.00
   -9   -7    8      0.21      0.00
   -8   -7    8     -0.24      0.00
   -7   -7    8      1.42      0.00
   -6   -7    8      1.06      0.00
   -5   -7    8      0.45      0.00
   -4   -7    8     -2.34      0.00
   -3   -7    8      1.00      0.00
   -2   -7    8     -0.89      0.00
   -1   -7    8      0.56      0.00
    0   -7    8      0.62      0.00
    1   -7    8     -0.33      0.00
    2   -7    8      2.26      0.00
    3   -7    8      4.96      0.00
    4   -7    8      4.45      0.00
    5   -7    8      1.19      0.00
    6   -7    8      1.68      0.00
    7   -7    8      0.33      0.00
    8   -7    8      0.56      0.00
    9   -7    8      0.42      0.00
   10   -7    8      0.57      0.00
   11   -7    8     -0.38      0.00
   12   -7    8      1.02      0.00
   13   -7    8     -0.08      0.00
   -9   -6    8      0.97      0.00
   -8   -6    8     -0.64      0.00
   -7   -6    8      0.12      0.00
   -6   -6    8     -1.97      0.00
   -5   -6    8     -0.30      0.00
   -4   -6    8      1.77      0.00
   -3   -6    8     -1.83      0.00
   -2   -6    8     -0.22      0.00
   -1   -6    8     -4.75      0.00
    0   -6    8      0.42      0.00
    1   -6    8     -2.87      0.00
    2   -6    8     -4.00      0.00
    3   -6    8     -5.27      0.00
    4   -6    8     -0.19      0.00
    5   -6    8     -2.09      0.00
    6   -6    8     -0.79      0.00
    7   -6    8      0.37      0.00
    8   -6    8     -1.38      0.00
    9   -6    8     -0.96      0.00
   10   -6    8     -1.06      0.00
   11   -6    8     -0.07      0.00
   12   -6    8      0.44      0.00
   13   -6    8      0.16      0.00
   14   -6    8     -0.15      0.00
  -11   -5    8     -1.74      0.00
   -9   -5    8     -0.62      0.00
   -8   -5    8      2.19      0.00
   -7   -5    8      0.46      0.00
   -6   -5    8      0.56      0.00
   -5   -5    8     -0.97      0.00
   -4   -5    8     -1.30      0.00
   -3   -5    8      2.80      0.00
   -2   -5    8      1.77      0.00
   -1   -5    8      3.35      0.00
    0   -5    8      0.90      0.00
    1   -5    8      4.29      0.00
    2   -5    8      2.53      0.00
    3   -5    8      2.31      0.00
    4   -5    8      1.22      0.00
    5   -5    8      2.18      0.00
    6   -5    8     -1.31      0.00
    7   -5    8     -1.07      0.00
    8   -5    8      0.77      0.00
    9   -5    8     -0.45      0.00
   10   -5    8     -0.44      0.00
   11   -5    8      0.09      0.00
   12   -5    8     -0.80      0.00
   13   -5    8     -0.35      0.00
   14   -5    8     -0.27      0.00
  -12   -4    8     -0.19      0.00
  -10   -4    8      0.62      0.00
   -9   -4    8      0.00      0.00
   -8   -4    8     -0.02      0.00
   -7   -4    8     -0.94      0.00
   -6   -4    8     -0.58      0.00
   -5   -4    8      2.22      0.00
   -4   -4    8      0.54      0.00
   -3   -4    8      1.56      0.00
   -2   -4    8      0.00      0.00
   -1   -4    8      1.32      0.00
    0   -4    8     -0.32      0.00
    1   -4    8     -0.73      0.00
    2   -4    8     -4.07      0.00
    3   -4    8     -7.59      0.00
    4   -4    8     -3.54      0.00
    5   -4    8      3.85      0.00
    6   -4    8      0.56      0.00
    7   -4    8      1.81      0.00
    8   -4    8      2.37      0.00
    9   -4    8      2.69      0.00
   10   -4    8      0.93      0.00
   11   -4    8     -0.22      0.00
   12   -4    8     -0.86      0.00
   13   -4    8      0.41      0.00
   14   -4    8      0.92      0.00
  -11   -3    8      0.57      0.00
  -10   -3    8     -0.23      0.00
   -9   -3    8      0.00      0.00
   -8   -3    8     -1.24      0.00
   -7   -3    8      1.18      0.00
   -6   -3    8      0.45      0.00
   -5   -3    8     -1.07      0.00
   -4   -3    8     -0.48      0.00
   -3   -3    8     -3.11      0.00
   -2   -3    8     -0.86      0.00
   -1   -3    8     -5.17      0.00
    0   -3    8     -4.85      0.00
    1   -3    8      3.08      0.00
    2   -3    8      7.64      0.00
    3   -3    8      9.18      0.00
    4   -3    8     -2.76      0.00
    5   -3    8      0.75      0.00
    6   -3    8     -3.81      0.00
    7   -3    8     -3.54      0.00
    8   -3    8     -1.08      0.00
    9   -3    8     -1.57      0.00
   10   -3    8      0.38      0.00
   11   -3    8      0.84      0.00
   12   -3    8      0.88      0.00
   13   -3    8     -0.20      0.00
   14   -3    8      0.80      0.00
   15   -3    8      0.39      0.00
  -12   -2    8     -0.98      0.00
  -11   -2    8     -1.43      0.00
  -10   -2    8      1.01      0.00
   -9   -2    8     -0.33      0.00
   -7   -2    8     -0.07      0.00
   -6   -2    8     -0.33      0.00
   -5   -2    8     -0.10      0.00
   -4   -2    8     -0.13      0.00
   -3   -2    8      2.52      0.00
   -2   -2    8     -2.85      0.00
   -1   -2    8      5.73      0.00
    0   -2    8     -1.03      0.00
    1   -2    8     -4.55      0.00
    2   -2    8     -3.82      0.00
    3   -2    8      3.10      0.00
    4   -2    8      3.71      0.00
    5   -2    8     -1.98      0.00
    6   -2    8      4.51      0.00
    7   -2    8      0.31      0.00
    8   -2    8     -1.17      0.00
    9   -2    8      1.03      0.00
   10   -2    8     -0.38      0.00
   11   -2    8     -1.07      0.00
   12   -2    8      0.54      0.00
   13   -2    8     -0.36      0.00
   14   -2    8     -2.35      0.00
   15   -2    8     -0.69      0.00
  -12   -1    8     -0.80      0.00
  -11   -1    8     -0.72      0.00
  -10   -1    8      0.51      0.00
   -9   -1    8     -0.72      0.00
   -8   -1    8     -3.79      0.00
   -7   -1    8      0.16      0.00
   -6   -1    8     -0.32      0.00
   -5   -1    8      0.47      0.00
   -4   -1    8      2.05      0.00
   -3   -1    8     -1.25      0.00
   -2   -1    8      0.05      0.00
   -1   -1    8      1.75      0.00
    0   -1    8      7.20      0.00
    1   -1    8      1.15      0.00
    2   -1    8     -5.51      0.00
    3   -1    8     -8.37      0.00
    4   -1    8     -1.08      0.00
    5   -1    8     -1.52      0.00
    6   -1    8      1.21      0.00
    7   -1    8      2.28      0.00
    8   -1    8     -0.55      0.00
    9   -1    8     -1.75      0.00
   10   -1    8     -0.91      0.00
   11   -1    8      0.09      0.00
   12   -1    8      0.36      0.00
   13   -1    8      0.59      0.00
   14   -1    8      1.29      0.00
   15   -1    8      0.75      0.00
  -12    0    8      2.66      0.00
  -11    0    8      1.59      0.00
  -10    0    8     -0.40      0.00
   -9    0    8      1.77      0.00
   -8    0    8      0.72      0.00
   -7    0    8      0.38      0.00
   -6    0    8      0.05      0.00
   -5    0    8     -0.60      0.00
   -4    0    8     -1.53      0.00
   -3    0    8     -2.55      0.00
   -2    0    8      2.62      0.00
   -1    0    8     -2.05      0.00
    0    0    8     -3.11      0.00
    1    0    8     -2.08      0.00
    2    0    8      1.97      0.00
    4    0    8      2.43      0.00
    5    0    8     -2.80      0.00
    6    0    8     -2.11      0.00
    7    0    8      0.65      0.00
    8    0    8      1.73      0.00
    9    0    8      0.53      0.00
   10    0    8      2.68      0.00
   11    0    8     -1.32      0.00
   12    0    8      0.47      0.00
   13    0    8     -0.61      0.00
   14    0    8      0.84      0.00
   15    0    8     -0.42      0.00
  -12    1    8     -2.29      0.00
  -11    1    8      0.44      0.00
  -10    1    8     -1.61      0.00
   -9    1    8      0.53      0.00
   -8    1    8      3.55      0.00
   -7    1    8     -0.95      0.00
   -6    1    8      1.36      0.00
   -5    1    8      1.73      0.00
   -4    1    8      0.32      0.00
   -3    1    8      2.81      0.00
   -2    1    8     -1.29      0.00
   -1    1    8     -3.91      0.00
    0    1    8      1.10      0.00
    1    1    8      3.13      0.00
    2    1    8      9.03      0.00
    3    1    8      1.97      0.00
    4    1    8     -0.35      0.00
    5    1    8     -0.45      0.00
    6    1    8     -0.43      0.00
    7    1    8     -2.56      0.00
    8    1    8     -1.84      0.00
    9    1    8     -2.10      0.00
   10    1    8     -3.19      0.00
   11    1    8      1.25      0.00
   12    1    8     -0.52      0.00
   13    1    8     -0.49      0.00
   14    1    8     -1.15      0.00
   15    1    8     -0.14      0.00
  -12    2    8     -0.14      0.00
  -11    2    8     -0.71      0.00
  -10    2    8     -0.12      0.00
   -9    2    8     -0.61      0.00
   -8    2    8      0.19      0.00
   -7    2    8     -0.78      0.00
   -6    2    8     -0.46      0.00
   -5    2    8     -1.36      0.00
   -4    2    8      0.62      0.00
   -3    2    8      0.61      0.00
   -2    2    8      3.82      0.00
   -1    2    8     -1.31      0.00
    0    2    8     -5.61      0.00
    1    2    8     -0.25      0.00
    2    2    8     -4.29      0.00
    3    2    8     -1.05      0.00
    4    2    8      8.36      0.00
    5    2    8      3.09      0.00
    6    2    8      7.71      0.00
    7    2    8      6.19      0.00
    8    2    8      3.72      0.00
    9    2    8      2.80      0.00
   10    2    8      1.84      0.00
   11    2    8      0.38      0.00
   12    2    8      0.16      0.00
   13    2    8      0.53      0.00
   14    2    8      0.32      0.00
   15    2    8      0.14      0.00
  -12    3    8      0.26      0.00
  -11    3    8     -0.85      0.00
  -10    3    8      1.24      0.00
   -9    3    8     -1.43      0.00
   -8    3    8     -1.45      0.00
   -7    3    8     -0.48      0.00
   -6    3    8     -1.10      0.00
   -5    3    8     -1.64      0.00
   -4    3    8     -2.89      0.00
   -3    3    8     -6.75      0.00
   -2    3    8     -4.20      0.00
   -1    3    8      6.72      0.00
    0    3    8      7.51      0.00
    1    3    8      0.60      0.00
    2    3    8     -4.14      0.00
    3    3    8     -4.20      0.00
    4    3    8     -9.49      0.00
    5    3    8     -9.27      0.00
    6    3    8    -16.51      0.00
    7    3    8     -8.90      0.00
    8    3    8     -4.74      0.00
    9    3    8     -2.27      0.00
   10    3    8      0.69      0.00
   11    3    8     -0.02      0.00
   12    3    8     -0.27      0.00
   13    3    8      0.43      0.00
   14    3    8      0.12      0.00
   15    3    8      0.60      0.00
  -12    4    8      1.28      0.00
  -11    4    8      1.98      0.00
  -10    4    8      0.00      0.00
   -9    4    8     -1.63      0.00
   -8    4    8     -0.29      0.00
   -7    4    8     -0.24      0.00
   -6    4    8      2.09      0.00
   -5    4    8      2.65      0.00
   -4    4    8      2.64      0.00
   -3    4    8      9.69      0.00
   -2    4    8      0.48      0.00
   -1    4    8      2.02      0.00
    0    4    8     -3.53      0.00
    1    4    8      5.54      0.00
    2    4    8     -2.40      0.00
    3    4    8     13.66      0.00
    4    4    8     -4.88      0.00
    5    4    8     22.03      0.00
    6    4    8     16.61      0.00
    7    4    8      5.71      0.00
    8    4    8      2.14      0.00
    9    4    8      1.31      0.00
   10    4    8     -2.33      0.00
   11    4    8      0.08      0.00
   12    4    8     -0.89      0.00
   13    4    8     -0.54      0.00
   14    4    8     -1.24      0.00
   15    4    8      0.36      0.00
  -12    5    8     -2.10      0.00
  -11    5    8     -1.36      0.00
  -10    5    8     -1.25      0.00
   -9    5    8      3.21      0.00
   -8    5    8      1.63      0.00
   -7    5    8      1.54      0.00
   -6    5    8      0.28      0.00
   -5    5    8     -1.50      0.00
   -4    5    8     -1.25      0.00
   -3    5    8     -5.26      0.00
   -2    5    8      0.18      0.00
   -1    5    8     -5.79      0.00
    0    5    8     -6.34      0.00
    1    5    8     -8.67      0.00
    2    5    8      2.85      0.00
    3    5    8     -8.31      0.00
    4    5    8     -1.13      0.00
    5    5    8    -24.15      0.00
    6    5    8     -8.71      0.00
    7    5    8     -1.64      0.00
    8    5    8      0.77      0.00
    9    5    8      2.36      0.00
   10    5    8      2.54      0.00
   11    5    8      0.07      0.00
   12    5    8      0.70      0.00
   13    5    8      0.54      0.00
   14    5    8      1.18      0.00
   15    5    8     -1.32      0.00
  -12    6    8      0.97      0.00
  -11    6    8      0.80      0.00
  -10    6    8      0.89      0.00
   -9    6    8     -1.02      0.00
   -8    6    8     -0.46      0.00
   -7    6    8     -0.38      0.00
   -6    6    8     -0.61      0.00
   -5    6    8      1.19      0.00
   -4    6    8      1.22      0.00
   -3    6    8     -0.57      0.00
   -2    6    8      1.20      0.00
   -1    6    8      0.40      0.00
    0    6    8      8.47      0.00
    1    6    8     -1.41      0.00
    2    6    8      2.35      0.00
    3    6    8     -0.43      0.00
    4    6    8     19.22      0.00
    5    6    8     17.61      0.00
    6    6    8      5.23      0.00
    7    6    8     -4.00      0.00
    8    6    8     -2.42      0.00
    9    6    8     -2.64      0.00
   10    6    8     -0.83      0.00
   11    6    8     -0.49      0.00
   12    6    8     -1.30      0.00
   13    6    8      0.06      0.00
   14    6    8      0.34      0.00
   15    6    8      0.01      0.00
  -12    7    8      0.50      0.00
  -11    7    8     -0.02      0.00
  -10    7    8      1.09      0.00
   -9    7    8     -1.27      0.00
   -8    7    8     -0.31      0.00
   -7    7    8     -0.84      0.00
   -6    7    8     -3.03      0.00
   -5    7    8     -1.34      0.00
   -4    7    8      1.28      0.00
   -3    7    8      2.76      0.00
   -2    7    8      2.78      0.00
   -1    7    8      1.24      0.00
    0    7    8      0.06      0.00
    1    7    8      5.78      0.00
    2    7    8     -2.23      0.00
    3    7    8     -3.59      0.00
    4    7    8    -25.01      0.00
    5    7    8    -12.68      0.00
    6    7    8     -2.36      0.00
    7    7    8      5.11      0.00
    8    7    8      1.71      0.00
    9    7    8      0.64      0.00
   10    7    8     -1.05      0.00
   11    7    8      1.29      0.00
   12    7    8     -0.30      0.00
   13    7    8      0.04      0.00
   14    7    8     -0.14      0.00
   15    7    8      0.99      0.00
  -12    8    8     -0.09      0.00
  -11    8    8     -3.22      0.00
  -10    8    8     -0.88      0.00
   -9    8    8      1.63      0.00
   -8    8    8      0.38      0.00
   -7    8    8      0.85      0.00
   -6    8    8      1.64      0.00
   -5    8    8     -0.69      0.00
   -4    8    8     -2.08      0.00
   -3    8    8     -3.18      0.00
   -2    8    8     -3.71      0.00
   -1    8    8     -4.30      0.00
    0    8    8     -1.23      0.00
    1    8    8     -1.55      0.00
    2    8    8      5.11      0.00
    3    8    8      9.45      0.00
    4    8    8     22.76      0.00
    5    8    8      6.95      0.00
    6    8    8     -3.16      0.00
    7    8    8     -1.00      0.00
    8    8    8      1.00      0.00
    9    8    8      1.18      0.00
   10    8    8     -0.11      0.00
   11    8    8      0.04      0.00
   12    8    8      2.09      0.00
   13    8    8     -0.35      0.00
   14    8    8      0.24      0.00
   15    8    8     -0.43      0.00
  -11    9    8      2.20      0.00
  -10    9    8      0.80      0.00
   -9    9    8     -0.32      0.00
   -8    9    8     -0.46      0.00
   -7    9    8     -0.55      0.00
   -6    9    8      1.83      0.00
   -5    9    8      2.49      0.00
   -4    9    8      0.53      0.00
   -3    9    8      2.87      0.00
   -2    9    8     -2.17      0.00
   -1    9    8      3.90      0.00
    0    9    8     -1.57      0.00
    1    9    8     -2.61      0.00
    2    9    8     -8.39      0.00
    3    9    8    -10.27      0.00
    4    9    8    -13.91      0.00
    5    9    8      3.52      0.00
    6    9    8      3.28      0.00
    7    9    8     -1.31      0.00
    8    9    8     -0.87      0.00
    9    9    8     -1.06      0.00
   10    9    8     -0.83      0.00
   11    9    8     -1.87      0.00
   12    9    8     -0.96      0.00
   13    9    8     -0.37      0.00
   14    9    8     -0.93      0.00
   15    9    8     -0.70      0.00
  -11   10    8      1.43      0.00
  -10   10    8     -0.86      0.00
   -9   10    8      0.75      0.00
   -8   10    8     -1.22      0.00
   -7   10    8      0.54      0.00
   -6   10    8     -0.20      0.00
   -5   10    8     -1.67      0.00
   -4   10    8      0.40      0.00
   -3   10    8     -1.03      0.00
   -2   10    8      2.97      0.00
   -1   10    8      0.31      0.00
    0   10    8      1.18      0.00
    1   10    8      3.65      0.00
    2   10    8      4.96      0.00
    3   10    8      9.60      0.00
    4   10    8      0.41      0.00
    5   10    8     -4.21      0.00
    6   10    8     -1.13      0.00
    7   10    8      1.42      0.00
    8   10    8     -0.10      0.00
    9   10    8     -0.30      0.00
   10   10    8     -0.10      0.00
   11   10    8      0.98      0.00
   12   10    8      0.62      0.00
   13   10    8      0.47      0.00
   14   10    8     -0.03      0.00
   15   10    8      0.30      0.00
  -11   11    8     -1.02      0.00
  -10   11    8     -0.93      0.00
   -9   11    8     -0.65      0.00
   -8   11    8      0.23      0.00
   -7   11    8      0.17      0.00
   -6   11    8     -0.74      0.00
   -5   11    8     -0.56      0.00
   -4   11    8     -2.30      0.00
   -3   11    8     -1.56      0.00
   -2   11    8     -0.15      0.00
   -1   11    8     -0.86      0.00
    0   11    8     -0.60      0.00
    1   11    8     -1.00      0.00
    2   11    8      0.52      0.00
    3   11    8     -7.08      0.00
    4   11    8      5.01      0.00
    5   11    8     -1.27      0.00
    6   11    8     -0.24      0.00
    7   11    8     -1.53      0.00
    8   11    8      0.66      0.00
    9   11    8      0.33      0.00
   10   11    8      2.02      0.00
   11   11    8      0.09      0.00
   12   11    8     -0.38      0.00
   13   11    8     -0.06      0.00
   14   11    8      0.51      0.00
  -10   12    8      0.06      0.00
   -9   12    8      0.96      0.00
   -8   12    8      0.75      0.00
   -7   12    8     -0.49      0.00
   -6   12    8     -0.55      0.00
   -5   12    8     -0.39      0.00
   -4   12    8      1.88      0.00
   -3   12    8      3.46      0.00
   -2   12    8     -0.01      0.00
   -1   12    8      1.92      0.00
    0   12    8     -1.52      0.00
    1   12    8      2.03      0.00
    2   12    8      0.77      0.00
    3   12    8      3.36      0.00
    4   12    8     -4.37      0.00
    5   12    8      0.93      0.00
    6   12    8     -1.48      0.00
    7   12    8      0.03      0.00
    8   12    8     -0.37      0.00
    9   12    8     -0.99      0.00
   10   12    8     -0.25      0.00
   11   12    8     -0.21      0.00
   12   12    8      0.68      0.00
   13   12    8      0.55      0.00
   14   12    8     -0.94      0.00
  -10   13    8      0.36      0.00
   -9   13    8     -1.51      0.00
   -8   13    8     -1.82      0.00
   -7   13    8      1.83      0.00
   -6   13    8      1.15      0.00
   -5   13    8      1.64      0.00
   -4   13    8      1.52      0.00
   -3   13    8     -2.76      0.00
   -2   13    8      1.75      0.00
   -1   13    8     -1.78      0.00
    0   13    8      1.09      0.00
    1   13    8     -4.01      0.00
    2   13    8     -4.81      0.00
    3   13    8      0.08      0.00
    4   13    8     -0.92      0.00
    5   13    8      2.43      0.00
    6   13    8      3.00      0.00
    7   13    8      1.09      0.00
    8   13    8     -0.10      0.00
    9   13    8      0.26      0.00
   10   13    8      0.35      0.00
   11   13    8     -0.01      0.00
   12   13    8     -1.48      0.00
   13   13    8     -0.05      0.00
   -9   14    8      0.58      0.00
   -8   14    8      1.65      0.00
   -7   14    8     -1.01      0.00
   -6   14    8     -1.87      0.00
   -5   14    8      1.70      0.00
   -4   14    8     -1.86      0.00
   -3   14    8     -0.69      0.00
   -2   14    8     -2.86      0.00
   -1   14    8      0.06      0.00
    0   14    8     -0.54      0.00
    1   14    8      0.91      0.00
    2   14    8      3.95      0.00
    3   14    8     -0.24      0.00
    4   14    8      3.00      0.00
    5   14    8     -3.82      0.00
    6   14    8      1.61      0.00
    7   14    8      0.28      0.00
    8   14    8     -0.24      0.00
    9   14    8      0.56      0.00
   10   14    8     -0.69      0.00
   11   14    8     -0.17      0.00
   12   14    8      1.00      0.00
   13   14    8      0.14      0.00
   -9   15    8      1.04      0.00
   -8   15    8     -1.29      0.00
   -7   15    8      0.05      0.00
   -6   15    8     -0.06      0.00
   -5   15    8     -1.24      0.00
   -3   15    8      2.96      0.00
   -2   15    8      0.69      0.00
   -1   15    8      0.39      0.00
    0   15    8      1.80      0.00
    1   15    8      1.34      0.00
    2   15    8     -1.60      0.00
    3   15    8      0.64      0.00
    4   15    8      0.30      0.00
    5   15    8      0.46      0.00
    6   15    8     -3.17      0.00
    7   15    8     -0.28      0.00
    8   15    8     -0.56      0.00
    9   15    8      0.23      0.00
   10   15    8      0.80      0.00
   11   15    8      0.52      0.00
   12   15    8     -0.37      0.00
   -8   16    8      0.31      0.00
   -7   16    8      0.33      0.00
   -6   16    8      0.02      0.00
   -5   16    8     -1.68      0.00
   -4   16    8      0.94      0.00
   -3   16    8     -0.87      0.00
   -2   16    8     -0.21      0.00
   -1   16    8     -0.81      0.00
    0   16    8      0.14      0.00
    1   16    8     -1.92      0.00
    2   16    8     -0.33      0.00
    3   16    8     -0.56      0.00
    4   16    8      0.21      0.00
    5   16    8      1.03      0.00
    6   16    8     -0.38      0.00
    7   16    8      0.26      0.00
    8   16    8     -0.37      0.00
    9   16    8     -1.05      0.00
   10   16    8     -0.27      0.00
   11   16    8     -0.58      0.00
   12   16    8     -0.18      0.00
   -7   17    8     -0.72      0.00
   -6   17    8      0.43      0.00
   -3   17    8     -0.29      0.00
   -2   17    8     -0.11      0.00
   -1   17    8     -0.05      0.00
    1   17    8     -0.20      0.00
    2   17    8      0.62      0.00
    3   17    8     -0.77      0.00
    4   17    8     -1.13      0.00
    5   17    8      2.40      0.00
    6   17    8      0.17      0.00
    7   17    8      2.06      0.00
    8   17    8      1.28      0.00
    9   17    8      0.07      0.00
   10   17    8      0.53      0.00
   11   17    8     -0.38      0.00
   -7   18    8     -0.39      0.00
   -6   18    8      1.11      0.00
   -4   18    8     -0.60      0.00
   -3   18    8     -2.42      0.00
   -2   18    8      1.51      0.00
   -1   18    8     -1.64      0.00
    1   18    8      0.39      0.00
    2   18    8     -0.20      0.00
    3   18    8      0.36      0.00
    4   18    8     -0.93      0.00
    6   18    8     -2.58      0.00
    7   18    8     -2.07      0.00
    8   18    8     -0.14      0.00
    9   18    8      1.15      0.00
   10   18    8     -0.70      0.00
   -6   19    8      0.27      0.00
   -4   19    8      1.35      0.00
   -3   19    8      2.06      0.00
   -2   19    8      1.13      0.00
   -1   19    8      0.95      0.00
    0   19    8     -2.80      0.00
    2   19    8      0.74      0.00
    3   19    8     -0.62      0.00
    6   19    8      3.46      0.00
    7   19    8     -1.91      0.00
    8   19    8      0.63      0.00
    9   19    8     -1.36      0.00
   -4   20    8     -1.35      0.00
   -3   20    8     -0.67      0.00
   -2   20    8     -2.29      0.00
   -1   20    8      0.58      0.00
    0   20    8     -1.61      0.00
    1   20    8     -0.31      0.00
    2   20    8      0.44      0.00
    3   20    8     -0.41      0.00
    7   20    8      0.63      0.00
    8   20    8     -0.08      0.00
   -3   21    8      1.43      0.00
   -2   21    8     -0.35      0.00
   -1   21    8      1.48      0.00
    0   21    8      0.40      0.00
    1   21    8     -1.26      0.00
    2   21    8      1.29      0.00
    3   21    8     -0.72      0.00
   -1   22    8     -0.35      0.00
    0   22    8      0.90      0.00
    1   22    8      0.85      0.00
    2   22    8     -1.33      0.00
    3   22    8      0.65      0.00
   -2  -16    9     -0.58      0.00
   -1  -16    9     -0.56      0.00
    0  -16    9      0.42      0.00
    1  -16    9      0.91      0.00
    2  -16    9     -0.28      0.00
    3  -16    9      0.19      0.00
    4  -16    9     -0.18      0.00
   -4  -15    9     -0.96      0.00
   -3  -15    9      0.69      0.00
   -2  -15    9      0.30      0.00
   -1  -15    9      1.70      0.00
    0  -15    9     -1.28      0.00
    1  -15    9     -0.96      0.00
    2  -15    9      0.54      0.00
    3  -15    9      0.65      0.00
    4  -15    9      0.09      0.00
    5  -15    9      0.47      0.00
    6  -15    9     -0.60      0.00
    7  -15    9      0.36      0.00
   -5  -14    9     -0.30      0.00
   -4  -14    9      0.32      0.00
   -3  -14    9     -0.31      0.00
   -2  -14    9     -0.49      0.00
   -1  -14    9     -2.36      0.00
    0  -14    9      1.29      0.00
    1  -14    9     -0.40      0.00
    2  -14    9      0.05      0.00
    3  -14    9     -0.46      0.00
    4  -14    9     -0.36      0.00
    5  -14    9      0.07      0.00
    6  -14    9      0.50      0.00
    7  -14    9      0.33      0.00
    8  -14    9      0.34      0.00
   -6  -13    9      0.96      0.00
   -5  -13    9      0.40      0.00
   -4  -13    9      0.47      0.00
   -3  -13    9     -0.06      0.00
   -2  -13    9      0.91      0.00
   -1  -13    9      0.97      0.00
    0  -13    9     -1.60      0.00
    1  -13    9      1.20      0.00
    2  -13    9      0.17      0.00
    3  -13    9     -0.69      0.00
    4  -13    9      0.60      0.00
    5  -13    9     -1.10      0.00
    6  -13    9      0.67      0.00
    7  -13    9     -0.40      0.00
    8  -13    9      0.18      0.00
    9  -13    9      0.58      0.00
   -7  -12    9      0.13      0.00
   -6  -12    9     -0.85      0.00
   -5  -12    9      0.23      0.00
   -4  -12    9      1.16      0.00
   -3  -12    9     -0.44      0.00
   -2  -12    9      0.88      0.00
   -1  -12    9      1.07      0.00
    0  -12    9      0.91      0.00
    1  -12    9     -0.19      0.00
    2  -12    9     -0.02      0.00
    3  -12    9     -0.59      0.00
    4  -12    9     -0.88      0.00
    5  -12    9      0.05      0.00
    6  -12    9     -0.18      0.00
    7  -12    9      0.08      0.00
    8  -12    9     -0.01      0.00
    9  -12    9     -0.24      0.00
   10  -12    9     -1.61      0.00
   -8  -11    9     -1.09      0.00
   -7  -11    9      1.44      0.00
   -6  -11    9      0.73      0.00
   -5  -11    9     -0.55      0.00
   -4  -11    9     -2.31      0.00
   -3  -11    9     -0.61      0.00
   -2  -11    9     -1.04      0.00
   -1  -11    9     -0.28      0.00
    0  -11    9     -0.50      0.00
    1  -11    9      0.52      0.00
    2  -11    9     -0.17      0.00
    3  -11    9      1.35      0.00
    4  -11    9      1.14      0.00
    5  -11    9      1.94      0.00
    6  -11    9     -0.76      0.00
    7  -11    9     -0.62      0.00
    8  -11    9     -1.02      0.00
    9  -11    9     -1.88      0.00
   10  -11    9     -0.22      0.00
   11  -11    9     -0.99      0.00
   -8  -10    9      0.40      0.00
   -7  -10    9      0.28      0.00
   -6  -10    9     -0.87      0.00
   -5  -10    9      0.50      0.00
   -4  -10    9      0.65      0.00
   -3  -10    9      1.06      0.00
   -2  -10    9      0.75      0.00
   -1  -10    9     -0.63      0.00
    0  -10    9     -1.96      0.00
    1  -10    9     -1.21      0.00
    2  -10    9      0.58      0.00
    3  -10    9     -0.03      0.00
    4  -10    9     -0.30      0.00
    5  -10    9      0.77      0.00
    6  -10    9      1.02      0.00
    7  -10    9      0.81      0.00
    8  -10    9      1.49      0.00
    9  -10    9      1.38      0.00
   10  -10    9      1.98      0.00
   12  -10    9      1.11      0.00
   -9   -9    9     -1.26      0.00
   -8   -9    9     -0.30      0.00
   -7   -9    9     -0.61      0.00
   -6   -9    9     -0.77      0.00
   -5   -9    9      1.72      0.00
   -4   -9    9     -0.34      0.00
   -3   -9    9     -1.50      0.00
   -2   -9    9     -0.55      0.00
   -1   -9    9      0.27      0.00
    0   -9    9      2.68      0.00
    1   -9    9     -1.11      0.00
    2   -9    9     -1.02      0.00
    3   -9    9      0.00      0.00
    4   -9    9     -2.92      0.00
    5   -9    9     -2.94      0.00
    6   -9    9      0.27      0.00
    7   -9    9     -0.71      0.00
    8   -9    9     -1.94      0.00
    9   -9    9      0.55      0.00
   11   -9    9     -0.52      0.00
   12   -9    9     -0.80      0.00
   -9   -8    9      1.31      0.00
   -8   -8    9     -0.18      0.00
   -7   -8    9     -0.33      0.00
   -6   -8    9      0.53      0.00
   -5   -8    9     -1.42      0.00
   -4   -8    9      1.36      0.00
   -3   -8    9      1.86      0.00
   -2   -8    9     -0.85      0.00
   -1   -8    9      0.99      0.00
    0   -8    9      1.79      0.00
    1   -8    9      2.26      0.00
    2   -8    9      0.82      0.00
    3   -8    9      0.61      0.00
    4   -8    9      3.27      0.00
    5   -8    9     -1.62      0.00
    6   -8    9     -0.14      0.00
    7   -8    9      1.10      0.00
    8   -8    9      0.78      0.00
    9   -8    9     -1.24      0.00
   10   -8    9     -0.16      0.00
   11   -8    9     -0.75      0.00
   12   -8    9     -1.07      0.00
   13   -8    9     -0.56      0.00
   -9   -7    9     -0.64      0.00
   -8   -7    9     -1.01      0.00
   -7   -7    9     -0.09      0.00
   -6   -7    9      0.64      0.00
   -5   -7    9     -0.82      0.00
   -4   -7    9     -1.37      0.00
   -3   -7    9     -0.38      0.00
   -2   -7    9      0.02      0.00
   -1   -7    9     -2.67      0.00
    0   -7    9     -2.32      0.00
    1   -7    9     -0.83      0.00
    2   -7    9      0.83      0.00
    3   -7    9     -1.43      0.00
    4   -7    9      0.24      0.00
    5   -7    9      0.27      0.00
    6   -7    9     -0.59      0.00
    7   -7    9     -0.55      0.00
    8   -7    9      0.86      0.00
    9   -7    9      0.82      0.00
   10   -7    9      0.31      0.00
   11   -7    9      0.57      0.00
   12   -7    9      1.22      0.00
   13   -7    9      1.01      0.00
   -8   -6    9      1.67      0.00
   -7   -6    9      0.70      0.00
   -6   -6    9      0.24      0.00
   -5   -6    9      1.80      0.00
   -4   -6    9     -0.71      0.00
   -3   -6    9     -0.75      0.00
   -2   -6    9      0.18      0.00
   -1   -6    9     -0.17      0.00
    0   -6    9     -0.89      0.00
    1   -6    9     -1.20      0.00
    2   -6    9     -2.42      0.00
    3   -6    9      2.01      0.00
    4   -6    9      2.42      0.00
    5   -6    9      2.86      0.00
    6   -6    9     -0.01      0.00
    7   -6    9     -0.25      0.00
    8   -6    9     -1.31      0.00
    9   -6    9     -0.53      0.00
   10   -6    9     -1.78      0.00
   11   -6    9     -0.68      0.00
   12   -6    9      0.79      0.00
   13   -6    9     -0.98      0.00
   14   -6    9      0.39      0.00
   -7   -5    9     -0.98      0.00
   -6   -5    9     -2.55      0.00
   -5   -5    9     -1.67      0.00
   -4   -5    9      1.65      0.00
   -3   -5    9      3.66      0.00
   -2   -5    9      1.39      0.00
   -1   -5    9      3.82      0.00
    0   -5    9      2.85      0.00
    1   -5    9      3.66      0.00
    2   -5    9     -0.63      0.00
    3   -5    9     -6.12      0.00
    4   -5    9     -5.46      0.00
    5   -5    9      0.49      0.00
    6   -5    9     -1.08      0.00
    7   -5    9      0.75      0.00
    8   -5    9      1.55      0.00
    9   -5    9      0.21      0.00
   10   -5    9      0.53      0.00
   11   -5    9     -0.53      0.00
   12   -5    9     -2.44      0.00
   13   -5    9     -1.34      0.00
   14   -5    9     -0.05      0.00
  -10   -4    9     -0.95      0.00
   -9   -4    9     -2.42      0.00
   -8   -4    9     -1.46      0.00
   -7   -4    9      1.60      0.00
   -6   -4    9      1.49      0.00
   -5   -4    9      0.65      0.00
   -4   -4    9     -1.79      0.00
   -3   -4    9     -2.08      0.00
   -2   -4    9     -0.77      0.00
   -1   -4    9     -0.68      0.00
    0   -4    9     -1.96      0.00
    1   -4    9     -0.13      0.00
    2   -4    9      4.27      0.00
    3   -4    9      5.83      0.00
    4   -4    9      1.32      0.00
    5   -4    9      2.11      0.00
    6   -4    9      0.47      0.00
    7   -4    9     -1.48      0.00
    8   -4    9      1.18      0.00
    9   -4    9      1.54      0.00
   10   -4    9      2.07      0.00
   11   -4    9      1.82      0.00
   12   -4    9      1.75      0.00
   13   -4    9      2.03      0.00
   14   -4    9      0.64      0.00
  -11   -3    9      0.16      0.00
  -10   -3    9      0.42      0.00
   -9   -3    9      0.22      0.00
   -8   -3    9     -2.19      0.00
   -7   -3    9      0.04      0.00
   -6   -3    9      0.04      0.00
   -5   -3    9      1.55      0.00
   -4   -3    9      1.15      0.00
   -3   -3    9     -2.19      0.00
   -2   -3    9     -2.05      0.00
   -1   -3    9     -3.97      0.00
    0   -3    9     -4.57      0.00
    1   -3    9     -4.54      0.00
    2   -3    9     -4.33      0.00
    3   -3    9      0.39      0.00
    4   -3    9     -0.60      0.00
    5   -3    9     -2.41      0.00
    6   -3    9     -0.71      0.00
    7   -3    9     -0.49      0.00
    8   -3    9     -1.52      0.00
    9   -3    9     -1.95      0.00
   10   -3    9     -0.75      0.00
   11   -3    9     -1.02      0.00
   12   -3    9      0.15      0.00
   13   -3    9     -0.01      0.00
   14   -3    9     -0.88      0.00
   15   -3    9     -0.77      0.00
  -11   -2    9     -1.82      0.00
  -10   -2    9      1.73      0.00
   -9   -2    9      0.66      0.00
   -8   -2    9     -0.79      0.00
   -7   -2    9     -2.18      0.00
   -6   -2    9     -0.33      0.00
   -5   -2    9     -1.07      0.00
   -4   -2    9      0.81      0.00
   -3   -2    9      3.22      0.00
   -2   -2    9     -0.02      0.00
   -1   -2    9      5.65      0.00
    0   -2    9      4.27      0.00
    2   -2    9      2.51      0.00
    3   -2    9      0.87      0.00
    4   -2    9      4.27      0.00
    5   -2    9     -2.46      0.00
    6   -2    9      2.63      0.00
    7   -2    9      0.01      0.00
    8   -2    9     -0.80      0.00
    9   -2    9     -0.36      0.00
   10   -2    9     -1.98      0.00
   11   -2    9     -1.51      0.00
   12   -2    9      0.57      0.00
   13   -2    9     -0.97      0.00
   14   -2    9     -0.44      0.00
   15   -2    9      0.80      0.00
  -12   -1    9     -0.60      0.00
  -11   -1    9      1.02      0.00
  -10   -1    9     -0.24      0.00
   -9   -1    9      0.30      0.00
   -8   -1    9      2.26      0.00
   -7   -1    9      1.66      0.00
   -6   -1    9      0.13      0.00
   -5   -1    9     -2.06      0.00
   -4   -1    9      0.44      0.00
   -3   -1    9     -2.27      0.00
   -2   -1    9      1.65      0.00
   -1   -1    9     -2.18      0.00
    0   -1    9      5.70      0.00
    1   -1    9     -4.34      0.00
    2   -1    9     -4.15      0.00
    3   -1    9     -8.71      0.00
    4   -1    9     -2.36      0.00
    5   -1    9      0.59      0.00
    6   -1    9      0.29      0.00
    7   -1    9      2.77      0.00
    8   -1    9      0.81      0.00
    9   -1    9      1.80      0.00
   10   -1    9      2.14      0.00
   11   -1    9      0.96      0.00
   12   -1    9     -0.34      0.00
   13   -1    9      0.74      0.00
   14   -1    9      0.59      0.00
   15   -1    9      0.45      0.00
  -12    0    9      1.04      0.00
  -11    0    9     -0.31      0.00
  -10    0    9     -0.84      0.00
   -9    0    9     -1.01      0.00
   -8    0    9     -0.07      0.00
   -7    0    9      0.85      0.00
   -6    0    9      1.73      0.00
   -5    0    9      1.82      0.00
   -4    0    9     -2.29      0.00
   -3    0    9     -1.38      0.00
   -2    0    9      0.43      0.00
   -1    0    9     -3.48      0.00
    0    0    9     -5.41      0.00
    1    0    9      4.17      0.00
    2    0    9      5.97      0.00
    3    0    9      7.52      0.00
    4    0    9     -0.40      0.00
    5    0    9     -4.52      0.00
    6    0    9     -1.73      0.00
    7    0    9     -1.91      0.00
    8    0    9     -1.42      0.00
    9    0    9     -2.93      0.00
   10    0    9     -1.24      0.00
   11    0    9     -0.11      0.00
   12    0    9     -0.35      0.00
   13    0    9     -0.78      0.00
   14    0    9      0.38      0.00
   15    0    9     -0.58      0.00
  -12    1    9     -1.38      0.00
  -11    1    9      1.21      0.00
  -10    1    9     -1.61      0.00
   -9    1    9     -0.16      0.00
   -8    1    9      1.37      0.00
   -7    1    9     -2.94      0.00
   -6    1    9      0.85      0.00
   -5    1    9      0.36      0.00
   -4    1    9      1.00      0.00
   -3    1    9      2.88      0.00
   -2    1    9      1.40      0.00
   -1    1    9      3.89      0.00
    0    1    9     -3.21      0.00
    1    1    9     -2.93      0.00
    2    1    9     -0.30      0.00
    3    1    9      2.04      0.00
    4    1    9      6.65      0.00
    5    1    9      4.65      0.00
    6    1    9      1.41      0.00
    7    1    9      2.25      0.00
    8    1    9      3.30      0.00
    9    1    9      2.25      0.00
   10    1    9      0.65      0.00
   11    1    9      1.86      0.00
   12    1    9     -0.09      0.00
   13    1    9      0.29      0.00
   14    1    9     -1.08      0.00
   15    1    9     -0.91      0.00
  -12    2    9     -1.58      0.00
  -11    2    9     -0.81      0.00
  -10    2    9      0.73      0.00
   -9    2    9      0.60      0.00
   -8    2    9      0.29      0.00
   -7    2    9     -1.50      0.00
   -6    2    9     -2.00      0.00
   -5    2    9     -1.46      0.00
   -4    2    9      1.46      0.00
   -3    2    9     -1.91      0.00
   -2    2    9     -3.60      0.00
   -1    2    9     -4.88      0.00
    0    2    9      0.85      0.00
    1    2    9      4.26      0.00
    2    2    9     -5.81      0.00
    3    2    9     -5.17      0.00
    4    2    9     -8.13      0.00
    5    2    9      5.43      0.00
    6    2    9     -1.69      0.00
    7    2    9     -2.25      0.00
    8    2    9     -2.45      0.00
    9    2    9     -2.22      0.00
   10    2    9     -1.30      0.00
   11    2    9     -0.30      0.00
   12    2    9      0.31      0.00
   13    2    9      0.99      0.00
   14    2    9      0.74      0.00
   15    2    9      1.24      0.00
  -12    3    9      2.78      0.00
  -11    3    9      0.08      0.00
  -10    3    9      1.79      0.00
   -9    3    9     -0.30      0.00
   -8    3    9     -1.65      0.00
   -7    3    9      2.59      0.00
   -6    3    9     -0.90      0.00
   -5    3    9     -0.02      0.00
   -4    3    9     -3.22      0.00
   -3    3    9      0.99      0.00
   -2    3    9      4.03      0.00
   -1    3    9      8.94      0.00
    0    3    9      2.30      0.00
    1    3    9      2.66      0.00
    2    3    9      1.34      0.00
    3    3    9      2.05      0.00
    4    3    9     -2.23      0.00
    5    3    9     -5.50      0.00
    6    3    9      0.97      0.00
    7    3    9      2.51      0.00
    8    3    9      0.00      0.00
    9    3    9      3.94      0.00
   10    3    9      1.01      0.00
   11    3    9     -1.52      0.00
   12    3    9     -2.18      0.00
   13    3    9     -0.50      0.00
   14    3    9     -0.70      0.00
   15    3    9     -0.19      0.00
  -12    4    9     -0.46      0.00
  -11    4    9      0.05      0.00
  -10    4    9     -2.48      0.00
   -9    4    9     -0.07      0.00
   -8    4    9      0.15      0.00
   -7    4    9      1.53      0.00
   -6    4    9      1.68      0.00
   -5    4    9      0.91      0.00
   -4    4    9      1.96      0.00
   -3    4    9     -0.91      0.00
   -2    4    9     -3.57      0.00
   -1    4    9     -2.32      0.00
    0    4    9      2.10      0.00
    1    4    9     -5.54      0.00
    2    4    9      0.79      0.00
    3    4    9      4.57      0.00
    4    4    9     -5.07      0.00
    5    4    9     -2.98      0.00
    6    4    9     -6.04      0.00
    7    4    9     -7.68      0.00
    8    4    9     -2.29      0.00
    9    4    9     -1.34      0.00
   10    4    9      0.74      0.00
   11    4    9      2.04      0.00
   12    4    9      1.54      0.00
   13    4    9     -0.03      0.00
   14    4    9     -0.30      0.00
   15    4    9     -0.45      0.00
  -12    5    9     -0.56      0.00
  -11    5    9      0.61      0.00
  -10    5    9      0.91      0.00
   -9    5    9      0.75      0.00
   -8    5    9     -0.56      0.00
   -7    5    9     -1.96      0.00
   -6    5    9      0.41      0.00
   -5    5    9      0.86      0.00
   -4    5    9      1.85      0.00
   -3    5    9      2.11      0.00
   -2    5    9      1.23      0.00
   -1    5    9     -7.74      0.00
    0    5    9     -4.71      0.00
    1    5    9     -3.80      0.00
    2    5    9      1.12      0.00
    3    5    9     -2.20      0.00
    4    5    9     14.56      0.00
    5    5    9     11.95      0.00
    6    5    9     16.92      0.00
    7    5    9      8.80      0.00
    8    5    9      4.62      0.00
    9    5    9     -0.60      0.00
   10    5    9     -0.20      0.00
   11    5    9     -1.23      0.00
   12    5    9      0.16      0.00
   13    5    9      0.28      0.00
   14    5    9      1.44      0.00
   15    5    9      0.27      0.00
  -11    6    9     -2.01      0.00
  -10    6    9      1.07      0.00
   -9    6    9      0.14      0.00
   -8    6    9      0.95      0.00
   -7    6    9      1.45      0.00
   -6    6    9     -2.05      0.00
   -5    6    9     -0.99      0.00
   -4    6    9     -3.12      0.00
   -3    6    9     -2.52      0.00
   -2    6    9      1.18      0.00
   -1    6    9      5.40      0.00
    0    6    9      2.72      0.00
    1    6    9      2.06      0.00
    2    6    9      1.27      0.00
    3    6    9     -6.78      0.00
    4    6    9     -5.56      0.00
    5    6    9    -17.46      0.00
    6    6    9    -17.07      0.00
    7    6    9     -7.09      0.00
    8    6    9     -2.19      0.00
    9    6    9      0.05      0.00
   10    6    9     -1.02      0.00
   11    6    9     -0.88      0.00
   12    6    9     -1.35      0.00
   13    6    9      0.10      0.00
   14    6    9     -0.13      0.00
   15    6    9      0.07      0.00
  -11    7    9      0.74      0.00
  -10    7    9     -0.46      0.00
   -9    7    9     -0.99      0.00
   -8    7    9     -0.41      0.00
   -7    7    9     -0.46      0.00
   -6    7    9     -0.27      0.00
   -5    7    9      0.38      0.00
   -4    7    9      1.97      0.00
   -3    7    9      1.43      0.00
   -2    7    9      0.17      0.00
   -1    7    9      0.01      0.00
    0    7    9      1.99      0.00
    1    7    9      4.51      0.00
    3    7    9      6.96      0.00
    4    7    9      1.79      0.00
    5    7    9     16.88      0.00
    6    7    9      8.59      0.00
    7    7    9      3.81      0.00
    8    7    9      0.41      0.00
    9    7    9     -0.58      0.00
   10    7    9      1.19      0.00
   11    7    9      0.95      0.00
   12    7    9      1.49      0.00
   13    7    9     -1.53      0.00
   14    7    9     -0.27      0.00
   15    7    9      0.07      0.00
  -11    8    9      0.30      0.00
  -10    8    9      0.34      0.00
   -9    8    9      1.06      0.00
   -8    8    9     -0.87      0.00
   -7    8    9     -0.90      0.00
   -6    8    9      0.25      0.00
   -5    8    9     -1.59      0.00
   -4    8    9     -0.68      0.00
   -3    8    9      0.14      0.00
   -2    8    9     -2.41      0.00
   -1    8    9     -1.89      0.00
    0    8    9     -1.91      0.00
    1    8    9     -2.55      0.00
    2    8    9      1.19      0.00
    3    8    9     -4.75      0.00
    4    8    9     -4.97      0.00
    5    8    9    -13.06      0.00
    6    8    9     -4.55      0.00
    7    8    9      1.85      0.00
    8    8    9      1.31      0.00
    9    8    9      0.82      0.00
   10    8    9     -1.89      0.00
   11    8    9      0.11      0.00
   12    8    9      0.18      0.00
   13    8    9      0.48      0.00
   14    8    9      0.24      0.00
   15    8    9     -0.68      0.00
  -11    9    9      0.17      0.00
  -10    9    9     -0.94      0.00
   -9    9    9      0.89      0.00
   -8    9    9      0.39      0.00
   -7    9    9      0.89      0.00
   -6    9    9      2.57      0.00
   -5    9    9      2.80      0.00
   -4    9    9      0.07      0.00
   -3    9    9     -0.73      0.00
   -2    9    9      0.03      0.00
   -1    9    9      1.09      0.00
    0    9    9     -0.38      0.00
    1    9    9     -1.60      0.00
    2    9    9      1.67      0.00
    3    9    9      2.97      0.00
    4    9    9      7.61      0.00
    5    9    9     11.54      0.00
    6    9    9     -0.76      0.00
    7    9    9     -2.57      0.00
    8    9    9     -1.70      0.00
    9    9    9     -0.22      0.00
   10    9    9     -0.69      0.00
   11    9    9     -0.56      0.00
   12    9    9      0.37      0.00
   13    9    9      1.00      0.00
   14    9    9     -1.13      0.00
   15    9    9      0.30      0.00
  -11   10    9      1.00      0.00
  -10   10    9     -0.86      0.00
   -9   10    9     -0.98      0.00
   -8   10    9     -1.16      0.00
   -7   10    9      0.40      0.00
   -6   10    9     -0.92      0.00
   -5   10    9     -1.43      0.00
   -4   10    9      0.38      0.00
   -3   10    9     -1.53      0.00
   -2   10    9      2.02      0.00
   -1   10    9     -0.36      0.00
    0   10    9      1.06      0.00
    1   10    9      0.55      0.00
    2   10    9     -0.95      0.00
    3   10    9     -2.84      0.00
    4   10    9    -11.42      0.00
    5   10    9     -5.14      0.00
    6   10    9      4.38      0.00
    7   10    9      1.30      0.00
    8   10    9      0.56      0.00
    9   10    9     -0.21      0.00
   10   10    9      2.70      0.00
   11   10    9     -0.03      0.00
   12   10    9     -0.54      0.00
   13   10    9     -1.24      0.00
   14   10    9      0.86      0.00
   15   10    9      0.60      0.00
  -10   11    9      0.89      0.00
   -9   11    9     -0.08      0.00
   -8   11    9      1.44      0.00
   -7   11    9     -0.22      0.00
   -6   11    9     -1.79      0.00
   -5   11    9     -2.86      0.00
   -4   11    9     -2.27      0.00
   -3   11    9      2.12      0.00
   -2   11    9     -0.38      0.00
   -1   11    9      1.13      0.00
    0   11    9     -1.07      0.00
    1   11    9      3.52      0.00
    2   11    9      2.76      0.00
    3   11    9      7.59      0.00
    4   11    9      8.54      0.00
    5   11    9     -4.22      0.00
    6   11    9     -3.36      0.00
    7   11    9     -2.65      0.00
    8   11    9      0.42      0.00
    9   11    9     -0.92      0.00
   10   11    9     -0.24      0.00
   11   11    9      0.38      0.00
   12   11    9      0.08      0.00
   13   11    9      1.78      0.00
   14   11    9     -0.28      0.00
  -10   12    9      0.21      0.00
   -9   12    9     -1.00      0.00
   -8   12    9     -0.57      0.00
   -7   12    9     -0.11      0.00
   -6   12    9      2.44      0.00
   -5   12    9      2.92      0.00
   -4   12    9      3.37      0.00
   -3   12    9      1.00      0.00
   -2   12    9      0.96      0.00
   -1   12    9      0.07      0.00
    0   12    9     -0.89      0.00
    1   12    9     -2.84      0.00
    2   12    9     -6.40      0.00
    3   12    9     -7.30      0.00
    4   12    9     -4.16      0.00
    5   12    9      5.64      0.00
    6   12    9      0.66      0.00
    7   12    9      1.90      0.00
    8   12    9     -1.51      0.00
    9   12    9     -0.19      0.00
   10   12    9      0.14      0.00
   11   12    9     -0.22      0.00
   12   12    9     -0.56      0.00
   13   12    9     -1.04      0.00
   14   12    9     -0.65      0.00
   -9   13    9      0.62      0.00
   -8   13    9      0.58      0.00
   -7   13    9      0.87      0.00
   -6   13    9     -2.23      0.00
   -5   13    9      1.07      0.00
   -4   13    9     -1.09      0.00
   -3   13    9     -0.75      0.00
   -2   13    9     -1.48      0.00
   -1   13    9     -1.20      0.00
    0   13    9      1.03      0.00
    1   13    9     -1.87      0.00
    2   13    9      3.17      0.00
    3   13    9      2.12      0.00
    4   13    9      0.56      0.00
    5   13    9     -2.11      0.00
    6   13    9      2.22      0.00
    7   13    9      0.95      0.00
    8   13    9      1.94      0.00
    9   13    9      0.97      0.00
   10   13    9     -0.35      0.00
   11   13    9     -0.46      0.00
   12   13    9      0.13      0.00
   13   13    9      0.46      0.00
   14   13    9      0.94      0.00
   -9   14    9      0.12      0.00
   -8   14    9     -0.56      0.00
   -7   14    9     -1.49      0.00
   -6   14    9     -1.18      0.00
   -5   14    9      0.77      0.00
   -4   14    9     -2.38      0.00
   -3   14    9     -0.87      0.00
   -2   14    9     -0.93      0.00
   -1   14    9      0.65      0.00
    0   14    9      0.66      0.00
    1   14    9      2.62      0.00
    2   14    9      0.38      0.00
    3   14    9      0.31      0.00
    4   14    9      2.02      0.00
    5   14    9     -0.51      0.00
    6   14    9      0.65      0.00
    7   14    9     -0.28      0.00
    8   14    9     -1.92      0.00
    9   14    9      0.89      0.00
   10   14    9      0.32      0.00
   11   14    9      1.01      0.00
   12   14    9     -0.24      0.00
   13   14    9     -0.29      0.00
   -8   15    9      0.48      0.00
   -7   15    9      1.12      0.00
   -6   15    9      1.86      0.00
   -5   15    9     -2.51      0.00
   -4   15    9      1.30      0.00
   -3   15    9     -0.23      0.00
   -2   15    9      1.24      0.00
   -1   15    9     -1.66      0.00
    0   15    9      0.34      0.00
    1   15    9     -1.01      0.00
    2   15    9      0.51      0.00
    3   15    9      0.04      0.00
    4   15    9      1.07      0.00
    5   15    9     -0.34      0.00
    6   15    9     -4.46      0.00
    7   15    9      0.88      0.00
    8   15    9     -1.00      0.00
    9   15    9     -1.25      0.00
   10   15    9      0.29      0.00
   11   15    9     -1.19      0.00
   12   15    9      0.58      0.00
   13   15    9     -0.15      0.00
   -8   16    9      0.10      0.00
   -7   16    9     -0.73      0.00
   -6   16    9      1.22      0.00
   -5   16    9     -1.17      0.00
   -4   16    9      1.61      0.00
   -3   16    9      0.85      0.00
   -2   16    9      0.52      0.00
   -1   16    9      2.04      0.00
    0   16    9      0.02      0.00
    1   16    9     -0.29      0.00
    2   16    9     -1.52      0.00
    3   16    9     -1.44      0.00
    4   16    9     -0.76      0.00
    5   16    9      1.70      0.00
    6   16    9      1.13      0.00
    7   16    9     -0.30      0.00
    8   16    9      2.78      0.00
    9   16    9     -0.38      0.00
   10   16    9     -0.14      0.00
   11   16    9      0.69      0.00
   12   16    9     -0.25      0.00
   -7   17    9     -1.32      0.00
   -6   17    9     -0.51      0.00
   -5   17    9      2.05      0.00
   -4   17    9      0.13      0.00
   -2   17    9     -1.44      0.00
   -1   17    9     -2.08      0.00
    0   17    9      0.63      0.00
    1   17    9     -0.02      0.00
    2   17    9      0.24      0.00
    3   17    9      1.20      0.00
    4   17    9     -1.82      0.00
    5   17    9      1.74      0.00
    6   17    9     -0.85      0.00
    7   17    9     -1.16      0.00
    8   17    9     -1.84      0.00
    9   17    9      0.62      0.00
   10   17    9     -1.13      0.00
   11   17    9     -0.63      0.00
   -6   18    9     -0.08      0.00
   -5   18    9      0.53      0.00
   -4   18    9     -0.45      0.00
   -2   18    9      2.74      0.00
   -1   18    9      0.32      0.00
    1   18    9      0.41      0.00
    2   18    9      1.05      0.00
    3   18    9     -1.35      0.00
    4   18    9      1.63      0.00
    7   18    9     -0.49      0.00
    8   18    9      1.82      0.00
    9   18    9      0.32      0.00
   10   18    9      0.43      0.00
   -2   19    9     -2.14      0.00
   -1   19    9      1.59      0.00
    0   19    9     -3.53      0.00
    1   19    9      1.14      0.00
    2   19    9     -0.15      0.00
    3   19    9     -0.77      0.00
    7   19    9     -0.43      0.00
    8   19    9      0.35      0.00
    9   19    9     -0.29      0.00
   10   19    9     -0.35      0.00
   -3   20    9      0.51      0.00
   -2   20    9     -0.40      0.00
   -1   20    9      0.40      0.00
    0   20    9      0.38      0.00
    1   20    9     -1.10      0.00
    2   20    9      1.25      0.00
    3   20    9      1.08      0.00
    8   20    9     -2.74      0.00
   -3   21    9      0.33      0.00
   -2   21    9     -1.14      0.00
   -1   21    9      0.58      0.00
    0   21    9     -0.12      0.00
    1   21    9      0.80      0.00
    2   21    9     -0.57      0.00
    3   21    9      0.09      0.00
    0   22    9      0.41      0.00
    1   22    9     -0.85      0.00
    2   22    9     -1.21      0.00
    3   22    9      0.29      0.00
   -2  -15   10      0.09      0.00
   -1  -15   10      0.33      0.00
    0  -15   10     -1.07      0.00
    1  -15   10      0.57      0.00
    2  -15   10     -0.03      0.00
    3  -15   10      0.63      0.00
    4  -15   10     -0.85      0.00
    5  -15   10     -0.37      0.00
   -4  -14   10      0.11      0.00
   -3  -14   10      0.34      0.00
   -2  -14   10      0.75      0.00
   -1  -14   10      0.10      0.00
    0  -14   10     -0.40      0.00
    1  -14   10     -0.27      0.00
    2  -14   10     -0.43      0.00
    3  -14   10      0.10      0.00
    4  -14   10      1.18      0.00
    5  -14   10      0.87      0.00
    6  -14   10      1.39      0.00
    7  -14   10     -0.57      0.00
   -5  -13   10     -0.55      0.00
   -4  -13   10      1.23      0.00
   -3  -13   10      0.07      0.00
   -2  -13   10     -0.15      0.00
   -1  -13   10     -0.33      0.00
    0  -13   10      0.14      0.00
    1  -13   10      1.26      0.00
    2  -13   10     -0.34      0.00
    3  -13   10     -1.63      0.00
    4  -13   10      0.11      0.00
    5  -13   10     -1.77      0.00
    6  -13   10      1.40      0.00
    7  -13   10      0.26      0.00
    8  -13   10      1.28      0.00
    9  -13   10      0.87      0.00
   -6  -12   10      0.56      0.00
   -5  -12   10      0.65      0.00
   -4  -12   10     -1.65      0.00
   -3  -12   10     -1.63      0.00
   -2  -12   10      0.01      0.00
   -1  -12   10      1.68      0.00
    0  -12   10     -0.95      0.00
    1  -12   10     -0.30      0.00
    2  -12   10      0.20      0.00
    3  -12   10      0.51      0.00
    4  -12   10     -1.90      0.00
    5  -12   10      1.09      0.00
    6  -12   10     -2.00      0.00
    7  -12   10     -0.32      0.00
    8  -12   10     -1.46      0.00
    9  -12   10     -0.50      0.00
   10  -12   10     -0.42      0.00
   -7  -11   10      1.30      0.00
   -6  -11   10     -1.52      0.00
   -5  -11   10      0.10      0.00
   -4  -11   10      0.37      0.00
   -3  -11   10      1.12      0.00
   -2  -11   10     -0.31      0.00
   -1  -11   10     -0.31      0.00
    0  -11   10      1.58      0.00
    1  -11   10      0.27      0.00
    2  -11   10      0.68      0.00
    3  -11   10      1.17      0.00
    4  -11   10      1.35      0.00
    5  -11   10      1.12      0.00
    6  -11   10      0.76      0.00
    7  -11   10     -0.30      0.00
    8  -11   10      0.66      0.00
    9  -11   10     -0.11      0.00
   10  -11   10      0.28      0.00
   -8  -10   10     -1.35      0.00
   -7  -10   10      0.04      0.00
   -6  -10   10      0.11      0.00
   -5  -10   10      0.46      0.00
   -4  -10   10      0.43      0.00
   -3  -10   10     -0.26      0.00
   -2  -10   10     -0.19      0.00
   -1  -10   10     -2.25      0.00
    0  -10   10     -1.17      0.00
    1  -10   10     -0.80      0.00
    2  -10   10      0.16      0.00
    3  -10   10     -0.66      0.00
    4  -10   10      0.27      0.00
    5  -10   10     -1.20      0.00
    6  -10   10      0.41      0.00
    7  -10   10      0.53      0.00
    8  -10   10     -0.44      0.00
    9  -10   10     -0.77      0.00
   10  -10   10      1.72      0.00
   11  -10   10      1.38      0.00
   -8   -9   10      1.81      0.00
   -7   -9   10     -0.51      0.00
   -6   -9   10     -0.99      0.00
   -5   -9   10     -0.14      0.00
   -4   -9   10     -1.14      0.00
   -3   -9   10      1.19      0.00
   -2   -9   10      0.57      0.00
   -1   -9   10      0.55      0.00
    0   -9   10      1.19      0.00
    1   -9   10     -1.62      0.00
    2   -9   10     -1.12      0.00
    3   -9   10      0.63      0.00
    4   -9   10     -1.54      0.00
    5   -9   10     -0.87      0.00
    6   -9   10     -0.84      0.00
    7   -9   10     -0.41      0.00
    8   -9   10     -0.70      0.00
    9   -9   10      0.61      0.00
   11   -9   10     -0.22      0.00
   12   -9   10      0.01      0.00
   -8   -8   10     -0.19      0.00
   -7   -8   10     -0.97      0.00
   -6   -8   10      1.38      0.00
   -5   -8   10      0.29      0.00
   -4   -8   10      0.36      0.00
   -3   -8   10     -0.83      0.00
   -2   -8   10     -1.26      0.00
   -1   -8   10      0.98      0.00
    0   -8   10      2.15      0.00
    1   -8   10      2.48      0.00
    2   -8   10     -0.06      0.00
    3   -8   10      0.16      0.00
    4   -8   10      1.59      0.00
    5   -8   10     -2.09      0.00
    6   -8   10      0.94      0.00
    7   -8   10      0.00      0.00
    8   -8   10      0.06      0.00
   10   -8   10     -1.17      0.00
   11   -8   10     -1.36      0.00
   12   -8   10     -1.81      0.00
   -8   -7   10     -0.49      0.00
   -7   -7   10      0.47      0.00
   -6   -7   10      1.26      0.00
   -5   -7   10     -0.60      0.00
   -4   -7   10      1.03      0.00
   -3   -7   10      0.28      0.00
   -2   -7   10      1.09      0.00
   -1   -7   10     -2.27      0.00
    0   -7   10     -3.00      0.00
    1   -7   10     -0.50      0.00
    2   -7   10      0.39      0.00
    3   -7   10     -1.33      0.00
    4   -7   10      2.75      0.00
    5   -7   10      3.77      0.00
    6   -7   10     -0.45      0.00
    7   -7   10      2.15      0.00
    8   -7   10      1.80      0.00
    9   -7   10      1.41      0.00
   10   -7   10      0.44      0.00
   11   -7   10      0.88      0.00
   12   -7   10      1.31      0.00
   13   -7   10      1.47      0.00
   -7   -6   10     -0.74      0.00
   -6   -6   10     -1.64      0.00
   -5   -6   10      0.07      0.00
   -4   -6   10     -2.73      0.00
   -3   -6   10      1.03      0.00
   -2   -6   10     -0.38      0.00
   -1   -6   10      2.27      0.00
    0   -6   10     -0.59      0.00
    1   -6   10     -0.62      0.00
    2   -6   10     -0.85      0.00
    3   -6   10     -0.71      0.00
    4   -6   10     -5.13      0.00
    5   -6   10     -0.03      0.00
    6   -6   10     -2.15      0.00
    7   -6   10     -2.53      0.00
    8   -6   10     -1.02      0.00
    9   -6   10     -1.52      0.00
   10   -6   10     -0.92      0.00
   11   -6   10     -0.19      0.00
   12   -6   10      0.29      0.00
   13   -6   10     -1.58      0.00
   -6   -5   10     -0.32      0.00
   -5   -5   10      0.52      0.00
   -4   -5   10      2.78      0.00
   -3   -5   10     -0.97      0.00
   -2   -5   10      0.59      0.00
   -1   -5   10      1.40      0.00
    0   -5   10      3.71      0.00
    1   -5   10      1.89      0.00
    2   -5   10      1.32      0.00
    3   -5   10      1.30      0.00
    4   -5   10      2.03      0.00
    5   -5   10      2.38      0.00
    6   -5   10      1.13      0.00
    7   -5   10      1.04      0.00
    8   -5   10      0.79      0.00
    9   -5   10      0.95      0.00
   10   -5   10      1.11      0.00
   11   -5   10      0.42      0.00
   12   -5   10     -1.05      0.00
   13   -5   10      0.44      0.00
   14   -5   10     -0.03      0.00
   -6   -4   10     -1.02      0.00
   -5   -4   10     -1.28      0.00
   -4   -4   10     -0.37      0.00
   -3   -4   10      0.86      0.00
   -2   -4   10     -1.08      0.00
   -1   -4   10     -1.59      0.00
    0   -4   10     -4.14      0.00
    1   -4   10     -1.17      0.00
    2   -4   10     -0.51      0.00
    3   -4   10     -0.23      0.00
    4   -4   10     -2.87      0.00
    5   -4   10     -3.34      0.00
    6   -4   10      0.44      0.00
    7   -4   10     -1.28      0.00
    8   -4   10      0.47      0.00
    9   -4   10     -0.05      0.00
   10   -4   10      1.16      0.00
   11   -4   10      0.20      0.00
   12   -4   10      0.67      0.00
   13   -4   10      1.20      0.00
   14   -4   10     -0.54      0.00
  -11   -3   10     -0.01      0.00
  -10   -3   10     -0.47      0.00
   -9   -3   10     -0.73      0.00
   -8   -3   10     -2.71      0.00
   -7   -3   10     -0.49      0.00
   -6   -3   10      2.49      0.00
   -5   -3   10      1.82      0.00
   -4   -3   10     -1.74      0.00
   -3   -3   10     -1.71      0.00
   -2   -3   10     -1.30      0.00
   -1   -3   10     -0.74      0.00
    0   -3   10     -0.86      0.00
    1   -3   10     -3.04      0.00
    2   -3   10      0.40      0.00
    3   -3   10      4.11      0.00
    4   -3   10      6.39      0.00
    5   -3   10     -1.14      0.00
    6   -3   10     -0.56      0.00
    7   -3   10     -0.34      0.00
    8   -3   10     -3.17      0.00
    9   -3   10     -2.09      0.00
   10   -3   10     -2.39      0.00
   11   -3   10     -1.17      0.00
   12   -3   10      1.03      0.00
   13   -3   10     -0.07      0.00
   14   -3   10     -0.68      0.00
  -11   -2   10     -2.37      0.00
  -10   -2   10      0.66      0.00
   -9   -2   10      0.42      0.00
   -8   -2   10     -0.43      0.00
   -7   -2   10     -0.48      0.00
   -6   -2   10      0.21      0.00
   -5   -2   10     -1.87      0.00
   -4   -2   10      3.63      0.00
   -3   -2   10      0.78      0.00
   -2   -2   10      2.43      0.00
   -1   -2   10      0.39      0.00
    0   -2   10      4.87      0.00
    1   -2   10      2.44      0.00
    2   -2   10     -3.32      0.00
    3   -2   10     -5.45      0.00
    4   -2   10     -4.16      0.00
    5   -2   10      1.49      0.00
    6   -2   10      1.34      0.00
    7   -2   10      3.56      0.00
    8   -2   10      2.50      0.00
    9   -2   10      1.15      0.00
   10   -2   10      0.02      0.00
   11   -2   10     -0.46      0.00
   12   -2   10     -0.47      0.00
   13   -2   10     -1.13      0.00
   14   -2   10      0.71      0.00
   15   -2   10     -0.59      0.00
  -11   -1   10      2.08      0.00
  -10   -1   10     -0.60      0.00
   -9   -1   10     -0.50      0.00
   -8   -1   10      2.48      0.00
   -7   -1   10     -0.30      0.00
   -6   -1   10     -0.12      0.00
   -5   -1   10     -0.91      0.00
   -4   -1   10     -1.05      0.00
   -3   -1   10     -0.95      0.00
   -2   -1   10     -1.28      0.00
   -1   -1   10      0.81      0.00
    0   -1   10      0.11      0.00
    1   -1   10      2.25      0.00
    2   -1   10      3.16      0.00
    3   -1   10      0.99      0.00
    4   -1   10      0.12      0.00
    5   -1   10     -1.45      0.00
    6   -1   10      0.74      0.00
    7   -1   10     -1.87      0.00
    8   -1   10      0.30      0.00
    9   -1   10      0.81      0.00
   10   -1   10      0.72      0.00
   11   -1   10      1.00      0.00
   12   -1   10     -0.22      0.00
   13   -1   10      0.51      0.00
   14   -1   10      0.53      0.00
   15   -1   10      1.37      0.00
  -11    0   10      0.33      0.00
  -10    0   10      0.16      0.00
   -9    0   10     -0.48      0.00
   -8    0   10      1.01      0.00
   -7    0   10      1.30      0.00
   -6    0   10      0.02      0.00
   -5    0   10      1.19      0.00
   -4    0   10     -2.71      0.00
   -3    0   10      0.40      0.00
   -2    0   10      1.43      0.00
   -1    0   10     -0.98      0.00
    0    0   10     -4.14      0.00
    1    0   10     -1.07      0.00
    2    0   10     -0.74      0.00
    3    0   10      2.40      0.00
    4    0   10      0.60      0.00
    5    0   10     -0.31      0.00
    6    0   10     -1.67      0.00
    7    0   10     -0.66      0.00
    8    0   10     -0.41      0.00
    9    0   10     -0.10      0.00
   10    0   10      1.08      0.00
   11    0   10      1.50      0.00
   12    0   10     -0.92      0.00
   13    0   10     -0.20      0.00
   14    0   10     -0.61      0.00
   15    0   10     -1.53      0.00
  -11    1   10     -0.98      0.00
  -10    1   10     -1.37      0.00
   -9    1   10      1.15      0.00
   -8    1   10     -0.62      0.00
   -7    1   10     -2.12      0.00
   -6    1   10      0.76      0.00
   -5    1   10      0.16      0.00
   -4    1   10      2.72      0.00
   -3    1   10      1.50      0.00
   -2    1   10      0.84      0.00
   -1    1   10      0.12      0.00
    0    1   10     -3.79      0.00
    1    1   10     -0.19      0.00
    2    1   10      1.25      0.00
    3    1   10      1.51      0.00
    4    1   10      0.24      0.00
    5    1   10      2.18      0.00
    6    1   10      0.87      0.00
    7    1   10      0.83      0.00
    8    1   10     -0.75      0.00
    9    1   10     -2.38      0.00
   10    1   10     -1.84      0.00
   11    1   10     -1.17      0.00
   12    1   10      0.74      0.00
   13    1   10      0.14      0.00
   14    1   10     -0.74      0.00
   15    1   10      0.23      0.00
  -11    2   10      1.49      0.00
  -10    2   10      0.02      0.00
   -9    2   10      0.26      0.00
   -8    2   10     -0.37      0.00
   -7    2   10     -0.52      0.00
   -6    2   10     -2.12      0.00
   -5    2   10     -0.39      0.00
   -4    2   10     -1.65      0.00
   -3    2   10     -2.91      0.00
   -2    2   10     -2.65      0.00
   -1    2   10      0.96      0.00
    0    2   10      6.43      0.00
    1    2   10      0.95      0.00
    2    2   10     -3.17      0.00
    3    2   10     -4.93      0.00
    4    2   10     -3.21      0.00
    5    2   10      3.95      0.00
    6    2   10     -0.73      0.00
    7    2   10     -0.71      0.00
    8    2   10      1.07      0.00
    9    2   10      2.69      0.00
   10    2   10      1.65      0.00
   11    2   10      1.52      0.00
   12    2   10     -0.45      0.00
   13    2   10      0.96      0.00
   14    2   10      0.70      0.00
   15    2   10      0.99      0.00
  -11    3   10     -1.61      0.00
  -10    3   10      1.64      0.00
   -9    3   10     -0.92      0.00
   -8    3   10     -1.09      0.00
   -7    3   10      2.49      0.00
   -6    3   10     -1.43      0.00
   -5    3   10      1.08      0.00
   -4    3   10     -0.39      0.00
   -3    3   10      1.43      0.00
   -2    3   10      1.50      0.00
   -1    3   10     -1.39      0.00
    0    3   10      1.20      0.00
    2    3   10      4.00      0.00
    3    3   10      1.88      0.00
    4    3   10     -0.93      0.00
    5    3   10     -8.83      0.00
    6    3   10     -1.02      0.00
    7    3   10     -2.21      0.00
    8    3   10     -4.81      0.00
    9    3   10     -0.56      0.00
   10    3   10     -2.49      0.00
   11    3   10     -2.68      0.00
   12    3   10     -0.21      0.00
   13    3   10     -0.22      0.00
   14    3   10      0.03      0.00
   15    3   10     -0.77      0.00
  -11    4   10      0.26      0.00
  -10    4   10     -0.65      0.00
   -9    4   10      0.92      0.00
   -8    4   10      0.38      0.00
   -7    4   10      0.43      0.00
   -6    4   10      2.58      0.00
   -5    4   10      0.64      0.00
   -4    4   10      2.81      0.00
   -3    4   10      1.45      0.00
   -2    4   10      2.82      0.00
   -1    4   10      2.42      0.00
    0    4   10     -1.50      0.00
    1    4   10     -9.74      0.00
    2    4   10     -0.87      0.00
    3    4   10      0.99      0.00
    4    4   10      5.90      0.00
    5    4   10      5.49      0.00
    6    4   10      5.10      0.00
    7    4   10      4.51      0.00
    8    4   10      7.44      0.00
    9    4   10      3.18      0.00
   10    4   10      4.06      0.00
   11    4   10      0.61      0.00
   12    4   10      0.01      0.00
   13    4   10     -1.41      0.00
   14    4   10      0.20      0.00
   15    4   10     -0.21      0.00
  -11    5   10     -0.59      0.00
  -10    5   10     -0.80      0.00
   -9    5   10     -0.31      0.00
   -8    5   10      0.52      0.00
   -7    5   10     -0.22      0.00
   -6    5   10      0.26      0.00
   -5    5   10     -1.01      0.00
   -4    5   10     -2.38      0.00
   -3    5   10     -1.41      0.00
   -2    5   10     -7.30      0.00
   -1    5   10     -4.10      0.00
    0    5   10     -1.19      0.00
    1    5   10      4.00      0.00
    2    5   10     -2.99      0.00
    3    5   10     -1.06      0.00
    4    5   10     -3.51      0.00
    5    5   10      0.59      0.00
    6    5   10     -5.33      0.00
    7    5   10     -6.63      0.00
    8    5   10     -5.02      0.00
    9    5   10     -5.34      0.00
   10    5   10     -1.13      0.00
   11    5   10      1.02      0.00
   12    5   10      0.48      0.00
   13    5   10      0.83      0.00
   14    5   10      0.64      0.00
   15    5   10      0.72      0.00
  -11    6   10      0.63      0.00
  -10    6   10      2.74      0.00
   -9    6   10      0.36      0.00
   -8    6   10     -1.58      0.00
   -7    6   10     -1.16      0.00
   -6    6   10     -1.86      0.00
   -5    6   10     -0.26      0.00
   -4    6   10      0.14      0.00
   -3    6   10      0.99      0.00
   -2    6   10      6.79      0.00
   -1    6   10      3.23      0.00
    0    6   10      1.07      0.00
    1    6   10      4.86      0.00
    2    6   10      3.40      0.00
    3    6   10     -1.71      0.00
    4    6   10      2.56      0.00
    5    6   10     -1.38      0.00
    6    6   10      3.33      0.00
    7    6   10      8.15      0.00
    8    6   10      3.35      0.00
    9    6   10      0.73      0.00
   10    6   10     -2.37      0.00
   11    6   10     -1.69      0.00
   12    6   10     -0.15      0.00
   13    6   10     -0.67      0.00
   14    6   10     -0.78      0.00
   15    6   10     -0.11      0.00
  -11    7   10     -0.16      0.00
  -10    7   10     -2.56      0.00
   -9    7   10     -0.77      0.00
   -8    7   10      1.16      0.00
   -7    7   10     -0.14      0.00
   -6    7   10      0.74      0.00
   -5    7   10     -0.55      0.00
   -4    7   10     -0.40      0.00
   -3    7   10     -2.25      0.00
   -2    7   10     -3.68      0.00
   -1    7   10     -0.85      0.00
    0    7   10      0.13      0.00
    1    7   10     -3.22      0.00
    2    7   10      0.44      0.00
    3    7   10      3.64      0.00
    4    7   10     -0.36      0.00
    5    7   10     -3.20      0.00
    6    7   10     -8.27      0.00
    7    7   10     -6.53      0.00
    8    7   10     -0.47      0.00
    9    7   10      2.23      0.00
   10    7   10      1.76      0.00
   11    7   10      0.77      0.00
   12    7   10      1.15      0.00
   13    7   10     -0.03      0.00
   14    7   10      0.83      0.00
   15    7   10     -0.34      0.00
  -11    8   10      0.55      0.00
  -10    8   10     -0.25      0.00
   -9    8   10      0.84      0.00
   -8    8   10      0.40      0.00
   -7    8   10      0.41      0.00
   -6    8   10      0.57      0.00
   -5    8   10      1.28      0.00
   -4    8   10      2.19      0.00
   -3    8   10      1.66      0.00
   -2    8   10     -0.29      0.00
   -1    8   10     -2.78      0.00
    0    8   10      0.05      0.00
    1    8   10     -0.54      0.00
    2    8   10     -3.19      0.00
    3    8   10     -2.11      0.00
    4    8   10      1.62      0.00
    5    8   10     10.44      0.00
    6    8   10     10.76      0.00
    7    8   10      5.60      0.00
    8    8   10     -2.30      0.00
    9    8   10     -0.74      0.00
   10    8   10     -1.94      0.00
   11    8   10      1.32      0.00
   12    8   10     -0.90      0.00
   13    8   10      1.23      0.00
   14    8   10     -0.78      0.00
   15    8   10     -0.45      0.00
  -11    9   10      0.48      0.00
  -10    9   10      1.93      0.00
   -9    9   10      0.45      0.00
   -8    9   10     -1.75      0.00
   -7    9   10      0.82      0.00
   -6    9   10      0.26      0.00
   -5    9   10     -0.52      0.00
   -4    9   10      0.01      0.00
   -3    9   10     -0.27      0.00
   -2    9   10      4.53      0.00
   -1    9   10      2.85      0.00
    0    9   10      1.29      0.00
    1    9   10     -0.03      0.00
    2    9   10      2.83      0.00
    3    9   10     -4.76      0.00
    4    9   10     -8.44      0.00
    5    9   10    -12.80      0.00
    6    9   10     -8.55      0.00
    7    9   10     -0.96      0.00
    8    9   10      1.93      0.00
    9    9   10     -0.84      0.00
   10    9   10      0.70      0.00
   11    9   10     -1.66      0.00
   12    9   10     -0.16      0.00
   13    9   10     -0.95      0.00
   14    9   10     -0.67      0.00
   15    9   10      0.91      0.00
  -10   10   10     -1.71      0.00
   -9   10   10     -1.00      0.00
   -8   10   10      1.16      0.00
   -7   10   10     -0.35      0.00
   -6   10   10      0.27      0.00
   -5   10   10     -1.38      0.00
   -4   10   10     -2.47      0.00
   -3   10   10     -1.33      0.00
   -2   10   10     -3.86      0.00
   -1   10   10      0.16      0.00
    0   10   10     -3.20      0.00
    1   10   10      1.28      0.00
    2   10   10      2.63      0.00
    3   10   10      9.15      0.00
    4   10   10      8.27      0.00
    5   10   10      9.08      0.00
    6   10   10      4.28      0.00
    7   10   10     -4.28      0.00
    8   10   10     -0.80      0.00
    9   10   10      0.05      0.00
   10   10   10      2.16      0.00
   11   10   10      0.06      0.00
   12   10   10      0.78      0.00
   13   10   10      0.61      0.00
   14   10   10      0.91      0.00
   15   10   10      0.10      0.00
  -10   11   10      0.20      0.00
   -9   11   10     -1.42      0.00
   -8   11   10      0.40      0.00
   -7   11   10     -0.62      0.00
   -6   11   10     -1.11      0.00
   -5   11   10      0.00      0.00
   -4   11   10      0.28      0.00
   -3   11   10      2.08      0.00
   -2   11   10     -0.18      0.00
   -1   11   10      0.34      0.00
    0   11   10      0.74      0.00
    1   11   10      1.12      0.00
    2   11   10     -5.05      0.00
    3   11   10     -2.28      0.00
    4   11   10     -7.19      0.00
    5   11   10     -5.15      0.00
    6   11   10      0.31      0.00
    7   11   10      2.67      0.00
    8   11   10     -0.55      0.00
    9   11   10     -0.24      0.00
   10   11   10      0.00      0.00
   11   11   10      0.91      0.00
   12   11   10     -1.33      0.00
   13   11   10      0.62      0.00
   14   11   10     -1.07      0.00
  -10   12   10      1.33      0.00
   -9   12   10      0.63      0.00
   -8   12   10      0.81      0.00
   -7   12   10      0.92      0.00
   -6   12   10      0.02      0.00
   -5   12   10      1.55      0.00
   -4   12   10      1.16      0.00
   -3   12   10      1.69      0.00
   -2   12   10      2.25      0.00
   -1   12   10     -0.35      0.00
    0   12   10      0.84      0.00
    1   12   10     -1.13      0.00
    2   12   10      0.08      0.00
    3   12   10     -2.24      0.00
    4   12   10      6.83      0.00
    5   12   10      0.82      0.00
    6   12   10     -0.75      0.00
    7   12   10     -0.10      0.00
    8   12   10      0.76      0.00
    9   12   10      0.32      0.00
   10   12   10     -1.02      0.00
   11   12   10     -1.25      0.00
   12   12   10      0.59      0.00
   13   12   10     -0.46      0.00
   14   12   10      0.32      0.00
   -9   13   10      0.70      0.00
   -8   13   10     -1.65      0.00
   -7   13   10     -0.57      0.00
   -6   13   10     -0.88      0.00
   -5   13   10      1.96      0.00
   -4   13   10     -0.43      0.00
   -3   13   10     -1.42      0.00
   -2   13   10     -2.74      0.00
   -1   13   10     -0.98      0.00
    0   13   10     -1.11      0.00
    1   13   10     -1.25      0.00
    2   13   10      0.35      0.00
    3   13   10     -2.86      0.00
    4   13   10     -2.39      0.00
    5   13   10      0.01      0.00
    6   13   10      2.36      0.00
    7   13   10      2.06      0.00
    8   13   10     -0.63      0.00
    9   13   10      1.06      0.00
   10   13   10      0.08      0.00
   11   13   10      0.93      0.00
   12   13   10      0.36      0.00
   13   13   10     -0.64      0.00
   14   13   10      0.59      0.00
   -9   14   10      1.00      0.00
   -8   14   10      1.15      0.00
   -7   14   10      0.55      0.00
   -6   14   10      0.26      0.00
   -5   14   10     -1.41      0.00
   -4   14   10     -0.98      0.00
   -3   14   10     -2.29      0.00
   -2   14   10      1.31      0.00
   -1   14   10     -0.61      0.00
    0   14   10      0.79      0.00
    1   14   10      0.86      0.00
    2   14   10      1.80      0.00
    3   14   10      5.21      0.00
    4   14   10      1.85      0.00
    5   14   10      0.64      0.00
    6   14   10     -3.87      0.00
    7   14   10     -1.49      0.00
    8   14   10     -1.01      0.00
    9   14   10      0.31      0.00
   10   14   10     -0.14      0.00
   11   14   10     -0.22      0.00
   12   14   10     -0.77      0.00
   13   14   10      0.94      0.00
   -8   15   10     -0.17      0.00
   -7   15   10     -1.88      0.00
   -6   15   10      1.98      0.00
   -5   15   10     -2.07      0.00
   -4   15   10      1.67      0.00
   -3   15   10     -0.23      0.00
   -2   15   10      1.19      0.00
   -1   15   10      2.06      0.00
    0   15   10      0.83      0.00
    1   15   10      0.46      0.00
    2   15   10     -0.53      0.00
    3   15   10     -4.52      0.00
    4   15   10      0.58      0.00
    5   15   10     -0.42      0.00
    6   15   10      1.64      0.00
    7   15   10      0.22      0.00
    8   15   10      0.07      0.00
    9   15   10     -1.37      0.00
   10   15   10     -0.10      0.00
   11   15   10     -0.13      0.00
   12   15   10      0.61      0.00
   13   15   10     -1.48      0.00
   -8   16   10     -0.14      0.00
   -7   16   10      0.87      0.00
   -6   16   10      0.02      0.00
   -5   16   10     -0.08      0.00
   -4   16   10      0.61      0.00
   -3   16   10      1.76      0.00
   -2   16   10     -1.48      0.00
   -1   16   10     -0.77      0.00
    0   16   10     -0.58      0.00
    1   16   10     -0.42      0.00
    2   16   10     -1.37      0.00
    3   16   10      2.50      0.00
    4   16   10     -2.10      0.00
    5   16   10      1.29      0.00
    6   16   10     -0.82      0.00
    7   16   10      0.08      0.00
    8   16   10      2.40      0.00
    9   16   10      0.13      0.00
   10   16   10     -0.48      0.00
   11   16   10     -0.07      0.00
   12   16   10      0.17      0.00
   -7   17   10     -0.58      0.00
   -6   17   10     -1.45      0.00
   -5   17   10      2.34      0.00
   -4   17   10     -0.80      0.00
   -3   17   10     -0.30      0.00
   -2   17   10      0.63      0.00
   -1   17   10     -0.55      0.00
    0   17   10      1.78      0.00
    1   17   10      0.68      0.00
    2   17   10      1.22      0.00
    3   17   10     -0.07      0.00
    4   17   10     -0.87      0.00
    5   17   10     -1.03      0.00
    6   17   10      0.39      0.00
    7   17   10     -1.93      0.00
    8   17   10     -0.62      0.00
    9   17   10      1.31      0.00
   10   17   10     -0.09      0.00
   11   17   10      0.54      0.00
   -6   18   10      0.18      0.00
   -5   18   10     -0.27      0.00
   -4   18   10     -1.76      0.00
   -3   18   10      0.30      0.00
   -2   18   10     -1.08      0.00
    1   18   10     -0.75      0.00
    2   18   10      1.22      0.00
    3   18   10     -1.48      0.00
    4   18   10      3.35      0.00
    5   18   10     -2.11      0.00
    6   18   10      1.59      0.00
    7   18   10     -0.91      0.00
    8   18   10     -0.65      0.00
    9   18   10     -0.98      0.00
   10   18   10     -0.22      0.00
   11   18   10     -0.53      0.00
   -5   19   10     -0.91      0.00
   -4   19   10      1.28      0.00
   -3   19   10      1.11      0.00
    0   19   10     -1.53      0.00
    1   19   10      0.42      0.00
    2   19   10     -1.70      0.00
    3   19   10      1.53      0.00
    9   19   10      0.37      0.00
   10   19   10     -0.44      0.00
   -4   20   10     -0.31      0.00
   -3   20   10     -1.08      0.00
    0   20   10      0.37      0.00
    1   20   10      0.02      0.00
    2   20   10      0.32      0.00
    3   20   10     -0.29      0.00
   -1   21   10      0.58      0.00
    0   21   10      0.70      0.00
    1   21   10      0.70      0.00
    2   21   10      0.33      0.00
    3   21   10      0.20      0.00
    0   22   10      1.20      0.00
    1   22   10     -1.05      0.00
    2   22   10     -0.14      0.00
    3   22   10      0.05      0.00
    0  -15   11     -0.65      0.00
    1  -15   11      0.55      0.00
    2  -15   11     -1.60      0.00
    3  -15   11      0.41      0.00
   -3  -14   11      1.11      0.00
   -2  -14   11     -0.38      0.00
   -1  -14   11      0.02      0.00
    0  -14   11     -1.29      0.00
    1  -14   11      1.74      0.00
    2  -14   11      0.48      0.00
    3  -14   11     -0.14      0.00
    4  -14   11      0.78      0.00
    5  -14   11     -0.77      0.00
    6  -14   11      0.69      0.00
   -4  -13   11      0.29      0.00
   -3  -13   11     -1.33      0.00
   -2  -13   11     -0.10      0.00
   -1  -13   11      0.89      0.00
    0  -13   11      1.88      0.00
    1  -13   11     -1.13      0.00
    2  -13   11      0.45      0.00
    3  -13   11     -0.32      0.00
    4  -13   11      0.58      0.00
    5  -13   11     -0.25      0.00
    6  -13   11     -0.16      0.00
    7  -13   11     -0.19      0.00
    8  -13   11     -0.40      0.00
   -5  -12   11      0.01      0.00
   -4  -12   11     -0.61      0.00
   -3  -12   11      0.13      0.00
   -2  -12   11      0.15      0.00
   -1  -12   11     -1.08      0.00
    0  -12   11     -0.56      0.00
    1  -12   11      0.71      0.00
    2  -12   11      0.37      0.00
    3  -12   11     -0.39      0.00
    4  -12   11     -1.19      0.00
    5  -12   11      1.76      0.00
    6  -12   11     -0.82      0.00
    7  -12   11      0.58      0.00
    8  -12   11     -0.67      0.00
    9  -12   11      0.48      0.00
   -6  -11   11     -0.99      0.00
   -5  -11   11      1.88      0.00
   -4  -11   11      0.04      0.00
   -3  -11   11     -0.71      0.00
   -2  -11   11      0.41      0.00
   -1  -11   11     -1.26      0.00
    0  -11   11      0.57      0.00
    1  -11   11     -1.97      0.00
    2  -11   11      0.80      0.00
    3  -11   11      0.26      0.00
    4  -11   11      0.32      0.00
    5  -11   11     -0.13      0.00
    6  -11   11      0.05      0.00
    7  -11   11     -0.32      0.00
    8  -11   11      0.06      0.00
    9  -11   11     -0.65      0.00
   10  -11   11      1.28      0.00
   -7  -10   11      0.41      0.00
   -6  -10   11     -0.39      0.00
   -5  -10   11     -1.64      0.00
   -4  -10   11      0.56      0.00
   -3  -10   11      1.62      0.00
   -2  -10   11     -0.16      0.00
   -1  -10   11     -0.18      0.00
    0  -10   11      1.07      0.00
    1  -10   11     -0.46      0.00
    2  -10   11     -1.98      0.00
    3  -10   11      0.54      0.00
    4  -10   11     -0.36      0.00
    5  -10   11     -1.80      0.00
    6  -10   11      0.11      0.00
    7  -10   11      0.80      0.00
    8  -10   11      0.27      0.00
    9  -10   11     -0.21      0.00
   10  -10   11      2.08      0.00
   11  -10   11      0.91      0.00
   -7   -9   11     -2.28      0.00
   -6   -9   11      0.63      0.00
   -5   -9   11      0.72      0.00
   -4   -9   11     -1.31      0.00
   -3   -9   11      0.47      0.00
   -2   -9   11     -0.79      0.00
   -1   -9   11      0.16      0.00
    0   -9   11      0.24      0.00
    1   -9   11      1.70      0.00
    2   -9   11      0.58      0.00
    3   -9   11      0.95      0.00
    4   -9   11      0.16      0.00
    5   -9   11      0.17      0.00
    6   -9   11     -1.31      0.00
    7   -9   11     -0.21      0.00
    8   -9   11     -1.65      0.00
    9   -9   11      0.30      0.00
   10   -9   11     -3.00      0.00
   12   -9   11     -2.29      0.00
   -7   -8   11     -0.48      0.00
   -6   -8   11      0.88      0.00
   -5   -8   11     -0.22      0.00
   -4   -8   11      0.32      0.00
   -3   -8   11     -0.54      0.00
   -2   -8   11      1.21      0.00
   -1   -8   11      1.30      0.00
    0   -8   11     -0.44      0.00
    1   -8   11     -0.37      0.00
    2   -8   11     -0.07      0.00
    3   -8   11     -0.53      0.00
    4   -8   11      1.10      0.00
    5   -8   11      2.02      0.00
    6   -8   11      1.17      0.00
    7   -8   11     -0.30      0.00
    8   -8   11      1.58      0.00
    9   -8   11      1.68      0.00
   11   -8   11      0.20      0.00
   12   -8   11      0.40      0.00
   -6   -7   11      0.36      0.00
   -5   -7   11     -0.55      0.00
   -4   -7   11      1.28      0.00
   -3   -7   11     -1.43      0.00
   -2   -7   11     -1.57      0.00
   -1   -7   11     -1.12      0.00
    0   -7   11     -2.16      0.00
    1   -7   11     -0.37      0.00
    2   -7   11     -0.62      0.00
    3   -7   11     -1.32      0.00
    4   -7   11     -0.85      0.00
    5   -7   11     -0.77      0.00
    6   -7   11     -0.81      0.00
    7   -7   11      1.79      0.00
    8   -7   11      0.86      0.00
    9   -7   11     -0.67      0.00
   10   -7   11      0.80      0.00
   11   -7   11     -0.20      0.00
   12   -7   11      0.62      0.00
   13   -7   11      1.16      0.00
   -6   -6   11     -1.03      0.00
   -5   -6   11      0.16      0.00
   -4   -6   11     -1.11      0.00
   -3   -6   11      2.72      0.00
   -2   -6   11      0.86      0.00
   -1   -6   11      2.47      0.00
    0   -6   11      1.03      0.00
    1   -6   11      0.68      0.00
    2   -6   11      0.80      0.00
    3   -6   11      0.24      0.00
    4   -6   11     -1.10      0.00
    5   -6   11      2.34      0.00
    6   -6   11     -1.11      0.00
    7   -6   11     -2.07      0.00
    8   -6   11     -0.12      0.00
    9   -6   11     -1.15      0.00
   10   -6   11     -0.18      0.00
   11   -6   11     -0.19      0.00
   12   -6   11     -0.58      0.00
   13   -6   11     -2.04      0.00
   -6   -5   11     -0.66      0.00
   -5   -5   11     -1.09      0.00
   -4   -5   11     -0.20      0.00
   -3   -5   11     -2.25      0.00
   -2   -5   11      0.32      0.00
   -1   -5   11      0.96      0.00
    0   -5   11      1.28      0.00
    1   -5   11      1.26      0.00
    2   -5   11      0.72      0.00
    3   -5   11      1.45      0.00
    4   -5   11     -1.05      0.00
    5   -5   11     -2.78      0.00
    6   -5   11      1.39      0.00
    7   -5   11     -0.32      0.00
    8   -5   11     -0.72      0.00
    9   -5   11      0.30      0.00
   10   -5   11      0.27      0.00
   11   -5   11      1.10      0.00
   12   -5   11      0.67      0.00
   13   -5   11      0.08      0.00
   14   -5   11      0.00      0.00
   -6   -4   11      0.68      0.00
   -5   -4   11      2.10      0.00
   -4   -4   11      2.42      0.00
   -3   -4   11     -0.20      0.00
   -2   -4   11     -3.18      0.00
   -1   -4   11     -3.69      0.00
    0   -4   11     -3.09      0.00
    1   -4   11     -2.95      0.00
    2   -4   11     -1.64      0.00
    3   -4   11      0.69      0.00
    4   -4   11      3.99      0.00
    5   -4   11      0.39      0.00
    6   -4   11      1.14      0.00
    7   -4   11      0.70      0.00
    8   -4   11     -0.10      0.00
    9   -4   11     -0.13      0.00
   10   -4   11     -0.02      0.00
   11   -4   11     -0.86      0.00
   12   -4   11      1.92      0.00
   13   -4   11      2.14      0.00
   14   -4   11      0.32      0.00
   -7   -3   11      0.58      0.00
   -6   -3   11      0.88      0.00
   -5   -3   11     -2.52      0.00
   -4   -3   11     -0.44      0.00
   -3   -3   11      1.69      0.00
   -2   -3   11      3.63      0.00
   -1   -3   11      0.24      0.00
    0   -3   11      1.13      0.00
    1   -3   11     -0.92      0.00
    2   -3   11     -0.52      0.00
    3   -3   11     -0.91      0.00
    4   -3   11     -2.17      0.00
    5   -3   11     -2.93      0.00
    6   -3   11     -1.71      0.00
    7   -3   11     -0.34      0.00
    8   -3   11     -0.27      0.00
    9   -3   11     -0.92      0.00
   10   -3   11     -1.42      0.00
   11   -3   11     -2.05      0.00
   12   -3   11     -1.53      0.00
   13   -3   11     -1.93      0.00
   14   -3   11     -0.65      0.00
  -10   -2   11      0.08      0.00
   -9   -2   11     -1.75      0.00
   -8   -2   11     -1.11      0.00
   -7   -2   11      1.26      0.00
   -6   -2   11      0.44      0.00
   -5   -2   11      0.00      0.00
   -4   -2   11      0.23      0.00
   -3   -2   11     -2.43      0.00
   -2   -2   11      0.82      0.00
   -1   -2   11      0.95      0.00
    0   -2   11      3.88      0.00
    1   -2   11      5.33      0.00
    2   -2   11      1.00      0.00
    3   -2   11      0.97      0.00
    4   -2   11      0.55      0.00
    5   -2   11      4.68      0.00
    6   -2   11      1.94      0.00
    7   -2   11      2.08      0.00
    8   -2   11      1.24      0.00
    9   -2   11      0.87      0.00
   10   -2   11      1.23      0.00
   11   -2   11      1.66      0.00
   12   -2   11     -0.51      0.00
   13   -2   11     -0.15      0.00
   14   -2   11      0.32      0.00
   15   -2   11     -0.04      0.00
  -10   -1   11     -0.56      0.00
   -9   -1   11     -1.02      0.00
   -8   -1   11      2.12      0.00
   -7   -1   11     -0.72      0.00
   -6   -1   11     -0.25      0.00
   -5   -1   11      0.64      0.00
   -4   -1   11     -2.25      0.00
   -3   -1   11      0.08      0.00
   -2   -1   11     -3.33      0.00
   -1   -1   11      0.86      0.00
    0   -1   11     -5.01      0.00
    1   -1   11     -0.78      0.00
    3   -1   11     -4.18      0.00
    4   -1   11     -1.69      0.00
    5   -1   11     -4.28      0.00
    6   -1   11      1.35      0.00
    7   -1   11     -3.06      0.00
    8   -1   11      0.77      0.00
    9   -1   11      1.05      0.00
   10   -1   11      0.60      0.00
   11   -1   11      2.27      0.00
   12   -1   11      0.77      0.00
   13   -1   11      0.58      0.00
   14   -1   11      0.20      0.00
   15   -1   11      0.64      0.00
  -11    0   11      0.98      0.00
  -10    0   11      0.16      0.00
   -9    0   11      0.78      0.00
   -8    0   11      1.04      0.00
   -7    0   11     -2.14      0.00
   -6    0   11     -0.37      0.00
   -5    0   11      1.20      0.00
   -4    0   11      0.99      0.00
   -3    0   11      1.17      0.00
   -2    0   11      3.44      0.00
   -1    0   11     -1.68      0.00
    0    0   11      1.47      0.00
    1    0   11     -4.21      0.00
    2    0   11      3.28      0.00
    3    0   11      3.62      0.00
    4    0   11      3.54      0.00
    5    0   11      1.61      0.00
    6    0   11     -3.36      0.00
    7    0   11      0.53      0.00
    8    0   11     -2.44      0.00
    9    0   11     -1.44      0.00
   10    0   11     -1.49      0.00
   11    0   11     -1.78      0.00
   12    0   11     -1.25      0.00
   13    0   11      0.71      0.00
   14    0   11     -1.13      0.00
   15    0   11     -0.19      0.00
  -11    1   11     -1.25      0.00
  -10    1   11      0.33      0.00
   -9    1   11      1.32      0.00
   -8    1   11     -1.12      0.00
   -6    1   11     -0.84      0.00
   -5    1   11     -0.54      0.00
   -4    1   11      0.83      0.00
   -3    1   11      0.87      0.00
   -2    1   11      0.14      0.00
   -1    1   11     -0.69      0.00
    0    1   11      0.08      0.00
    1    1   11      1.30      0.00
    2    1   11     -2.28      0.00
    3    1   11     -2.39      0.00
    4    1   11     -3.62      0.00
    5    1   11      2.91      0.00
    6    1   11      2.55      0.00
    7    1   11      1.38      0.00
    8    1   11      0.31      0.00
    9    1   11      1.45      0.00
   10    1   11      1.69      0.00
   11    1   11      0.40      0.00
   12    1   11      0.58      0.00
   13    1   11     -0.34      0.00
   14    1   11      0.42      0.00
   15    1   11      0.10      0.00
  -11    2   11      0.78      0.00
  -10    2   11     -0.98      0.00
   -9    2   11      0.55      0.00
   -8    2   11     -0.08      0.00
   -7    2   11      0.39      0.00
   -6    2   11     -1.14      0.00
   -5    2   11     -0.06      0.00
   -4    2   11     -2.15      0.00
   -3    2   11     -2.07      0.00
   -2    2   11     -2.45      0.00
   -1    2   11      0.87      0.00
    0    2   11      1.23      0.00
    1    2   11      0.34      0.00
    2    2   11      2.03      0.00
    3    2   11      0.69      0.00
    4    2   11     -0.14      0.00
    5    2   11     -2.95      0.00
    6    2   11     -2.10      0.00
    7    2   11     -1.09      0.00
    8    2   11     -1.72      0.00
    9    2   11     -1.68      0.00
   10    2   11     -1.60      0.00
   11    2   11     -0.45      0.00
   12    2   11     -0.85      0.00
   13    2   11      0.17      0.00
   14    2   11      0.66      0.00
   15    2   11      0.38      0.00
  -11    3   11     -0.30      0.00
  -10    3   11      1.40      0.00
   -9    3   11     -2.16      0.00
   -8    3   11     -0.23      0.00
   -7    3   11      0.43      0.00
   -6    3   11      1.01      0.00
   -5    3   11      1.89      0.00
   -4    3   11      0.57      0.00
   -3    3   11      0.60      0.00
   -2    3   11      1.98      0.00
   -1    3   11      1.49      0.00
    0    3   11      4.74      0.00
    1    3   11      0.65      0.00
    2    3   11     -2.23      0.00
    3    3   11      0.04      0.00
    4    3   11      1.26      0.00
    5    3   11      0.58      0.00
    6    3   11     -1.29      0.00
    7    3   11      0.48      0.00
    8    3   11      1.81      0.00
    9    3   11      3.03      0.00
   10    3   11      1.84      0.00
   11    3   11      0.24      0.00
   12    3   11      0.75      0.00
   13    3   11     -0.94      0.00
   14    3   11     -0.36      0.00
   15    3   11     -1.42      0.00
  -11    4   11     -1.57      0.00
  -10    4   11     -0.56      0.00
   -9    4   11      0.51      0.00
   -8    4   11     -0.80      0.00
   -7    4   11      0.76      0.00
   -6    4   11      1.35      0.00
   -5    4   11     -1.30      0.00
   -4    4   11      1.80      0.00
   -3    4   11      2.24      0.00
   -2    4   11     -1.62      0.00
   -1    4   11     -2.29      0.00
    0    4   11     -8.92      0.00
    1    4   11     -3.96      0.00
    2    4   11     -0.69      0.00
    3    4   11      1.13      0.00
    4    4   11      2.12      0.00
    5    4   11      1.03      0.00
    6    4   11      3.09      0.00
    7    4   11      0.67      0.00
    8    4   11      1.37      0.00
    9    4   11     -2.50      0.00
   10    4   11     -1.20      0.00
   11    4   11     -1.41      0.00
   12    4   11      0.82      0.00
   13    4   11      0.90      0.00
   14    4   11      1.08      0.00
   15    4   11      0.66      0.00
  -11    5   11      1.21      0.00
  -10    5   11      0.10      0.00
   -9    5   11      2.08      0.00
   -8    5   11     -0.33      0.00
   -7    5   11     -0.70      0.00
   -6    5   11     -0.94      0.00
   -5    5   11     -1.02      0.00
   -4    5   11     -1.08      0.00
   -3    5   11     -1.51      0.00
   -2    5   11     -0.77      0.00
   -1    5   11      3.58      0.00
    0    5   11      2.65      0.00
    1    5   11      2.00      0.00
    2    5   11     -1.75      0.00
    3    5   11      0.36      0.00
    4    5   11     -3.92      0.00
    5    5   11      3.73      0.00
    6    5   11     -2.04      0.00
    7    5   11     -0.31      0.00
    8    5   11      1.91      0.00
    9    5   11      0.72      0.00
   10    5   11      1.97      0.00
   11    5   11      0.64      0.00
   12    5   11     -1.75      0.00
   13    5   11     -1.02      0.00
   14    5   11     -0.67      0.00
   15    5   11      1.16      0.00
  -11    6   11      0.55      0.00
  -10    6   11     -0.08      0.00
   -9    6   11     -1.88      0.00
   -8    6   11     -0.04      0.00
   -7    6   11      0.23      0.00
   -6    6   11      0.86      0.00
   -5    6   11      0.19      0.00
   -4    6   11     -0.53      0.00
   -3    6   11     -1.36      0.00
   -2    6   11      0.41      0.00
   -1    6   11     -3.49      0.00
    0    6   11      2.94      0.00
    1    6   11      2.77      0.00
    2    6   11      3.88      0.00
    3    6   11     -1.06      0.00
    4    6   11      2.83      0.00
    6    6   11     -3.26      0.00
    7    6   11     -2.36      0.00
    8    6   11     -6.09      0.00
    9    6   11     -3.19      0.00
   10    6   11     -2.55      0.00
   11    6   11      0.28      0.00
   12    6   11      1.51      0.00
   13    6   11      0.10      0.00
   14    6   11     -0.77      0.00
   15    6   11     -0.63      0.00
  -10    7   11     -0.07      0.00
   -9    7   11      0.90      0.00
   -8    7   11      1.38      0.00
   -7    7   11     -1.31      0.00
   -6    7   11     -1.58      0.00
   -5    7   11     -0.24      0.00
   -4    7   11      0.53      0.00
   -3    7   11      1.02      0.00
   -2    7   11      1.73      0.00
   -1    7   11      1.04      0.00
    0    7   11     -1.63      0.00
    1    7   11     -1.49      0.00
    2    7   11      0.91      0.00
    3    7   11     -0.70      0.00
    4    7   11      2.72      0.00
    6    7   11      7.01      0.00
    7    7   11      6.77      0.00
    8    7   11      6.66      0.00
    9    7   11      4.37      0.00
   10    7   11     -0.36      0.00
   11    7   11      0.65      0.00
   12    7   11      0.83      0.00
   13    7   11      0.89      0.00
   14    7   11      0.70      0.00
   15    7   11     -0.48      0.00
  -10    8   11     -0.16      0.00
   -9    8   11     -0.45      0.00
   -8    8   11     -0.75      0.00
   -7    8   11      1.00      0.00
   -6    8   11      0.41      0.00
   -5    8   11      0.78      0.00
   -4    8   11      1.04      0.00
   -3    8   11     -0.46      0.00
   -2    8   11     -0.80      0.00
   -1    8   11     -1.21      0.00
    0    8   11      1.38      0.00
    1    8   11     -0.02      0.00
    2    8   11     -3.79      0.00
    3    8   11      0.37      0.00
    4    8   11     -6.63      0.00
    5    8   11     -3.17      0.00
    6    8   11     -7.15      0.00
    7    8   11     -7.92      0.00
    8    8   11     -5.59      0.00
    9    8   11     -1.26      0.00
   10    8   11      0.70      0.00
   12    8   11     -1.50      0.00
   13    8   11      0.69      0.00
   14    8   11     -0.21      0.00
   15    8   11      0.48      0.00
  -10    9   11      0.53      0.00
   -9    9   11     -0.74      0.00
   -8    9   11      0.08      0.00
   -7    9   11      1.81      0.00
   -6    9   11      1.10      0.00
   -5    9   11      0.44      0.00
   -4    9   11      0.69      0.00
   -3    9   11      1.42      0.00
   -2    9   11      1.05      0.00
   -1    9   11      0.30      0.00
    0    9   11     -2.91      0.00
    1    9   11     -0.81      0.00
    2    9   11      2.65      0.00
    3    9   11     -1.49      0.00
    4    9   11      4.79      0.00
    5    9   11      3.29      0.00
    6    9   11      8.93      0.00
    7    9   11      6.51      0.00
    8    9   11      1.79      0.00
    9    9   11     -1.70      0.00
   10    9   11      0.78      0.00
   11    9   11     -0.50      0.00
   12    9   11      0.26      0.00
   13    9   11     -1.00      0.00
   14    9   11     -0.89      0.00
   15    9   11     -0.12      0.00
  -10   10   11     -0.14      0.00
   -9   10   11     -0.04      0.00
   -8   10   11      0.35      0.00
   -7   10   11     -2.37      0.00
   -6   10   11     -0.72      0.00
   -5   10   11     -2.29      0.00
   -4   10   11     -4.49      0.00
   -3   10   11     -1.33      0.00
   -2   10   11     -3.20      0.00
   -1   10   11      3.09      0.00
    0   10   11     -1.06      0.00
    1   10   11      2.60      0.00
    2   10   11      1.54      0.00
    3   10   11      4.12      0.00
    4   10   11     -2.58      0.00
    5   10   11     -3.77      0.00
    6   10   11     -9.09      0.00
    7   10   11     -3.94      0.00
    8   10   11      1.03      0.00
    9   10   11      2.29      0.00
   10   10   11      0.99      0.00
   11   10   11      0.60      0.00
   12   10   11     -0.23      0.00
   13   10   11     -0.47      0.00
   14   10   11      0.38      0.00
   15   10   11      0.33      0.00
  -10   11   11     -0.28      0.00
   -9   11   11     -0.36      0.00
   -8   11   11      1.27      0.00
   -7   11   11      0.01      0.00
   -6   11   11     -0.51      0.00
   -5   11   11      1.84      0.00
   -4   11   11      1.76      0.00
   -3   11   11      2.15      0.00
   -2   11   11      2.51      0.00
   -1   11   11     -0.79      0.00
    0   11   11      2.47      0.00
    1   11   11     -0.97      0.00
    2   11   11     -4.09      0.00
    3   11   11     -0.45      0.00
    4   11   11      1.22      0.00
    5   11   11      6.50      0.00
    6   11   11      5.82      0.00
    7   11   11     -1.15      0.00
    8   11   11     -3.10      0.00
    9   11   11     -1.18      0.00
   10   11   11     -0.65      0.00
   11   11   11     -0.42      0.00
   12   11   11      0.52      0.00
   13   11   11      1.51      0.00
   14   11   11      0.46      0.00
   -9   12   11      0.14      0.00
   -8   12   11     -1.15      0.00
   -7   12   11      0.35      0.00
   -6   12   11     -0.42      0.00
   -5   12   11      1.87      0.00
   -4   12   11      1.92      0.00
   -3   12   11      1.03      0.00
   -2   12   11     -0.46      0.00
   -1   12   11     -1.85      0.00
    0   12   11      0.05      0.00
    1   12   11     -1.16      0.00
    2   12   11     -1.71      0.00
    3   12   11     -6.46      0.00
    4   12   11     -1.86      0.00
    5   12   11     -9.80      0.00
    6   12   11      1.10      0.00
    7   12   11      3.18      0.00
    8   12   11      3.52      0.00
    9   12   11     -0.06      0.00
   10   12   11     -0.69      0.00
   11   12   11      0.36      0.00
   12   12   11      0.19      0.00
   13   12   11     -1.48      0.00
   14   12   11     -0.36      0.00
   -9   13   11      1.53      0.00
   -8   13   11      0.25      0.00
   -7   13   11      1.04      0.00
   -6   13   11      0.67      0.00
   -5   13   11     -2.32      0.00
   -4   13   11     -1.35      0.00
   -3   13   11     -4.00      0.00
   -2   13   11     -0.96      0.00
   -1   13   11     -0.88      0.00
    0   13   11     -0.90      0.00
    1   13   11      1.47      0.00
    2   13   11      3.77      0.00
    3   13   11      5.89      0.00
    4   13   11      6.39      0.00
    5   13   11      6.53      0.00
    6   13   11     -2.89      0.00
    7   13   11     -0.02      0.00
    8   13   11     -2.01      0.00
    9   13   11      2.74      0.00
   10   13   11     -0.66      0.00
   11   13   11      0.32      0.00
   12   13   11     -0.51      0.00
   13   13   11      0.03      0.00
   14   13   11      1.12      0.00
   -8   14   11     -0.66      0.00
   -7   14   11     -2.01      0.00
   -6   14   11      0.19      0.00
   -5   14   11      0.75      0.00
   -4   14   11      0.58      0.00
   -3   14   11     -0.50      0.00
   -2   14   11      1.27      0.00
   -1   14   11      1.32      0.00
    0   14   11      0.48      0.00
    1   14   11     -1.63      0.00
    2   14   11      0.83      0.00
    3   14   11     -1.87      0.00
    4   14   11     -4.07      0.00
    5   14   11     -0.28      0.00
    6   14   11     -0.50      0.00
    7   14   11     -0.53      0.00
    8   14   11     -0.08      0.00
    9   14   11     -2.64      0.00
   10   14   11      0.29      0.00
   11   14   11      0.08      0.00
   12   14   11      0.22      0.00
   13   14   11      0.06      0.00
   -8   15   11      0.91      0.00
   -7   15   11      0.05      0.00
   -6   15   11      2.23      0.00
   -5   15   11     -0.65      0.00
   -4   15   11      0.36      0.00
   -3   15   11      1.13      0.00
   -2   15   11      0.33      0.00
   -1   15   11      1.63      0.00
    0   15   11     -0.19      0.00
    1   15   11      0.12      0.00
    2   15   11     -2.61      0.00
    3   15   11     -0.46      0.00
    4   15   11      0.75      0.00
    5   15   11     -0.66      0.00
    6   15   11      0.55      0.00
    7   15   11     -2.61      0.00
    8   15   11      1.50      0.00
    9   15   11      0.26      0.00
   10   15   11     -0.11      0.00
   11   15   11     -0.49      0.00
   12   15   11     -0.14      0.00
   13   15   11     -0.53      0.00
   -7   16   11      0.46      0.00
   -6   16   11     -2.93      0.00
   -5   16   11     -0.81      0.00
   -4   16   11      0.15      0.00
   -3   16   11      1.43      0.00
   -2   16   11     -1.03      0.00
   -1   16   11     -1.45      0.00
    0   16   11      2.65      0.00
    1   16   11      1.41      0.00
    2   16   11      0.75      0.00
    3   16   11      1.54      0.00
    4   16   11     -3.01      0.00
    5   16   11      0.86      0.00
    6   16   11      0.37      0.00
    7   16   11      2.29      0.00
    8   16   11     -0.29      0.00
    9   16   11     -0.14      0.00
   10   16   11     -0.14      0.00
   11   16   11     -0.19      0.00
   12   16   11      0.97      0.00
   -6   17   11      0.32      0.00
   -5   17   11      1.69      0.00
   -4   17   11     -1.57      0.00
   -3   17   11      0.09      0.00
   -2   17   11     -0.69      0.00
   -1   17   11     -1.29      0.00
    0   17   11     -2.63      0.00
    1   17   11     -1.23      0.00
    2   17   11      1.26      0.00
    3   17   11     -0.14      0.00
    4   17   11      2.21      0.00
    5   17   11     -1.76      0.00
    6   17   11      0.04      0.00
    7   17   11     -2.09      0.00
    8   17   11      0.49      0.00
    9   17   11      0.22      0.00
   10   17   11      0.26      0.00
   11   17   11      0.51      0.00
   -6   18   11      0.92      0.00
   -5   18   11     -0.32      0.00
   -4   18   11      0.40      0.00
   -3   18   11     -0.45      0.00
   -2   18   11      1.04      0.00
   -1   18   11      2.57      0.00
    0   18   11     -0.16      0.00
    1   18   11      0.62      0.00
    2   18   11     -0.35      0.00
    3   18   11     -0.52      0.00
    4   18   11     -0.35      0.00
    5   18   11      0.51      0.00
    6   18   11      0.16      0.00
    7   18   11      1.59      0.00
    8   18   11     -0.05      0.00
    9   18   11      1.14      0.00
   10   18   11     -0.16      0.00
   11   18   11      0.83      0.00
   -5   19   11     -0.93      0.00
   -4   19   11      0.57      0.00
   -3   19   11     -0.18      0.00
   -2   19   11     -1.13      0.00
   -1   19   11     -1.34      0.00
    0   19   11     -1.78      0.00
    6   19   11     -1.03      0.00
    7   19   11      0.18      0.00
    8   19   11     -1.78      0.00
    9   19   11     -1.05      0.00
   10   19   11     -0.27      0.00
   -3   20   11      0.77      0.00
   -2   20   11      1.01      0.00
   -1   20   11      1.45      0.00
   -2   21   11      0.57      0.00
   -1   21   11     -1.94      0.00
    3   21   11     -0.44      0.00
    3   22   11      0.64      0.00
    0  -14   12     -0.22      0.00
    1  -14   12      0.90      0.00
    2  -14   12     -0.27      0.00
    3  -14   12     -0.33      0.00
    4  -14   12      0.32      0.00
   -3  -13   12     -0.58      0.00
   -2  -13   12      0.81      0.00
   -1  -13   12     -0.73      0.00
    0  -13   12      1.21      0.00
    1  -13   12     -1.00      0.00
    2  -13   12      1.83      0.00
    3  -13   12     -0.17      0.00
    4  -13   12     -0.05      0.00
    5  -13   12     -0.46      0.00
    6  -13   12     -1.49      0.00
    7  -13   12      0.10      0.00
   -4  -12   12      0.27      0.00
   -3  -12   12     -1.18      0.00
   -2  -12   12      0.33      0.00
   -1  -12   12     -1.19      0.00
    0  -12   12      0.94      0.00
    1  -12   12     -0.12      0.00
    2  -12   12     -0.07      0.00
    3  -12   12     -0.17      0.00
    4  -12   12      0.00      0.00
    5  -12   12      1.72      0.00
    6  -12   12     -0.80      0.00
    7  -12   12     -0.86      0.00
    8  -12   12     -1.22      0.00
   -5  -11   12      0.37      0.00
   -4  -11   12     -0.86      0.00
   -3  -11   12      2.39      0.00
   -2  -11   12      0.36      0.00
   -1  -11   12     -0.39      0.00
    0  -11   12     -1.30      0.00
    1  -11   12     -0.20      0.00
    2  -11   12     -0.76      0.00
    3  -11   12      0.66      0.00
    4  -11   12     -1.08      0.00
    5  -11   12      0.51      0.00
    6  -11   12      0.63      0.00
    7  -11   12      1.70      0.00
    8  -11   12      1.20      0.00
    9  -11   12      0.23      0.00
   -5  -10   12     -0.06      0.00
   -4  -10   12      0.63      0.00
   -3  -10   12     -0.48      0.00
   -2  -10   12     -1.70      0.00
   -1  -10   12      1.65      0.00
    0  -10   12      0.27      0.00
    1  -10   12     -1.72      0.00
    2  -10   12     -1.76      0.00
    3  -10   12      1.47      0.00
    4  -10   12     -0.08      0.00
    5  -10   12     -2.11      0.00
    6  -10   12      0.26      0.00
    7  -10   12     -0.25      0.00
    8  -10   12     -0.02      0.00
    9  -10   12     -0.35      0.00
   10  -10   12      0.59      0.00
   -6   -9   12      1.02      0.00
   -5   -9   12     -1.44      0.00
   -4   -9   12     -0.87      0.00
   -3   -9   12     -0.15      0.00
   -2   -9   12      0.77      0.00
   -1   -9   12      0.79      0.00
    0   -9   12      0.99      0.00
    1   -9   12      3.33      0.00
    2   -9   12      0.49      0.00
    3   -9   12     -1.26      0.00
    4   -9   12      0.86      0.00
    5   -9   12      0.19      0.00
    6   -9   12     -0.62      0.00
    7   -9   12     -1.05      0.00
    8   -9   12     -0.90      0.00
    9   -9   12      1.54      0.00
   10   -9   12     -1.72      0.00
   11   -9   12      0.26      0.00
   -6   -8   12      0.61      0.00
   -5   -8   12      1.24      0.00
   -4   -8   12      1.36      0.00
   -3   -8   12     -0.44      0.00
   -2   -8   12     -0.15      0.00
   -1   -8   12     -0.50      0.00
    0   -8   12     -2.62      0.00
    1   -8   12     -0.31      0.00
    2   -8   12      1.99      0.00
    3   -8   12     -0.02      0.00
    4   -8   12      0.46      0.00
    5   -8   12      1.71      0.00
    6   -8   12     -0.45      0.00
    7   -8   12      0.75      0.00
    8   -8   12      2.13      0.00
    9   -8   12      0.28      0.00
   11   -8   12     -0.24      0.00
   12   -8   12      0.56      0.00
   -6   -7   12     -0.95      0.00
   -5   -7   12     -1.04      0.00
   -4   -7   12      0.21      0.00
   -3   -7   12     -0.74      0.00
   -2   -7   12      0.04      0.00
   -1   -7   12      1.11      0.00
    0   -7   12      0.03      0.00
    1   -7   12     -2.20      0.00
    2   -7   12     -1.80      0.00
    3   -7   12     -0.33      0.00
    4   -7   12     -0.34      0.00
    5   -7   12     -0.42      0.00
    6   -7   12      1.82      0.00
    7   -7   12     -0.50      0.00
    8   -7   12     -0.39      0.00
   10   -7   12      0.72      0.00
   11   -7   12     -0.15      0.00
   12   -7   12      1.62      0.00
   -6   -6   12     -1.17      0.00
   -5   -6   12     -0.14      0.00
   -4   -6   12     -0.64      0.00
   -3   -6   12      0.90      0.00
   -2   -6   12     -0.98      0.00
   -1   -6   12     -0.45      0.00
    0   -6   12      1.55      0.00
    1   -6   12      1.86      0.00
    2   -6   12      1.58      0.00
    3   -6   12     -0.45      0.00
    4   -6   12     -0.49      0.00
    5   -6   12     -2.35      0.00
    6   -6   12     -1.60      0.00
    7   -6   12     -0.80      0.00
    8   -6   12     -1.18      0.00
    9   -6   12     -1.08      0.00
   10   -6   12     -1.96      0.00
   11   -6   12     -1.03      0.00
   12   -6   12     -0.92      0.00
   13   -6   12     -2.50      0.00
   -6   -5   12      1.64      0.00
   -5   -5   12     -0.15      0.00
   -4   -5   12      0.89      0.00
   -3   -5   12      0.56      0.00
   -2   -5   12      1.64      0.00
   -1   -5   12     -0.03      0.00
    0   -5   12     -0.99      0.00
    1   -5   12     -0.11      0.00
    2   -5   12      0.15      0.00
    3   -5   12      0.86      0.00
    4   -5   12      1.02      0.00
    5   -5   12      1.84      0.00
    6   -5   12      3.29      0.00
    7   -5   12      0.53      0.00
    8   -5   12      1.02      0.00
    9   -5   12      1.99      0.00
   10   -5   12      1.68      0.00
   11   -5   12      1.98      0.00
   12   -5   12      1.31      0.00
   13   -5   12      0.22      0.00
   -7   -4   12     -0.14      0.00
   -6   -4   12      0.53      0.00
   -5   -4   12      0.03      0.00
   -4   -4   12      0.24      0.00
   -3   -4   12     -3.21      0.00
   -2   -4   12     -0.04      0.00
   -1   -4   12     -2.19      0.00
    0   -4   12      0.89      0.00
    1   -4   12     -3.47      0.00
    2   -4   12     -1.80      0.00
    3   -4   12      0.28      0.00
    4   -4   12      0.21      0.00
    5   -4   12     -2.90      0.00
    6   -4   12     -2.98      0.00
    7   -4   12      0.74      0.00
    8   -4   12     -1.37      0.00
    9   -4   12     -1.38      0.00
   10   -4   12     -1.19      0.00
   11   -4   12     -1.28      0.00
   12   -4   12      0.45      0.00
   13   -4   12      1.40      0.00
   14   -4   12     -0.95      0.00
   -7   -3   12     -1.29      0.00
   -6   -3   12     -1.34      0.00
   -5   -3   12      0.70      0.00
   -4   -3   12      1.74      0.00
   -3   -3   12      2.60      0.00
   -2   -3   12     -0.37      0.00
   -1   -3   12     -0.32      0.00
    0   -3   12      0.41      0.00
    1   -3   12      2.95      0.00
    2   -3   12     -0.20      0.00
    3   -3   12     -0.56      0.00
    4   -3   12      0.51      0.00
    5   -3   12      2.68      0.00
    6   -3   12      1.51      0.00
    7   -3   12     -0.67      0.00
    8   -3   12      2.13      0.00
    9   -3   12     -0.02      0.00
   10   -3   12     -0.03      0.00
   11   -3   12     -1.25      0.00
   12   -3   12     -1.64      0.00
   13   -3   12      0.02      0.00
   14   -3   12     -0.24      0.00
  -10   -2   12     -0.44      0.00
   -9   -2   12     -1.15      0.00
   -8   -2   12      1.78      0.00
   -7   -2   12      3.57      0.00
   -6   -2   12      0.20      0.00
   -4   -2   12     -4.27      0.00
   -3   -2   12      0.34      0.00
   -2   -2   12      0.91      0.00
   -1   -2   12      1.88      0.00
    0   -2   12      0.17      0.00
    1   -2   12      2.59      0.00
    2   -2   12      2.93      0.00
    3   -2   12     -2.15      0.00
    4   -2   12     -1.87      0.00
    5   -2   12     -1.35      0.00
    6   -2   12      0.37      0.00
    7   -2   12      0.75      0.00
    8   -2   12     -0.82      0.00
    9   -2   12      2.71      0.00
   10   -2   12      1.62      0.00
   11   -2   12      2.91      0.00
   12   -2   12     -0.98      0.00
   13   -2   12      0.12      0.00
   14   -2   12      0.01      0.00
  -10   -1   12      1.27      0.00
   -9   -1   12      0.36      0.00
   -8   -1   12      1.35      0.00
   -7   -1   12     -1.91      0.00
   -6   -1   12      0.57      0.00
   -5   -1   12      1.08      0.00
   -4   -1   12     -0.11      0.00
   -3   -1   12     -2.22      0.00
   -2   -1   12     -1.18      0.00
   -1   -1   12     -1.01      0.00
    0   -1   12     -0.91      0.00
    1   -1   12     -2.53      0.00
    2   -1   12      1.60      0.00
    3   -1   12      0.44      0.00
    4   -1   12      1.61      0.00
    5   -1   12      1.23      0.00
    6   -1   12     -0.97      0.00
    7   -1   12     -1.90      0.00
    8   -1   12     -2.07      0.00
    9   -1   12     -1.97      0.00
   10   -1   12     -1.08      0.00
   11   -1   12      0.81      0.00
   12   -1   12      0.76      0.00
   13   -1   12     -0.27      0.00
   14   -1   12     -0.13      0.00
   15   -1   12      0.31      0.00
  -10    0   12     -1.36      0.00
   -9    0   12      1.65      0.00
   -8    0   12     -0.04      0.00
   -7    0   12     -3.18      0.00
   -6    0   12      0.41      0.00
   -5    0   12     -0.78      0.00
   -4    0   12      2.44      0.00
   -3    0   12      1.50      0.00
   -2    0   12      2.63      0.00
   -1    0   12     -0.10      0.00
    0    0   12      0.76      0.00
    1    0   12     -4.77      0.00
    2    0   12     -1.72      0.00
    3    0   12     -0.19      0.00
    4    0   12     -1.23      0.00
    5    0   12      0.29      0.00
    6    0   12     -1.14      0.00
    7    0   12      1.40      0.00
    8    0   12      0.15      0.00
    9    0   12     -0.35      0.00
   10    0   12     -0.58      0.00
   11    0   12     -2.27      0.00
   12    0   12     -0.17      0.00
   13    0   12      0.17      0.00
   14    0   12     -0.47      0.00
   15    0   12     -0.59      0.00
  -10    1   12      0.26      0.00
   -9    1   12      0.29      0.00
   -8    1   12     -1.17      0.00
   -7    1   12      3.27      0.00
   -5    1   12      1.18      0.00
   -4    1   12     -0.80      0.00
   -3    1   12      1.68      0.00
   -2    1   12     -2.64      0.00
   -1    1   12      0.13      0.00
    0    1   12      0.02      0.00
    1    1   12      3.94      0.00
    2    1   12     -1.95      0.00
    3    1   12      3.09      0.00
    4    1   12     -0.38      0.00
    5    1   12      2.31      0.00
    6    1   12      1.22      0.00
    7    1   12      2.35      0.00
    8    1   12      0.65      0.00
    9    1   12      1.21      0.00
   10    1   12      0.41      0.00
   11    1   12     -0.48      0.00
   12    1   12     -0.19      0.00
   13    1   12      0.18      0.00
   14    1   12      1.38      0.00
   15    1   12     -0.23      0.00
  -10    2   12     -0.25      0.00
   -9    2   12     -0.28      0.00
   -8    2   12     -1.22      0.00
   -7    2   12      0.16      0.00
   -5    2   12     -0.23      0.00
   -4    2   12     -1.26      0.00
   -3    2   12     -2.47      0.00
   -2    2   12     -1.13      0.00
   -1    2   12      1.38      0.00
    0    2   12     -0.43      0.00
    1    2   12      3.56      0.00
    2    2   12      0.64      0.00
    3    2   12     -1.35      0.00
    4    2   12     -1.85      0.00
    5    2   12     -3.36      0.00
    6    2   12     -1.62      0.00
    7    2   12     -2.60      0.00
    8    2   12     -0.18      0.00
    9    2   12      0.08      0.00
   10    2   12      2.54      0.00
   11    2   12      1.37      0.00
   12    2   12      0.40      0.00
   13    2   12     -0.70      0.00
   14    2   12      0.25      0.00
   15    2   12      0.07      0.00
  -10    3   12     -0.34      0.00
   -9    3   12     -0.42      0.00
   -8    3   12      0.74      0.00
   -7    3   12     -0.78      0.00
   -6    3   12      2.56      0.00
   -5    3   12     -0.01      0.00
   -4    3   12      0.73      0.00
   -3    3   12      1.70      0.00
   -2    3   12      2.93      0.00
   -1    3   12      0.74      0.00
    0    3   12      0.75      0.00
    1    3   12     -4.48      0.00
    2    3   12     -1.84      0.00
    3    3   12      0.80      0.00
    4    3   12      4.01      0.00
    5    3   12      1.23      0.00
    6    3   12     -1.94      0.00
    7    3   12      0.11      0.00
    8    3   12      1.43      0.00
    9    3   12     -1.70      0.00
   10    3   12     -2.72      0.00
   11    3   12     -1.85      0.00
   12    3   12     -0.43      0.00
   13    3   12     -0.14      0.00
   14    3   12     -0.78      0.00
   15    3   12     -0.68      0.00
  -10    4   12      1.18      0.00
   -9    4   12      0.36      0.00
   -8    4   12     -0.99      0.00
   -7    4   12      1.83      0.00
   -6    4   12     -0.89      0.00
   -5    4   12     -0.73      0.00
   -4    4   12      1.22      0.00
   -3    4   12     -0.01      0.00
   -2    4   12     -2.35      0.00
   -1    4   12     -1.30      0.00
    0    4   12     -2.20      0.00
    1    4   12      1.46      0.00
    2    4   12     -0.36      0.00
    3    4   12     -1.77      0.00
    4    4   12     -0.82      0.00
    5    4   12      1.26      0.00
    6    4   12      5.88      0.00
    7    4   12      0.54      0.00
    8    4   12      0.95      0.00
    9    4   12      2.44      0.00
   10    4   12      2.04      0.00
   11    4   12      1.54      0.00
   12    4   12      2.07      0.00
   13    4   12      0.04      0.00
   14    4   12      0.13      0.00
   15    4   12      0.86      0.00
  -10    5   12     -0.55      0.00
   -9    5   12      0.56      0.00
   -8    5   12     -1.02      0.00
   -7    5   12     -0.34      0.00
   -6    5   12     -0.36      0.00
   -5    5   12     -0.50      0.00
   -4    5   12     -0.53      0.00
   -3    5   12     -2.56      0.00
   -2    5   12     -0.15      0.00
   -1    5   12     -0.61      0.00
    0    5   12     -0.81      0.00
    1    5   12     -1.71      0.00
    2    5   12      3.55      0.00
    3    5   12      2.01      0.00
    4    5   12     -1.24      0.00
    5    5   12     -2.23      0.00
    6    5   12     -4.53      0.00
    7    5   12     -0.87      0.00
    8    5   12     -1.80      0.00
    9    5   12     -4.61      0.00
   10    5   12     -2.78      0.00
   11    5   12     -2.48      0.00
   12    5   12     -1.47      0.00
   13    5   12      0.70      0.00
   14    5   12      0.57      0.00
   15    5   12      1.09      0.00
  -10    6   12      0.06      0.00
   -9    6   12     -0.54      0.00
   -8    6   12      2.62      0.00
   -7    6   12     -1.71      0.00
   -6    6   12     -0.32      0.00
   -5    6   12      0.33      0.00
   -4    6   12     -0.35      0.00
   -3    6   12      2.01      0.00
   -2    6   12      0.66      0.00
   -1    6   12      2.09      0.00
    0    6   12      5.02      0.00
    1    6   12      1.55      0.00
    2    6   12     -0.07      0.00
    3    6   12     -1.16      0.00
    4    6   12      2.90      0.00
    5    6   12     -0.43      0.00
    6    6   12      1.26      0.00
    7    6   12      1.27      0.00
    8    6   12      1.10      0.00
    9    6   12      4.89      0.00
   10    6   12      1.80      0.00
   11    6   12      2.36      0.00
   12    6   12      0.14      0.00
   13    6   12     -0.88      0.00
   14    6   12     -1.17      0.00
   15    6   12     -0.68      0.00
  -10    7   12     -0.31      0.00
   -9    7   12     -1.41      0.00
   -8    7   12     -0.31      0.00
   -7    7   12      0.32      0.00
   -6    7   12     -0.10      0.00
   -5    7   12      0.32      0.00
   -4    7   12      0.32      0.00
   -3    7   12     -0.05      0.00
   -2    7   12      0.21      0.00
   -1    7   12     -4.66      0.00
    0    7   12     -3.39      0.00
    1    7   12      1.82      0.00
    2    7   12     -1.87      0.00
    3    7   12     -1.21      0.00
    4    7   12      0.31      0.00
    5    7   12     -1.11      0.00
    6    7   12      2.46      0.00
    7    7   12     -1.40      0.00
    8    7   12     -3.26      0.00
    9    7   12     -2.73      0.00
   10    7   12     -1.56      0.00
   11    7   12      0.29      0.00
   12    7   12      0.96      0.00
   13    7   12      0.63      0.00
   14    7   12      0.92      0.00
   15    7   12     -0.65      0.00
  -10    8   12      1.14      0.00
   -9    8   12      0.72      0.00
   -8    8   12      0.97      0.00
   -7    8   12      1.06      0.00
   -6    8   12      0.48      0.00
   -5    8   12     -0.06      0.00
   -4    8   12      0.52      0.00
   -3    8   12      1.09      0.00
   -2    8   12      2.68      0.00
   -1    8   12      3.91      0.00
    0    8   12      1.28      0.00
    1    8   12     -0.94      0.00
    2    8   12      0.26      0.00
    3    8   12     -0.94      0.00
    4    8   12     -5.54      0.00
    5    8   12     -0.04      0.00
    6    8   12      1.24      0.00
    7    8   12      3.26      0.00
    8    8   12      4.73      0.00
    9    8   12      1.67      0.00
   10    8   12      0.71      0.00
   11    8   12     -1.37      0.00
   12    8   12     -0.94      0.00
   13    8   12      0.09      0.00
   14    8   12     -0.82      0.00
   15    8   12     -0.50      0.00
  -10    9   12     -0.62      0.00
   -9    9   12     -0.62      0.00
   -8    9   12     -0.50      0.00
   -7    9   12     -1.42      0.00
   -6    9   12      0.16      0.00
   -5    9   12      0.14      0.00
   -4    9   12     -1.47      0.00
   -3    9   12     -1.49      0.00
   -2    9   12     -4.28      0.00
   -1    9   12     -0.98      0.00
    0    9   12     -1.35      0.00
    1    9   12     -0.40      0.00
    2    9   12      1.61      0.00
    3    9   12      3.52      0.00
    4    9   12      3.85      0.00
    5    9   12     -0.64      0.00
    6    9   12     -6.75      0.00
    7    9   12     -5.82      0.00
    8    9   12     -5.23      0.00
    9    9   12     -0.19      0.00
   10    9   12      1.08      0.00
   11    9   12      1.34      0.00
   12    9   12     -0.31      0.00
   13    9   12     -0.56      0.00
   14    9   12     -0.13      0.00
   15    9   12      0.55      0.00
   -9   10   12     -0.59      0.00
   -8   10   12      0.36      0.00
   -7   10   12      0.27      0.00
   -6   10   12     -0.55      0.00
   -5   10   12     -0.19      0.00
   -4   10   12     -0.85      0.00
   -3   10   12      0.61      0.00
   -2   10   12      0.61      0.00
   -1   10   12      0.09      0.00
    0   10   12     -2.62      0.00
    1   10   12      0.02      0.00
    2   10   12     -1.43      0.00
    3   10   12      0.19      0.00
    4   10   12      1.14      0.00
    5   10   12      7.34      0.00
    6   10   12      6.15      0.00
    7   10   12      5.73      0.00
    8   10   12      2.80      0.00
    9   10   12     -1.14      0.00
   10   10   12     -0.41      0.00
   11   10   12     -0.62      0.00
   12   10   12      0.69      0.00
   13   10   12      0.15      0.00
   14   10   12      1.76      0.00
   -9   11   12      1.23      0.00
   -8   11   12     -0.28      0.00
   -7   11   12     -0.55      0.00
   -6   11   12      0.83      0.00
   -5   11   12     -0.12      0.00
   -4   11   12      1.50      0.00
   -3   11   12      1.04      0.00
   -2   11   12      1.85      0.00
   -1   11   12      0.98      0.00
    0   11   12      4.37      0.00
    1   11   12      0.33      0.00
    2   11   12     -0.98      0.00
    3   11   12     -3.57      0.00
    4   11   12     -4.72      0.00
    5   11   12     -7.61      0.00
    6   11   12     -3.81      0.00
    7   11   12     -5.46      0.00
    8   11   12      1.17      0.00
    9   11   12      1.07      0.00
   10   11   12     -0.21      0.00
   11   11   12     -0.23      0.00
   12   11   12     -0.17      0.00
   13   11   12     -0.50      0.00
   14   11   12     -1.11      0.00
   -9   12   12      0.72      0.00
   -8   12   12     -0.19      0.00
   -7   12   12      1.23      0.00
   -6   12   12      0.09      0.00
   -5   12   12      0.70      0.00
   -4   12   12      0.92      0.00
   -3   12   12     -0.50      0.00
   -2   12   12     -0.24      0.00
   -1   12   12     -1.06      0.00
    0   12   12     -0.26      0.00
    1   12   12     -1.17      0.00
    2   12   12     -0.71      0.00
    3   12   12      1.58      0.00
    4   12   12      3.92      0.00
    5   12   12      3.21      0.00
    6   12   12      5.67      0.00
    7   12   12      3.27      0.00
    8   12   12     -0.95      0.00
    9   12   12     -0.60      0.00
   10   12   12     -0.39      0.00
   11   12   12      0.39      0.00
   12   12   12     -0.33      0.00
   13   12   12      0.67      0.00
   14   12   12      0.01      0.00
   -8   13   12     -0.88      0.00
   -7   13   12     -0.92      0.00
   -6   13   12     -1.22      0.00
   -5   13   12     -0.72      0.00
   -4   13   12      0.40      0.00
   -3   13   12     -2.58      0.00
   -2   13   12     -1.05      0.00
   -1   13   12     -1.03      0.00
    0   13   12     -1.29      0.00
    1   13   12      0.31      0.00
    2   13   12      1.04      0.00
    3   13   12      0.44      0.00
    4   13   12      0.09      0.00
    5   13   12     -2.93      0.00
    6   13   12     -6.02      0.00
    7   13   12      0.83      0.00
    8   13   12      0.30      0.00
    9   13   12      1.08      0.00
   10   13   12     -0.82      0.00
   11   13   12      1.06      0.00
   12   13   12      0.17      0.00
   13   13   12     -0.34      0.00
   14   13   12      0.63      0.00
   -8   14   12      0.49      0.00
   -7   14   12      0.38      0.00
   -6   14   12      1.75      0.00
   -5   14   12      0.61      0.00
   -4   14   12     -1.74      0.00
   -3   14   12      0.13      0.00
   -2   14   12      0.23      0.00
   -1   14   12      1.96      0.00
    0   14   12      0.08      0.00
    1   14   12      0.01      0.00
    2   14   12      2.10      0.00
    3   14   12     -0.36      0.00
    4   14   12      0.95      0.00
    5   14   12      5.09      0.00
    6   14   12      1.16      0.00
    7   14   12     -2.37      0.00
    8   14   12     -1.27      0.00
    9   14   12     -1.45      0.00
   10   14   12      0.98      0.00
   11   14   12     -1.30      0.00
   12   14   12     -0.39      0.00
   13   14   12     -0.61      0.00
   -7   15   12     -0.83      0.00
   -6   15   12     -0.80      0.00
   -5   15   12     -1.05      0.00
   -4   15   12     -0.16      0.00
   -3   15   12      1.71      0.00
   -2   15   12      0.78      0.00
   -1   15   12     -0.10      0.00
    0   15   12      1.26      0.00
    1   15   12      1.03      0.00
    2   15   12     -1.66      0.00
    3   15   12      1.56      0.00
    4   15   12     -5.12      0.00
    5   15   12     -1.86      0.00
    6   15   12      0.39      0.00
    7   15   12      1.74      0.00
    8   15   12      2.49      0.00
    9   15   12     -0.30      0.00
   10   15   12     -0.44      0.00
   11   15   12     -0.37      0.00
   12   15   12      0.54      0.00
   13   15   12      0.88      0.00
   -7   16   12      1.30      0.00
   -6   16   12     -0.17      0.00
   -5   16   12      0.39      0.00
   -4   16   12      1.15      0.00
   -3   16   12      0.54      0.00
   -2   16   12     -0.83      0.00
   -1   16   12     -1.13      0.00
    0   16   12     -0.44      0.00
    1   16   12     -1.68      0.00
    2   16   12     -0.01      0.00
    3   16   12     -0.47      0.00
    4   16   12      3.23      0.00
    5   16   12     -0.92      0.00
    6   16   12     -0.21      0.00
    7   16   12     -2.02      0.00
    8   16   12     -1.93      0.00
    9   16   12      1.51      0.00
   10   16   12      0.65      0.00
   11   16   12      0.86      0.00
   12   16   12     -0.15      0.00
   -6   17   12     -0.25      0.00
   -5   17   12      0.26      0.00
   -4   17   12     -0.37      0.00
   -3   17   12      0.32      0.00
   -2   17   12     -0.91      0.00
   -1   17   12      0.57      0.00
    0   17   12     -1.44      0.00
    1   17   12      1.46      0.00
    2   17   12      0.90      0.00
    3   17   12     -0.68      0.00
    4   17   12     -0.74      0.00
    5   17   12     -0.54      0.00
    6   17   12      0.39      0.00
    7   17   12      0.76      0.00
    8   17   12      0.39      0.00
    9   17   12     -0.92      0.00
   10   17   12     -0.59      0.00
   11   17   12      0.36      0.00
   -5   18   12      0.21      0.00
   -4   18   12     -0.44      0.00
   -3   18   12     -1.04      0.00
   -2   18   12      1.83      0.00
   -1   18   12      0.38      0.00
    0   18   12     -0.79      0.00
    1   18   12     -1.02      0.00
    2   18   12     -1.84      0.00
    3   18   12      0.07      0.00
    4   18   12     -0.50      0.00
    5   18   12      2.02      0.00
    6   18   12      0.63      0.00
    7   18   12      1.13      0.00
    8   18   12      0.15      0.00
    9   18   12      0.78      0.00
   10   18   12     -0.35      0.00
   11   18   12     -0.03      0.00
   -4   19   12      0.60      0.00
   -3   19   12      0.65      0.00
   -2   19   12     -0.67      0.00
   -1   19   12      0.58      0.00
    0   19   12      1.87      0.00
    1   19   12      1.00      0.00
    2   19   12      1.49      0.00
    3   19   12     -0.68      0.00
    4   19   12      0.84      0.00
    5   19   12     -2.45      0.00
    6   19   12      0.45      0.00
    7   19   12     -0.51      0.00
    8   19   12     -0.23      0.00
    9   19   12     -0.20      0.00
   10   19   12      1.32      0.00
   -3   20   12     -1.10      0.00
   -2   20   12     -0.18      0.00
   -1   20   12     -1.83      0.00
    0   20   12     -0.80      0.00
    1   20   12     -0.37      0.00
    2   20   12      0.36      0.00
    3   20   12      0.83      0.00
   -1   21   12      0.38      0.00
    0   21   12      1.67      0.00
    1   21   12     -1.02      0.00
    2   21   12     -0.09      0.00
    3   21   12      0.38      0.00
    2   22   12     -1.94      0.00
    3   22   12     -0.35      0.00
   -1  -13   13     -1.09      0.00
    0  -13   13      0.54      0.00
    1  -13   13      0.11      0.00
    2  -13   13     -0.31      0.00
    3  -13   13     -0.97      0.00
    4  -13   13     -0.50      0.00
    5  -13   13     -0.17      0.00
   -3  -12   13      0.07      0.00
   -2  -12   13      1.55      0.00
   -1  -12   13     -0.10      0.00
    0  -12   13     -0.67      0.00
    1  -12   13     -0.34      0.00
    2  -12   13      0.93      0.00
    3  -12   13      0.04      0.00
    4  -12   13     -0.37      0.00
    5  -12   13      0.58      0.00
    6  -12   13     -0.89      0.00
    7  -12   13      0.09      0.00
   -4  -11   13     -0.29      0.00
   -3  -11   13      1.55      0.00
   -2  -11   13     -2.58      0.00
   -1  -11   13      1.59      0.00
    0  -11   13     -0.21      0.00
    1  -11   13     -0.07      0.00
    2  -11   13     -1.65      0.00
    3  -11   13      1.04      0.00
    4  -11   13      0.06      0.00
    5  -11   13     -0.21      0.00
    6  -11   13      0.67      0.00
    7  -11   13     -0.09      0.00
    8  -11   13      0.32      0.00
   -5  -10   13     -0.41      0.00
   -4  -10   13     -0.62      0.00
   -3  -10   13     -1.74      0.00
   -2  -10   13      1.04      0.00
   -1  -10   13      0.55      0.00
    0  -10   13      0.25      0.00
    1  -10   13     -0.80      0.00
    2  -10   13      0.59      0.00
    3  -10   13     -0.12      0.00
    4  -10   13      0.56      0.00
    5  -10   13     -1.72      0.00
    6  -10   13      1.68      0.00
    7  -10   13     -0.24      0.00
    8  -10   13      0.06      0.00
    9  -10   13      0.31      0.00
   10  -10   13     -0.12      0.00
   -6   -9   13      0.21      0.00
   -5   -9   13     -0.34      0.00
   -4   -9   13      2.36      0.00
   -3   -9   13     -0.75      0.00
   -2   -9   13      0.42      0.00
   -1   -9   13     -0.32      0.00
    0   -9   13     -0.22      0.00
    1   -9   13      1.28      0.00
    2   -9   13      0.77      0.00
    3   -9   13     -0.55      0.00
    4   -9   13      1.43      0.00
    5   -9   13      0.57      0.00
    6   -9   13     -0.33      0.00
    7   -9   13     -0.72      0.00
    8   -9   13     -0.32      0.00
    9   -9   13      0.38      0.00
   10   -9   13     -1.03      0.00
   -6   -8   13      1.13      0.00
   -5   -8   13      0.34      0.00
   -4   -8   13     -1.48      0.00
   -3   -8   13      1.06      0.00
   -2   -8   13     -0.40      0.00
   -1   -8   13     -0.30      0.00
    0   -8   13     -0.66      0.00
    1   -8   13     -0.07      0.00
    2   -8   13      0.33      0.00
    3   -8   13     -1.29      0.00
    4   -8   13     -0.79      0.00
    5   -8   13      0.20      0.00
    6   -8   13     -0.90      0.00
    7   -8   13      1.59      0.00
    8   -8   13      0.63      0.00
    9   -8   13      0.96      0.00
   10   -8   13      0.68      0.00
   -6   -7   13     -2.01      0.00
   -5   -7   13      0.45      0.00
   -4   -7   13      0.57      0.00
   -3   -7   13     -0.23      0.00
   -2   -7   13     -0.01      0.00
   -1   -7   13     -0.62      0.00
    0   -7   13      0.47      0.00
    1   -7   13     -2.71      0.00
    2   -7   13      0.30      0.00
    3   -7   13      0.98      0.00
    4   -7   13      0.16      0.00
    5   -7   13     -1.08      0.00
    6   -7   13     -0.13      0.00
    7   -7   13     -1.46      0.00
    8   -7   13     -0.22      0.00
    9   -7   13     -1.59      0.00
   11   -7   13     -0.90      0.00
   12   -7   13      0.55      0.00
   -6   -6   13     -0.11      0.00
   -5   -6   13     -1.05      0.00
   -4   -6   13     -0.18      0.00
   -3   -6   13     -0.07      0.00
   -2   -6   13      0.46      0.00
   -1   -6   13      1.33      0.00
    0   -6   13      2.17      0.00
    1   -6   13      2.69      0.00
    2   -6   13      0.16      0.00
    3   -6   13     -1.18      0.00
    4   -6   13      0.23      0.00
    5   -6   13      0.20      0.00
    6   -6   13      2.72      0.00
    7   -6   13      0.30      0.00
    8   -6   13     -1.84      0.00
    9   -6   13     -0.47      0.00
   10   -6   13     -1.26      0.00
   11   -6   13      0.17      0.00
   12   -6   13      0.46      0.00
   -6   -5   13      2.00      0.00
   -5   -5   13     -0.04      0.00
   -4   -5   13      0.40      0.00
   -3   -5   13      0.04      0.00
   -2   -5   13     -0.63      0.00
   -1   -5   13     -3.02      0.00
    0   -5   13     -2.17      0.00
    1   -5   13     -0.22      0.00
    2   -5   13     -0.07      0.00
    3   -5   13      1.37      0.00
    4   -5   13     -0.38      0.00
    5   -5   13      0.39      0.00
    6   -5   13     -2.11      0.00
    7   -5   13      1.13      0.00
    8   -5   13      2.30      0.00
    9   -5   13      0.85      0.00
   10   -5   13      1.22      0.00
   11   -5   13      0.76      0.00
   12   -5   13     -0.06      0.00
   13   -5   13      1.34      0.00
   -6   -4   13     -1.19      0.00
   -5   -4   13      0.90      0.00
   -4   -4   13      0.47      0.00
   -3   -4   13      0.43      0.00
   -2   -4   13      2.22      0.00
   -1   -4   13      0.43      0.00
    0   -4   13      0.10      0.00
    1   -4   13     -2.43      0.00
    2   -4   13     -2.44      0.00
    3   -4   13     -0.20      0.00
    4   -4   13     -0.27      0.00
    5   -4   13      0.47      0.00
    6   -4   13     -0.61      0.00
    7   -4   13      0.04      0.00
    8   -4   13     -1.24      0.00
    9   -4   13      0.05      0.00
   10   -4   13      0.78      0.00
   11   -4   13     -0.50      0.00
   12   -4   13     -0.92      0.00
   13   -4   13      0.74      0.00
   -7   -3   13      1.63      0.00
   -6   -3   13     -0.44      0.00
   -5   -3   13      1.68      0.00
   -4   -3   13     -2.60      0.00
   -3   -3   13     -0.25      0.00
   -2   -3   13     -2.89      0.00
   -1   -3   13      2.73      0.00
    0   -3   13      1.58      0.00
    1   -3   13      3.76      0.00
    2   -3   13      1.65      0.00
    3   -3   13     -0.72      0.00
    4   -3   13      0.65      0.00
    5   -3   13     -0.24      0.00
    6   -3   13     -0.33      0.00
    7   -3   13     -1.38      0.00
    8   -3   13      0.83      0.00
    9   -3   13     -0.29      0.00
   10   -3   13     -0.73      0.00
   11   -3   13     -0.69      0.00
   12   -3   13     -1.31      0.00
   13   -3   13     -0.91      0.00
   14   -3   13     -1.17      0.00
   -7   -2   13     -0.21      0.00
   -6   -2   13     -0.52      0.00
   -5   -2   13     -0.72      0.00
   -4   -2   13     -0.34      0.00
   -3   -2   13      0.76      0.00
   -2   -2   13     -0.11      0.00
   -1   -2   13     -2.75      0.00
    0   -2   13     -1.35      0.00
    1   -2   13      0.07      0.00
    2   -2   13      3.30      0.00
    3   -2   13     -0.91      0.00
    4   -2   13     -0.71      0.00
    5   -2   13      1.87      0.00
    6   -2   13      2.50      0.00
    7   -2   13      1.16      0.00
    8   -2   13     -0.79      0.00
    9   -2   13      1.87      0.00
   10   -2   13      0.73      0.00
   11   -2   13      1.89      0.00
   12   -2   13      1.15      0.00
   13   -2   13      0.99      0.00
   14   -2   13      1.35      0.00
   -9   -1   13      1.66      0.00
   -8   -1   13      1.77      0.00
   -7   -1   13     -0.12      0.00
   -6   -1   13      1.13      0.00
   -5   -1   13     -1.18      0.00
   -4   -1   13      0.85      0.00
   -3   -1   13     -2.13      0.00
   -2   -1   13      2.79      0.00
   -1   -1   13      0.70      0.00
    0   -1   13      0.27      0.00
    1   -1   13     -3.59      0.00
    2   -1   13     -2.65      0.00
    3   -1   13      0.81      0.00
    4   -1   13     -2.52      0.00
    5   -1   13     -1.17      0.00
    6   -1   13     -4.32      0.00
    7   -1   13     -1.46      0.00
    8   -1   13     -2.00      0.00
    9   -1   13     -2.20      0.00
   10   -1   13      0.29      0.00
   11   -1   13     -0.96      0.00
   12   -1   13     -0.04      0.00
   13   -1   13     -1.24      0.00
   14   -1   13      0.87      0.00
   -9    0   13      1.87      0.00
   -8    0   13     -0.53      0.00
   -7    0   13     -1.56      0.00
   -6    0   13      0.85      0.00
   -5    0   13      0.13      0.00
   -4    0   13      2.85      0.00
   -3    0   13      2.81      0.00
   -2    0   13     -0.58      0.00
   -1    0   13      2.66      0.00
    0    0   13     -0.82      0.00
    1    0   13      1.56      0.00
    2    0   13     -1.80      0.00
    3    0   13      2.39      0.00
    4    0   13      3.00      0.00
    5    0   13      1.56      0.00
    6    0   13      3.45      0.00
    7    0   13      1.06      0.00
    8    0   13      2.66      0.00
    9    0   13     -0.43      0.00
   10    0   13     -0.75      0.00
   11    0   13     -1.55      0.00
   12    0   13      0.00      0.00
   13    0   13     -0.97      0.00
   14    0   13     -0.41      0.00
  -10    1   13     -1.05      0.00
   -9    1   13     -1.47      0.00
   -8    1   13     -1.62      0.00
   -7    1   13      1.65      0.00
   -6    1   13     -3.05      0.00
   -5    1   13      0.94      0.00
   -4    1   13     -3.62      0.00
   -3    1   13     -0.21      0.00
   -2    1   13     -3.06      0.00
   -1    1   13     -0.97      0.00
    0    1   13     -0.28      0.00
    1    1   13      0.98      0.00
    2    1   13     -1.23      0.00
    3    1   13      0.05      0.00
    4    1   13     -1.81      0.00
    5    1   13     -1.67      0.00
    6    1   13     -0.76      0.00
    7    1   13      2.10      0.00
    8    1   13     -0.19      0.00
    9    1   13      1.86      0.00
   10    1   13      1.21      0.00
   11    1   13      1.22      0.00
   12    1   13      0.79      0.00
   13    1   13      1.18      0.00
   14    1   13      0.14      0.00
   15    1   13      0.10      0.00
  -10    2   13      0.55      0.00
   -9    2   13     -0.88      0.00
   -8    2   13      0.01      0.00
   -7    2   13      0.50      0.00
   -6    2   13      0.89      0.00
   -5    2   13      0.09      0.00
   -4    2   13     -0.01      0.00
   -3    2   13     -2.43      0.00
   -2    2   13      0.94      0.00
   -1    2   13     -0.58      0.00
    0    2   13      0.86      0.00
    1    2   13      1.71      0.00
    2    2   13      1.55      0.00
    3    2   13     -1.19      0.00
    4    2   13      1.93      0.00
    5    2   13     -1.58      0.00
    6    2   13     -1.72      0.00
    7    2   13     -3.87      0.00
    8    2   13      0.17      0.00
    9    2   13     -1.12      0.00
   10    2   13     -0.70      0.00
   11    2   13     -1.56      0.00
   12    2   13     -0.37      0.00
   13    2   13     -0.17      0.00
   14    2   13      0.31      0.00
   15    2   13      0.43      0.00
  -10    3   13     -0.18      0.00
   -9    3   13      0.65      0.00
   -8    3   13     -0.11      0.00
   -7    3   13     -0.98      0.00
   -6    3   13      3.00      0.00
   -5    3   13     -0.74      0.00
   -4    3   13      2.60      0.00
   -3    3   13      2.02      0.00
   -2    3   13      3.16      0.00
   -1    3   13     -0.29      0.00
    0    3   13      0.62      0.00
    1    3   13     -3.17      0.00
    2    3   13      1.44      0.00
    3    3   13     -1.60      0.00
    4    3   13      1.05      0.00
    5    3   13      0.40      0.00
    6    3   13      1.71      0.00
    7    3   13      1.03      0.00
    8    3   13      0.18      0.00
    9    3   13      0.41      0.00
   10    3   13      0.70      0.00
   11    3   13      1.11      0.00
   12    3   13      0.41      0.00
   13    3   13     -0.06      0.00
   14    3   13     -0.68      0.00
   15    3   13     -0.05      0.00
  -10    4   13      1.27      0.00
   -9    4   13     -0.56      0.00
   -8    4   13      0.49      0.00
   -7    4   13      1.43      0.00
   -6    4   13     -2.21      0.00
   -5    4   13     -0.06      0.00
   -4    4   13     -0.79      0.00
   -3    4   13     -0.77      0.00
   -2    4   13     -2.43      0.00
   -1    4   13     -0.59      0.00
    0    4   13     -1.87      0.00
    1    4   13     -1.70      0.00
    2    4   13     -2.54      0.00
    3    4   13      1.14      0.00
    4    4   13     -0.07      0.00
    5    4   13      1.73      0.00
    6    4   13      1.71      0.00
    7    4   13      0.97      0.00
    8    4   13      0.22      0.00
    9    4   13     -0.07      0.00
   10    4   13     -2.05      0.00
   11    4   13     -0.89      0.00
   12    4   13      0.25      0.00
   13    4   13     -0.43      0.00
   14    4   13      0.86      0.00
   15    4   13      1.08      0.00
  -10    5   13      0.41      0.00
   -9    5   13     -0.14      0.00
   -8    5   13      0.85      0.00
   -7    5   13     -1.03      0.00
   -6    5   13     -1.04      0.00
   -5    5   13     -0.30      0.00
   -4    5   13      0.00      0.00
   -3    5   13     -0.86      0.00
   -2    5   13     -1.08      0.00
   -1    5   13      1.21      0.00
    0    5   13      1.60      0.00
    1    5   13      3.26      0.00
    2    5   13      4.28      0.00
    3    5   13     -0.54      0.00
    4    5   13     -2.09      0.00
    5    5   13     -2.65      0.00
    6    5   13     -1.30      0.00
    7    5   13     -0.98      0.00
    8    5   13     -1.29      0.00
    9    5   13     -0.74      0.00
   10    5   13      1.64      0.00
   11    5   13      1.44      0.00
   12    5   13      0.20      0.00
   13    5   13     -0.02      0.00
   14    5   13     -0.94      0.00
   15    5   13     -0.81      0.00
  -10    6   13     -1.50      0.00
   -9    6   13     -0.55      0.00
   -8    6   13      0.97      0.00
   -7    6   13     -1.75      0.00
   -6    6   13      2.08      0.00
   -5    6   13      0.36      0.00
   -4    6   13     -0.73      0.00
   -3    6   13      2.07      0.00
   -2    6   13     -0.12      0.00
   -1    6   13     -0.30      0.00
    0    6   13     -0.50      0.00
    1    6   13     -0.30      0.00
    2    6   13     -2.17      0.00
    3    6   13      1.93      0.00
    4    6   13      2.11      0.00
    5    6   13      1.25      0.00
    6    6   13     -0.71      0.00
    7    6   13      0.88      0.00
    8    6   13      0.86      0.00
    9    6   13     -0.60      0.00
   10    6   13     -2.65      0.00
   11    6   13     -1.01      0.00
   12    6   13     -1.15      0.00
   13    6   13      0.62      0.00
   14    6   13      0.60      0.00
   15    6   13     -0.31      0.00
   -9    7   13     -0.11      0.00
   -8    7   13      0.24      0.00
   -7    7   13      1.14      0.00
   -6    7   13     -1.03      0.00
   -5    7   13     -1.30      0.00
   -4    7   13      0.15      0.00
   -3    7   13     -0.39      0.00
   -2    7   13      2.66      0.00
   -1    7   13     -1.76      0.00
    0    7   13      2.25      0.00
    1    7   13      2.52      0.00
    2    7   13     -0.91      0.00
    3    7   13     -1.55      0.00
    4    7   13     -2.03      0.00
    5    7   13     -2.07      0.00
    6    7   13      3.13      0.00
    7    7   13     -0.07      0.00
    8    7   13      0.72      0.00
    9    7   13      3.44      0.00
   10    7   13      3.09      0.00
   11    7   13      1.56      0.00
   12    7   13      0.86      0.00
   13    7   13     -0.17      0.00
   14    7   13      0.05      0.00
   15    7   13     -0.29      0.00
   -9    8   13     -0.42      0.00
   -8    8   13     -0.59      0.00
   -7    8   13     -0.93      0.00
   -6    8   13      0.86      0.00
   -5    8   13      1.88      0.00
   -4    8   13      1.07      0.00
   -3    8   13      0.42      0.00
   -2    8   13     -0.08      0.00
   -1    8   13      0.22      0.00
    0    8   13     -3.16      0.00
    1    8   13     -3.49      0.00
    2    8   13      0.82      0.00
    3    8   13     -1.57      0.00
    4    8   13     -0.36      0.00
    5    8   13      1.21      0.00
    6    8   13     -3.34      0.00
    7    8   13     -2.64      0.00
    8    8   13     -3.47      0.00
    9    8   13     -3.86      0.00
   10    8   13     -2.07      0.00
   11    8   13     -0.39      0.00
   12    8   13     -0.95      0.00
   13    8   13     -0.13      0.00
   14    8   13     -0.69      0.00
   15    8   13     -0.39      0.00
   -9    9   13      0.86      0.00
   -7    9   13      0.94      0.00
   -6    9   13      0.13      0.00
   -5    9   13     -0.29      0.00
   -4    9   13     -1.41      0.00
   -3    9   13     -1.48      0.00
   -2    9   13     -2.09      0.00
   -1    9   13      2.41      0.00
    0    9   13     -0.34      0.00
    1    9   13     -0.83      0.00
    2    9   13     -1.09      0.00
    3    9   13      3.64      0.00
    4    9   13      0.34      0.00
    5    9   13      5.28      0.00
    6    9   13      0.94      0.00
    7    9   13      5.03      0.00
    8    9   13      5.32      0.00
    9    9   13      3.53      0.00
   10    9   13      1.54      0.00
   11    9   13      0.30      0.00
   12    9   13     -0.04      0.00
   13    9   13     -0.22      0.00
   14    9   13      0.01      0.00
   15    9   13      0.38      0.00
   -9   10   13      0.57      0.00
   -8   10   13     -1.49      0.00
   -7   10   13     -0.20      0.00
   -6   10   13     -2.17      0.00
   -5   10   13     -0.79      0.00
   -4   10   13     -0.55      0.00
   -3   10   13     -0.61      0.00
   -2   10   13     -0.51      0.00
   -1   10   13     -1.52      0.00
    0   10   13      1.55      0.00
    1   10   13      3.50      0.00
    2   10   13      1.77      0.00
    3   10   13     -1.56      0.00
    4   10   13      1.17      0.00
    5   10   13     -3.52      0.00
    6   10   13     -2.80      0.00
    7   10   13     -6.57      0.00
    8   10   13     -5.02      0.00
    9   10   13     -3.60      0.00
   10   10   13      0.33      0.00
   11   10   13     -0.49      0.00
   12   10   13      0.86      0.00
   13   10   13      0.41      0.00
   14   10   13      1.14      0.00
   -9   11   13     -0.03      0.00
   -8   11   13     -0.92      0.00
   -7   11   13      0.95      0.00
   -6   11   13      2.93      0.00
   -5   11   13     -0.34      0.00
   -4   11   13      2.84      0.00
   -3   11   13      3.01      0.00
   -2   11   13      3.10      0.00
   -1   11   13      2.54      0.00
    0   11   13      0.28      0.00
    1   11   13     -2.10      0.00
    2   11   13     -1.57      0.00
    3   11   13     -2.95      0.00
    4   11   13     -2.49      0.00
    5   11   13     -0.85      0.00
    6   11   13      5.22      0.00
    7   11   13      5.80      0.00
    8   11   13      4.21      0.00
    9   11   13      1.04      0.00
   10   11   13     -2.41      0.00
   11   11   13     -0.62      0.00
   12   11   13     -1.11      0.00
   13   11   13      0.67      0.00
   14   11   13     -0.82      0.00
   -8   12   13      0.23      0.00
   -7   12   13     -0.50      0.00
   -6   12   13     -1.14      0.00
   -5   12   13      0.86      0.00
   -4   12   13     -1.09      0.00
   -3   12   13     -2.59      0.00
   -2   12   13     -2.52      0.00
   -1   12   13     -3.27      0.00
    0   12   13     -0.86      0.00
    1   12   13     -1.17      0.00
    2   12   13     -0.24      0.00
    3   12   13      4.03      0.00
    4   12   13      1.18      0.00
    5   12   13     -0.09      0.00
    6   12   13     -4.99      0.00
    7   12   13     -2.77      0.00
    8   12   13     -1.25      0.00
    9   12   13      2.45      0.00
   10   12   13      2.13      0.00
   11   12   13      0.60      0.00
   12   12   13      0.39      0.00
   13   12   13     -0.68      0.00
   14   12   13     -1.30      0.00
   -8   13   13      0.46      0.00
   -7   13   13      0.20      0.00
   -6   13   13     -1.15      0.00
   -5   13   13      1.44      0.00
   -4   13   13     -1.29      0.00
   -3   13   13     -1.08      0.00
   -2   13   13      0.02      0.00
   -1   13   13      1.31      0.00
    0   13   13      0.18      0.00
    1   13   13      0.64      0.00
    2   13   13      0.96      0.00
    3   13   13      0.27      0.00
    4   13   13      4.33      0.00
    5   13   13      2.31      0.00
    6   13   13      4.82      0.00
    7   13   13      1.93      0.00
    8   13   13     -1.49      0.00
    9   13   13     -2.47      0.00
   10   13   13     -0.84      0.00
   11   13   13      0.67      0.00
   12   13   13     -0.23      0.00
   13   13   13      0.13      0.00
   -7   14   13     -0.85      0.00
   -6   14   13      0.37      0.00
   -5   14   13     -1.79      0.00
   -4   14   13      0.82      0.00
   -3   14   13      1.57      0.00
   -2   14   13      1.14      0.00
   -1   14   13      0.76      0.00
    0   14   13      0.60      0.00
    1   14   13      1.64      0.00
    2   14   13     -0.93      0.00
    3   14   13     -2.13      0.00
    4   14   13     -5.80      0.00
    5   14   13     -2.46      0.00
    6   14   13     -5.97      0.00
    7   14   13     -0.96      0.00
    8   14   13      0.18      0.00
    9   14   13      0.80      0.00
   10   14   13     -1.02      0.00
   11   14   13     -0.99      0.00
   12   14   13      0.30      0.00
   13   14   13     -0.30      0.00
   -7   15   13      1.16      0.00
   -6   15   13      1.26      0.00
   -5   15   13      0.17      0.00
   -4   15   13     -0.91      0.00
   -3   15   13      0.63      0.00
   -2   15   13     -0.13      0.00
   -1   15   13     -1.15      0.00
    0   15   13      0.29      0.00
    1   15   13     -0.59      0.00
    2   15   13      1.32      0.00
    3   15   13      1.18      0.00
    4   15   13      0.30      0.00
    5   15   13      3.15      0.00
    6   15   13      3.11      0.00
    7   15   13      0.31      0.00
    8   15   13     -0.07      0.00
    9   15   13     -0.34      0.00
   10   15   13      1.70      0.00
   11   15   13     -0.28      0.00
   12   15   13     -0.04      0.00
   -6   16   13     -0.91      0.00
   -5   16   13     -0.96      0.00
   -4   16   13      0.76      0.00
   -3   16   13     -0.15      0.00
   -2   16   13     -0.75      0.00
   -1   16   13      0.18      0.00
    0   16   13     -1.92      0.00
    1   16   13     -0.48      0.00
    2   16   13      1.38      0.00
    3   16   13     -0.06      0.00
    4   16   13      2.79      0.00
    5   16   13     -4.78      0.00
    6   16   13      0.83      0.00
    7   16   13     -1.38      0.00
    8   16   13      1.61      0.00
    9   16   13      0.94      0.00
   10   16   13     -1.21      0.00
   11   16   13      1.11      0.00
   12   16   13     -0.61      0.00
   -6   17   13      0.11      0.00
   -5   17   13      2.04      0.00
   -4   17   13      1.13      0.00
   -3   17   13     -0.24      0.00
   -2   17   13      0.26      0.00
   -1   17   13      0.69      0.00
    0   17   13      0.04      0.00
    1   17   13     -0.59      0.00
    2   17   13     -3.26      0.00
    3   17   13     -0.67      0.00
    4   17   13     -1.85      0.00
    5   17   13      3.28      0.00
    6   17   13     -0.92      0.00
    7   17   13      0.38      0.00
    8   17   13     -1.38      0.00
    9   17   13      0.08      0.00
   10   17   13      1.20      0.00
   11   17   13      0.14      0.00
   -5   18   13     -0.72      0.00
   -4   18   13     -1.53      0.00
   -3   18   13      0.68      0.00
   -2   18   13      1.08      0.00
   -1   18   13     -0.98      0.00
    0   18   13      1.82      0.00
    1   18   13      1.24      0.00
    2   18   13      1.38      0.00
    3   18   13     -0.23      0.00
    4   18   13     -0.08      0.00
    5   18   13     -0.66      0.00
    6   18   13      1.13      0.00
    7   18   13      0.70      0.00
    8   18   13      0.60      0.00
    9   18   13     -1.24      0.00
   10   18   13     -0.13      0.00
   -4   19   13      0.22      0.00
   -3   19   13     -1.30      0.00
   -2   19   13     -0.69      0.00
   -1   19   13      0.06      0.00
    0   19   13     -0.82      0.00
    1   19   13     -1.35      0.00
    2   19   13      0.28      0.00
    3   19   13     -0.17      0.00
    4   19   13      0.92      0.00
    5   19   13     -0.78      0.00
    6   19   13      0.41      0.00
    7   19   13     -0.17      0.00
    8   19   13     -0.70      0.00
    9   19   13     -0.80      0.00
   -2   20   13      0.36      0.00
   -1   20   13      0.26      0.00
    0   20   13      1.11      0.00
    1   20   13      1.30      0.00
    2   20   13      0.01      0.00
    3   20   13      2.20      0.00
    4   20   13     -0.95      0.00
    5   20   13      1.50      0.00
    6   20   13     -2.44      0.00
    7   20   13      1.32      0.00
    8   20   13      0.93      0.00
   -1   21   13     -0.85      0.00
    0   21   13     -1.12      0.00
    1   21   13     -1.03      0.00
    2   21   13     -0.58      0.00
    3   21   13     -1.89      0.00
   -1  -12   14     -0.59      0.00
    0  -12   14     -0.45      0.00
    1  -12   14     -0.97      0.00
    2  -12   14      0.68      0.00
    3  -12   14     -1.61      0.00
    4  -12   14      0.11      0.00
    5  -12   14     -0.37      0.00
    6  -12   14      0.39      0.00
   -2  -11   14     -0.41      0.00
   -1  -11   14      1.99      0.00
    0  -11   14      0.34      0.00
    1  -11   14     -1.55      0.00
    2  -11   14     -0.19      0.00
    3  -11   14      0.28      0.00
    4  -11   14      0.78      0.00
    5  -11   14     -1.31      0.00
    6  -11   14      0.73      0.00
    7  -11   14     -0.12      0.00
   -4  -10   14      0.19      0.00
   -3  -10   14     -0.47      0.00
   -2  -10   14     -0.13      0.00
   -1  -10   14     -0.69      0.00
    0  -10   14      0.93      0.00
    1  -10   14      1.16      0.00
    2  -10   14      0.09      0.00
    3  -10   14      0.83      0.00
    4  -10   14      0.01      0.00
    5  -10   14      0.18      0.00
    6  -10   14      0.57      0.00
    7  -10   14     -1.05      0.00
    8  -10   14     -2.03      0.00
    9  -10   14     -0.43      0.00
   -5   -9   14      0.12      0.00
   -4   -9   14     -0.18      0.00
   -3   -9   14     -0.68      0.00
   -2   -9   14      0.97      0.00
   -1   -9   14     -0.19      0.00
    0   -9   14     -1.19      0.00
    1   -9   14      0.67      0.00
    2   -9   14      1.50      0.00
    3   -9   14     -0.27      0.00
    4   -9   14     -0.05      0.00
    5   -9   14      0.40      0.00
    6   -9   14     -0.66      0.00
    7   -9   14      0.81      0.00
    8   -9   14     -0.24      0.00
    9   -9   14      0.24      0.00
   10   -9   14     -0.38      0.00
   -6   -8   14     -1.21      0.00
   -5   -8   14      0.30      0.00
   -4   -8   14      0.23      0.00
   -3   -8   14      2.91      0.00
   -2   -8   14     -1.34      0.00
   -1   -8   14     -0.92      0.00
    0   -8   14      0.05      0.00
    1   -8   14     -1.76      0.00
    2   -8   14     -1.94      0.00
    3   -8   14     -0.38      0.00
    4   -8   14      0.69      0.00
    5   -8   14      0.34      0.00
    6   -8   14     -0.26      0.00
    7   -8   14      1.49      0.00
    8   -8   14      1.07      0.00
    9   -8   14      1.01      0.00
   10   -8   14     -0.69      0.00
   11   -8   14      1.61      0.00
   -6   -7   14      0.78      0.00
   -5   -7   14     -0.19      0.00
   -4   -7   14     -1.28      0.00
   -3   -7   14     -1.24      0.00
   -2   -7   14      0.01      0.00
   -1   -7   14      0.87      0.00
    0   -7   14      1.30      0.00
    1   -7   14      1.09      0.00
    2   -7   14      0.99      0.00
    3   -7   14     -0.87      0.00
    4   -7   14     -1.55      0.00
    5   -7   14     -0.74      0.00
    6   -7   14     -0.53      0.00
    7   -7   14     -0.75      0.00
    8   -7   14     -0.51      0.00
    9   -7   14     -2.17      0.00
   10   -7   14      0.11      0.00
   -6   -6   14      0.15      0.00
   -5   -6   14     -0.34      0.00
   -4   -6   14      1.61      0.00
   -3   -6   14     -0.34      0.00
   -2   -6   14      0.58      0.00
   -1   -6   14      0.26      0.00
    0   -6   14     -1.37      0.00
    1   -6   14      1.57      0.00
    2   -6   14     -0.50      0.00
    3   -6   14      1.39      0.00
    4   -6   14      0.58      0.00
    5   -6   14      0.35      0.00
    6   -6   14      1.08      0.00
    7   -6   14     -2.03      0.00
    8   -6   14      0.40      0.00
   10   -6   14      0.70      0.00
   11   -6   14      0.13      0.00
   12   -6   14      0.45      0.00
   -6   -5   14      0.43      0.00
   -5   -5   14      0.61      0.00
   -4   -5   14     -1.10      0.00
   -3   -5   14      0.52      0.00
   -2   -5   14     -0.47      0.00
   -1   -5   14     -0.99      0.00
    0   -5   14      0.70      0.00
    1   -5   14     -0.01      0.00
    2   -5   14     -1.43      0.00
    3   -5   14     -0.04      0.00
    4   -5   14     -0.66      0.00
    5   -5   14      1.43      0.00
    6   -5   14      0.07      0.00
    7   -5   14      2.90      0.00
    8   -5   14      1.01      0.00
    9   -5   14     -0.34      0.00
   10   -5   14      1.58      0.00
   11   -5   14      0.87      0.00
   12   -5   14      0.66      0.00
   -6   -4   14     -1.42      0.00
   -5   -4   14      0.35      0.00
   -4   -4   14     -0.09      0.00
   -3   -4   14      0.45      0.00
   -2   -4   14     -0.70      0.00
   -1   -4   14     -0.43      0.00
    0   -4   14     -1.47      0.00
    1   -4   14     -0.83      0.00
    2   -4   14      0.00      0.00
    3   -4   14     -0.06      0.00
    4   -4   14      0.70      0.00
    5   -4   14     -0.61      0.00
    6   -4   14     -2.60      0.00
    7   -4   14     -2.77      0.00
    8   -4   14     -1.22      0.00
    9   -4   14      0.68      0.00
   10   -4   14     -1.21      0.00
   11   -4   14     -2.43      0.00
   12   -4   14     -2.53      0.00
   13   -4   14     -1.36      0.00
   -7   -3   14      2.03      0.00
   -6   -3   14     -0.20      0.00
   -5   -3   14      0.55      0.00
   -4   -3   14     -0.65      0.00
   -3   -3   14     -0.14      0.00
   -2   -3   14      1.62      0.00
   -1   -3   14      2.35      0.00
    0   -3   14      1.02      0.00
    1   -3   14      0.26      0.00
    2   -3   14      2.11      0.00
    3   -3   14     -0.66      0.00
    4   -3   14     -0.72      0.00
    5   -3   14      1.05      0.00
    6   -3   14      2.94      0.00
    7   -3   14      1.38      0.00
    8   -3   14     -0.07      0.00
    9   -3   14      1.10      0.00
   10   -3   14      0.84      0.00
   11   -3   14      0.97      0.00
   12   -3   14      0.58      0.00
   13   -3   14     -0.84      0.00
   -7   -2   14      1.49      0.00
   -6   -2   14      2.27      0.00
   -5   -2   14     -0.21      0.00
   -4   -2   14      0.07      0.00
   -3   -2   14     -2.73      0.00
   -2   -2   14     -1.26      0.00
   -1   -2   14     -1.86      0.00
    0   -2   14      0.68      0.00
    1   -2   14      0.18      0.00
    2   -2   14      0.48      0.00
    3   -2   14      1.16      0.00
    4   -2   14     -0.78      0.00
    5   -2   14     -0.86      0.00
    6   -2   14     -1.06      0.00
    7   -2   14     -1.49      0.00
    8   -2   14      0.76      0.00
    9   -2   14     -1.58      0.00
   10   -2   14      0.34      0.00
   11   -2   14      0.44      0.00
   12   -2   14      1.90      0.00
   13   -2   14     -0.10      0.00
   14   -2   14      0.72      0.00
   -7   -1   14     -2.54      0.00
   -6   -1   14     -1.97      0.00
   -5   -1   14     -2.25      0.00
   -4   -1   14      1.84      0.00
   -3   -1   14      2.44      0.00
   -2   -1   14      1.74      0.00
   -1   -1   14      0.82      0.00
    0   -1   14     -1.36      0.00
    1   -1   14     -1.11      0.00
    2   -1   14     -2.81      0.00
    3   -1   14      0.27      0.00
    4   -1   14      0.37      0.00
    5   -1   14     -0.44      0.00
    6   -1   14      0.00      0.00
    7   -1   14      1.05      0.00
    8   -1   14     -1.25      0.00
    9   -1   14      0.53      0.00
   10   -1   14     -0.66      0.00
   11   -1   14     -1.67      0.00
   12   -1   14     -0.66      0.00
   13   -1   14      0.02      0.00
   14   -1   14      0.46      0.00
   -9    0   14     -1.29      0.00
   -8    0   14     -0.24      0.00
   -7    0   14     -0.84      0.00
   -6    0   14      1.23      0.00
   -5    0   14      0.58      0.00
   -4    0   14     -0.23      0.00
   -3    0   14      0.73      0.00
   -2    0   14     -0.90      0.00
   -1    0   14      1.93      0.00
    0    0   14      0.14      0.00
    1    0   14      0.86      0.00
    2    0   14     -1.64      0.00
    3    0   14     -0.69      0.00
    4    0   14      1.50      0.00
    5    0   14     -0.36      0.00
    6    0   14      0.93      0.00
    7    0   14      0.48      0.00
    8    0   14      1.35      0.00
    9    0   14      0.62      0.00
   10    0   14      0.40      0.00
   11    0   14      1.12      0.00
   12    0   14     -0.61      0.00
   13    0   14     -0.37      0.00
   14    0   14     -0.21      0.00
   -9    1   14     -0.28      0.00
   -8    1   14     -0.25      0.00
   -7    1   14      1.00      0.00
   -6    1   14     -0.17      0.00
   -5    1   14      1.65      0.00
   -4    1   14     -1.78      0.00
   -3    1   14     -0.42      0.00
   -2    1   14     -1.51      0.00
   -1    1   14     -2.92      0.00
    0    1   14      0.46      0.00
    1    1   14     -0.54      0.00
    2    1   14      3.87      0.00
    3    1   14      0.86      0.00
    4    1   14      0.60      0.00
    5    1   14     -0.31      0.00
    6    1   14     -0.77      0.00
    7    1   14      0.65      0.00
    8    1   14     -0.24      0.00
    9    1   14     -0.06      0.00
   10    1   14     -0.35      0.00
   11    1   14      0.35      0.00
   12    1   14      1.22      0.00
   13    1   14      1.29      0.00
   14    1   14     -0.41      0.00
   -9    2   14     -0.64      0.00
   -8    2   14      0.36      0.00
   -7    2   14     -0.51      0.00
   -6    2   14     -1.21      0.00
   -5    2   14     -0.36      0.00
   -4    2   14     -0.25      0.00
   -3    2   14     -1.54      0.00
   -2    2   14      1.85      0.00
   -1    2   14      0.37      0.00
    0    2   14      1.31      0.00
    1    2   14     -0.14      0.00
    2    2   14     -0.30      0.00
    3    2   14     -1.28      0.00
    4    2   14     -0.78      0.00
    5    2   14     -1.72      0.00
    6    2   14     -1.42      0.00
    7    2   14     -2.48      0.00
    8    2   14     -0.97      0.00
    9    2   14     -1.04      0.00
   10    2   14     -0.99      0.00
   11    2   14     -1.22      0.00
   12    2   14     -0.48      0.00
   13    2   14     -0.55      0.00
   14    2   14      0.04      0.00
   15    2   14     -0.31      0.00
   -9    3   14      0.31      0.00
   -8    3   14      0.30      0.00
   -7    3   14      1.44      0.00
   -6    3   14      2.57      0.00
   -5    3   14     -0.99      0.00
   -4    3   14      2.42      0.00
   -3    3   14      0.40      0.00
   -2    3   14      0.87      0.00
   -1    3   14     -0.38      0.00
    0    3   14     -1.11      0.00
    1    3   14     -0.41      0.00
    2    3   14     -1.01      0.00
    3    3   14     -0.50      0.00
    4    3   14      0.94      0.00
    5    3   14      3.10      0.00
    6    3   14      3.11      0.00
    7    3   14      1.70      0.00
    8    3   14      1.68      0.00
    9    3   14      0.92      0.00
   10    3   14      0.48      0.00
   11    3   14     -0.51      0.00
   12    3   14     -0.72      0.00
   13    3   14      0.01      0.00
   14    3   14      0.27      0.00
   15    3   14      0.11      0.00
   -9    4   14     -0.56      0.00
   -8    4   14     -0.03      0.00
   -7    4   14     -0.62      0.00
   -6    4   14     -1.71      0.00
   -5    4   14      0.22      0.00
   -4    4   14     -0.62      0.00
   -3    4   14      1.49      0.00
   -2    4   14     -3.28      0.00
   -1    4   14      1.24      0.00
    0    4   14     -1.34      0.00
    1    4   14     -0.09      0.00
    2    4   14      0.40      0.00
    3    4   14      1.92      0.00
    4    4   14     -2.53      0.00
    5    4   14     -0.95      0.00
    6    4   14     -1.03      0.00
    7    4   14      0.90      0.00
    8    4   14     -0.12      0.00
    9    4   14     -0.66      0.00
   10    4   14      0.77      0.00
   11    4   14      3.35      0.00
   12    4   14      1.19      0.00
   13    4   14     -0.08      0.00
   14    4   14      0.36      0.00
   15    4   14      0.46      0.00
   -9    5   14     -0.16      0.00
   -8    5   14      1.04      0.00
   -7    5   14     -1.69      0.00
   -6    5   14     -0.32      0.00
   -5    5   14      0.53      0.00
   -4    5   14      0.15      0.00
   -3    5   14     -0.26      0.00
   -2    5   14     -0.30      0.00
   -1    5   14      0.89      0.00
    0    5   14      1.45      0.00
    1    5   14      1.53      0.00
    2    5   14     -0.38      0.00
    3    5   14     -1.49      0.00
    4    5   14      1.22      0.00
    5    5   14     -0.28      0.00
    6    5   14     -1.18      0.00
    7    5   14     -3.34      0.00
    8    5   14     -0.70      0.00
    9    5   14     -0.34      0.00
   10    5   14     -2.67      0.00
   11    5   14     -2.26      0.00
   12    5   14     -1.80      0.00
   13    5   14     -0.84      0.00
   14    5   14     -0.49      0.00
   15    5   14     -0.79      0.00
   -9    6   14      1.18      0.00
   -8    6   14     -0.35      0.00
   -7    6   14      0.69      0.00
   -6    6   14      1.00      0.00
   -5    6   14     -2.36      0.00
   -4    6   14     -1.22      0.00
   -3    6   14      0.05      0.00
   -2    6   14      2.10      0.00
   -1    6   14     -2.18      0.00
    0    6   14      0.56      0.00
    1    6   14      1.75      0.00
    2    6   14      1.24      0.00
    3    6   14      2.09      0.00
    4    6   14     -0.37      0.00
    5    6   14      0.62      0.00
    6    6   14      1.23      0.00
    7    6   14      3.01      0.00
    8    6   14      0.12      0.00
    9    6   14      0.58      0.00
   10    6   14      3.12      0.00
   11    6   14      2.01      0.00
   12    6   14      1.30      0.00
   13    6   14      1.58      0.00
   14    6   14     -0.90      0.00
   15    6   14     -0.50      0.00
   -9    7   14     -0.44      0.00
   -8    7   14     -1.10      0.00
   -7    7   14      0.56      0.00
   -6    7   14     -0.32      0.00
   -5    7   14      1.70      0.00
   -4    7   14      0.60      0.00
   -3    7   14     -0.60      0.00
   -2    7   14      1.14      0.00
   -1    7   14     -0.53      0.00
    0    7   14     -0.33      0.00
    1    7   14     -2.45      0.00
    2    7   14     -1.41      0.00
    3    7   14     -2.21      0.00
    4    7   14     -0.95      0.00
    5    7   14     -0.95      0.00
    6    7   14      0.05      0.00
    7    7   14     -0.44      0.00
    8    7   14     -0.61      0.00
    9    7   14     -0.37      0.00
   10    7   14     -2.82      0.00
   11    7   14     -1.19      0.00
   12    7   14     -1.17      0.00
   13    7   14      0.08      0.00
   14    7   14      0.67      0.00
   15    7   14      1.04      0.00
   -9    8   14      0.18      0.00
   -8    8   14      1.08      0.00
   -7    8   14      0.26      0.00
   -6    8   14      0.29      0.00
   -5    8   14      1.49      0.00
   -4    8   14      0.47      0.00
   -3    8   14     -0.25      0.00
   -2    8   14     -0.55      0.00
   -1    8   14      2.24      0.00
    0    8   14     -0.28      0.00
    1    8   14     -0.24      0.00
    2    8   14      0.67      0.00
    3    8   14     -0.71      0.00
    4    8   14      0.36      0.00
    5    8   14      0.50      0.00
    6    8   14     -2.20      0.00
    7    8   14     -0.87      0.00
    8    8   14      1.20      0.00
    9    8   14      2.92      0.00
   10    8   14      2.25      0.00
   11    8   14      1.16      0.00
   12    8   14      0.35      0.00
   13    8   14     -0.27      0.00
   14    8   14     -0.49      0.00
   15    8   14     -0.55      0.00
   -9    9   14      0.23      0.00
   -8    9   14     -1.16      0.00
   -7    9   14     -0.26      0.00
   -6    9   14     -1.90      0.00
   -5    9   14     -1.17      0.00
   -4    9   14     -0.33      0.00
   -3    9   14     -0.52      0.00
   -2    9   14     -2.37      0.00
   -1    9   14     -1.08      0.00
    0    9   14     -3.03      0.00
    1    9   14     -0.85      0.00
    2    9   14     -0.72      0.00
    3    9   14      2.31      0.00
    4    9   14      2.06      0.00
    5    9   14      4.81      0.00
    6    9   14     -0.25      0.00
    7    9   14     -1.21      0.00
    8    9   14     -2.81      0.00
    9    9   14     -4.77      0.00
   10    9   14     -0.71      0.00
   11    9   14     -1.24      0.00
   12    9   14     -0.10      0.00
   13    9   14     -0.32      0.00
   14    9   14      0.15      0.00
   -8   10   14     -1.38      0.00
   -7   10   14      1.68      0.00
   -6   10   14      1.52      0.00
   -5   10   14      0.11      0.00
   -4   10   14     -0.40      0.00
   -3   10   14      0.86      0.00
   -2   10   14      1.98      0.00
   -1   10   14      2.27      0.00
    0   10   14      4.24      0.00
    1   10   14      1.65      0.00
    2   10   14      0.60      0.00
    3   10   14     -2.33      0.00
    4   10   14     -1.58      0.00
    5   10   14     -4.57      0.00
    6   10   14      2.80      0.00
    7   10   14      4.88      0.00
    8   10   14      3.94      0.00
    9   10   14      3.73      0.00
   10   10   14      0.26      0.00
   11   10   14     -0.50      0.00
   12   10   14     -0.35      0.00
   13   10   14      0.41      0.00
   14   10   14     -0.16      0.00
   -8   11   14      0.69      0.00
   -7   11   14     -1.03      0.00
   -6   11   14      0.33      0.00
   -5   11   14     -0.58      0.00
   -4   11   14      0.74      0.00
   -3   11   14      0.40      0.00
   -2   11   14     -0.32      0.00
   -1   11   14     -1.40      0.00
    0   11   14     -1.88      0.00
    1   11   14      0.76      0.00
    2   11   14     -0.03      0.00
    3   11   14      0.92      0.00
    4   11   14     -1.07      0.00
    5   11   14     -1.52      0.00
    6   11   14     -3.05      0.00
    7   11   14     -4.11      0.00
    8   11   14     -3.94      0.00
   10   11   14     -0.27      0.00
   11   11   14      0.72      0.00
   12   11   14      0.81      0.00
   13   11   14      0.48      0.00
   14   11   14     -0.53      0.00
   -8   12   14      0.44      0.00
   -7   12   14     -0.62      0.00
   -6   12   14     -0.50      0.00
   -5   12   14      0.78      0.00
   -4   12   14     -0.36      0.00
   -3   12   14     -1.40      0.00
   -2   12   14      0.49      0.00
   -1   12   14     -0.39      0.00
    0   12   14      0.44      0.00
    1   12   14     -2.56      0.00
    2   12   14     -0.73      0.00
    3   12   14      1.94      0.00
    4   12   14      2.10      0.00
    5   12   14      2.89      0.00
    6   12   14      2.89      0.00
    7   12   14      3.29      0.00
    8   12   14      3.57      0.00
    9   12   14      0.99      0.00
   10   12   14     -0.02      0.00
   11   12   14     -0.94      0.00
   12   12   14      0.09      0.00
   13   12   14     -0.87      0.00
   14   12   14      1.34      0.00
   -7   13   14     -0.38      0.00
   -6   13   14     -0.82      0.00
   -5   13   14      0.84      0.00
   -4   13   14     -1.33      0.00
   -3   13   14      0.24      0.00
   -2   13   14     -1.22      0.00
   -1   13   14     -1.11      0.00
    0   13   14     -0.52      0.00
    1   13   14      0.78      0.00
    2   13   14      0.38      0.00
    3   13   14     -0.25      0.00
    4   13   14     -0.16      0.00
    5   13   14     -1.94      0.00
    6   13   14     -2.09      0.00
    7   13   14     -4.50      0.00
    8   13   14     -3.57      0.00
    9   13   14     -0.70      0.00
   10   13   14      0.15      0.00
   11   13   14      1.00      0.00
   12   13   14     -0.46      0.00
   13   13   14     -0.26      0.00
   -7   14   14      0.70      0.00
   -6   14   14      1.61      0.00
   -5   14   14     -1.02      0.00
   -4   14   14      1.69      0.00
   -3   14   14     -0.31      0.00
   -2   14   14      1.13      0.00
   -1   14   14      0.82      0.00
    0   14   14      0.94      0.00
    1   14   14      1.51      0.00
    2   14   14     -0.73      0.00
    3   14   14     -0.17      0.00
    4   14   14     -1.48      0.00
    5   14   14      2.04      0.00
    6   14   14      1.98      0.00
    7   14   14      4.96      0.00
    8   14   14      1.79      0.00
    9   14   14     -0.17      0.00
   10   14   14     -0.94      0.00
   11   14   14     -0.35      0.00
   12   14   14     -0.26      0.00
   13   14   14     -0.24      0.00
   -6   15   14     -0.79      0.00
   -5   15   14     -1.35      0.00
   -4   15   14     -0.66      0.00
   -3   15   14      1.54      0.00
   -2   15   14      0.37      0.00
   -1   15   14      0.04      0.00
    0   15   14      0.22      0.00
    1   15   14     -0.90      0.00
    2   15   14      3.05      0.00
    3   15   14     -2.36      0.00
    4   15   14      1.54      0.00
    5   15   14     -2.43      0.00
    6   15   14     -2.73      0.00
    7   15   14     -3.96      0.00
    8   15   14      0.61      0.00
    9   15   14      1.09      0.00
   10   15   14      1.77      0.00
   11   15   14     -0.69      0.00
   12   15   14      0.99      0.00
   -6   16   14      0.39      0.00
   -5   16   14      1.26      0.00
   -4   16   14      1.19      0.00
   -3   16   14     -0.01      0.00
   -2   16   14     -0.42      0.00
   -1   16   14      0.31      0.00
    0   16   14     -1.72      0.00
    1   16   14     -0.59      0.00
    2   16   14     -2.00      0.00
    3   16   14      0.29      0.00
    4   16   14     -1.26      0.00
    5   16   14      0.64      0.00
    6   16   14      3.11      0.00
    7   16   14     -0.85      0.00
    8   16   14     -0.59      0.00
    9   16   14     -1.86      0.00
   10   16   14     -0.18      0.00
   11   16   14      1.42      0.00
   12   16   14     -0.53      0.00
   -5   17   14      0.12      0.00
   -4   17   14     -0.85      0.00
   -3   17   14     -1.36      0.00
   -2   17   14      0.49      0.00
   -1   17   14     -0.89      0.00
    0   17   14      1.26      0.00
    1   17   14      0.29      0.00
    2   17   14      0.02      0.00
    3   17   14      2.12      0.00
    4   17   14     -0.79      0.00
    5   17   14      0.98      0.00
    6   17   14     -1.45      0.00
    7   17   14      2.60      0.00
    8   17   14      1.28      0.00
    9   17   14      0.97      0.00
   10   17   14     -0.11      0.00
   11   17   14     -2.00      0.00
   -4   18   14     -0.43      0.00
   -3   18   14      0.62      0.00
   -2   18   14     -1.05      0.00
   -1   18   14      0.03      0.00
    0   18   14      1.30      0.00
    1   18   14     -0.26      0.00
    2   18   14     -0.38      0.00
    3   18   14     -1.87      0.00
    4   18   14      1.50      0.00
    5   18   14     -0.17      0.00
    6   18   14      1.14      0.00
    7   18   14     -0.04      0.00
    8   18   14     -0.99      0.00
    9   18   14     -1.04      0.00
   10   18   14      0.94      0.00
   -3   19   14     -0.25      0.00
   -2   19   14      0.34      0.00
   -1   19   14     -0.03      0.00
    0   19   14     -1.60      0.00
    1   19   14      0.56      0.00
    2   19   14      0.75      0.00
    3   19   14      1.69      0.00
    4   19   14      0.03      0.00
    5   19   14     -0.21      0.00
    6   19   14     -1.58      0.00
    7   19   14     -0.27      0.00
    8   19   14     -0.36      0.00
    9   19   14      0.04      0.00
   -2   20   14     -0.07      0.00
   -1   20   14      0.72      0.00
    0   20   14     -0.09      0.00
    1   20   14     -0.88      0.00
    2   20   14     -0.90      0.00
    3   20   14     -0.91      0.00
    4   20   14      0.34      0.00
    5   20   14     -0.08      0.00
    6   20   14      0.20      0.00
    7   20   14      0.93      0.00
    8   20   14      0.05      0.00
    0   21   14      0.84      0.00
    1   21   14      1.44      0.00
    2   21   14      0.29      0.00
    3   21   14     -1.09      0.00
    5   21   14     -0.84      0.00
    6   21   14     -0.03      0.00
   -1  -11   15      0.30      0.00
    0  -11   15     -0.32      0.00
    1  -11   15     -0.15      0.00
    2  -11   15     -0.63      0.00
    3  -11   15     -0.87      0.00
    4  -11   15      0.27      0.00
    5  -11   15     -0.66      0.00
    6  -11   15      0.10      0.00
   -2  -10   15     -1.39      0.00
   -1  -10   15      1.64      0.00
    0  -10   15     -0.32      0.00
    1  -10   15      0.89      0.00
    2  -10   15     -0.07      0.00
    3  -10   15      1.94      0.00
    4  -10   15     -1.79      0.00
    5  -10   15      1.16      0.00
    6  -10   15     -0.41      0.00
    7  -10   15     -0.72      0.00
    8  -10   15     -0.69      0.00
   -3   -9   15      1.34      0.00
   -2   -9   15      1.50      0.00
   -1   -9   15     -1.88      0.00
    0   -9   15     -0.16      0.00
    1   -9   15      0.28      0.00
    2   -9   15      0.41      0.00
    3   -9   15     -0.29      0.00
    4   -9   15      0.91      0.00
    5   -9   15     -0.08      0.00
    6   -9   15     -0.13      0.00
    7   -9   15      0.50      0.00
    8   -9   15     -0.38      0.00
    9   -9   15      0.01      0.00
   -4   -8   15      0.04      0.00
   -3   -8   15     -1.02      0.00
   -2   -8   15     -1.52      0.00
   -1   -8   15      0.11      0.00
    0   -8   15      0.41      0.00
    1   -8   15     -0.08      0.00
    2   -8   15     -1.20      0.00
    3   -8   15     -0.56      0.00
    4   -8   15      0.53      0.00
    5   -8   15     -0.68      0.00
    6   -8   15     -0.53      0.00
    7   -8   15     -0.09      0.00
    8   -8   15      1.43      0.00
    9   -8   15     -0.53      0.00
   10   -8   15      0.13      0.00
   -5   -7   15     -1.26      0.00
   -4   -7   15      0.27      0.00
   -3   -7   15      1.31      0.00
   -2   -7   15     -0.34      0.00
   -1   -7   15      1.05      0.00
    0   -7   15     -0.15      0.00
    1   -7   15      1.24      0.00
    2   -7   15     -0.14      0.00
    3   -7   15     -1.19      0.00
    4   -7   15     -0.65      0.00
    5   -7   15      1.12      0.00
    6   -7   15      0.45      0.00
    7   -7   15     -0.36      0.00
    8   -7   15     -0.60      0.00
    9   -7   15     -1.68      0.00
   10   -7   15      0.05      0.00
   -6   -6   15      1.79      0.00
   -5   -6   15      1.17      0.00
   -4   -6   15     -0.05      0.00
   -3   -6   15     -2.12      0.00
   -2   -6   15      1.45      0.00
   -1   -6   15     -0.95      0.00
    0   -6   15     -0.44      0.00
    1   -6   15      1.08      0.00
    2   -6   15      0.94      0.00
    3   -6   15      1.89      0.00
    4   -6   15     -1.06      0.00
    5   -6   15     -0.42      0.00
    6   -6   15      1.11      0.00
    7   -6   15     -0.46      0.00
    8   -6   15      2.11      0.00
    9   -6   15     -0.30      0.00
   11   -6   15      0.15      0.00
   -6   -5   15     -1.66      0.00
   -5   -5   15      0.31      0.00
   -4   -5   15     -0.28      0.00
   -3   -5   15      1.21      0.00
   -2   -5   15     -0.32      0.00
   -1   -5   15     -0.74      0.00
    0   -5   15      0.16      0.00
    1   -5   15     -3.16      0.00
    2   -5   15     -1.97      0.00
    3   -5   15      0.12      0.00
    4   -5   15      1.69      0.00
    5   -5   15      0.96      0.00
    6   -5   15     -1.59      0.00
    7   -5   15     -0.79      0.00
    8   -5   15     -1.48      0.00
   10   -5   15      0.75      0.00
   11   -5   15      0.76      0.00
   12   -5   15     -0.28      0.00
   -6   -4   15      0.12      0.00
   -5   -4   15     -0.89      0.00
   -4   -4   15      0.45      0.00
   -3   -4   15     -0.34      0.00
   -2   -4   15     -0.13      0.00
   -1   -4   15      1.47      0.00
    0   -4   15      1.20      0.00
    1   -4   15      1.18      0.00
    2   -4   15      1.44      0.00
    3   -4   15     -2.19      0.00
    4   -4   15     -1.65      0.00
    5   -4   15     -0.35      0.00
    6   -4   15      0.05      0.00
    7   -4   15      0.97      0.00
    8   -4   15     -1.41      0.00
    9   -4   15      0.45      0.00
   10   -4   15     -1.97      0.00
   11   -4   15     -1.07      0.00
   12   -4   15     -1.54      0.00
   -7   -3   15      0.92      0.00
   -6   -3   15     -0.16      0.00
   -5   -3   15      1.03      0.00
   -4   -3   15      0.13      0.00
   -3   -3   15     -1.89      0.00
   -2   -3   15      0.88      0.00
   -1   -3   15     -1.22      0.00
    0   -3   15     -1.45      0.00
    1   -3   15     -0.17      0.00
    2   -3   15      2.06      0.00
    3   -3   15      2.60      0.00
    4   -3   15      0.26      0.00
    5   -3   15      1.04      0.00
    6   -3   15      1.05      0.00
    7   -3   15     -0.36      0.00
    8   -3   15      0.20      0.00
    9   -3   15      1.01      0.00
   10   -3   15      0.47      0.00
   11   -3   15     -0.40      0.00
   12   -3   15      0.83      0.00
   13   -3   15     -0.65      0.00
   -7   -2   15      1.25      0.00
   -6   -2   15      0.48      0.00
   -5   -2   15     -1.11      0.00
   -4   -2   15     -1.08      0.00
   -3   -2   15      1.15      0.00
   -2   -2   15      0.03      0.00
   -1   -2   15      1.67      0.00
    0   -2   15      0.53      0.00
    1   -2   15     -0.85      0.00
    2   -2   15     -1.65      0.00
    3   -2   15      0.20      0.00
    4   -2   15      0.06      0.00
    5   -2   15     -2.67      0.00
    6   -2   15     -0.29      0.00
    7   -2   15      0.73      0.00
    8   -2   15      1.68      0.00
    9   -2   15     -2.44      0.00
   10   -2   15      1.45      0.00
   11   -2   15      0.84      0.00
   12   -2   15      1.61      0.00
   13   -2   15      0.91      0.00
   -7   -1   15     -2.51      0.00
   -6   -1   15      0.71      0.00
   -5   -1   15     -0.38      0.00
   -4   -1   15      1.63      0.00
   -3   -1   15      2.13      0.00
   -2   -1   15     -1.01      0.00
   -1   -1   15     -0.37      0.00
    0   -1   15      0.62      0.00
    1   -1   15      0.68      0.00
    2   -1   15     -1.71      0.00
    3   -1   15     -2.09      0.00
    4   -1   15      1.31      0.00
    5   -1   15     -0.38      0.00
    6   -1   15     -0.83      0.00
    7   -1   15     -0.39      0.00
    8   -1   15     -2.47      0.00
    9   -1   15      1.86      0.00
   10   -1   15     -2.65      0.00
   11   -1   15     -0.15      0.00
   12   -1   15     -1.41      0.00
   13   -1   15     -0.31      0.00
   14   -1   15     -1.17      0.00
   -7    0   15     -1.47      0.00
   -6    0   15     -0.35      0.00
   -5    0   15     -0.04      0.00
   -4    0   15     -1.18      0.00
   -3    0   15     -0.41      0.00
   -2    0   15      1.32      0.00
   -1    0   15     -0.71      0.00
    0    0   15     -0.49      0.00
    1    0   15     -0.68      0.00
    2    0   15      1.07      0.00
    3    0   15      0.92      0.00
    4    0   15      0.54      0.00
    5    0   15      2.66      0.00
    6    0   15      1.16      0.00
    7    0   15      2.33      0.00
    8    0   15      1.82      0.00
    9    0   15      1.03      0.00
   10    0   15      0.94      0.00
   11    0   15      0.57      0.00
   12    0   15     -0.72      0.00
   13    0   15      0.93      0.00
   14    0   15      0.39      0.00
   -8    1   15     -1.17      0.00
   -7    1   15      0.90      0.00
   -6    1   15     -0.09      0.00
   -5    1   15      0.25      0.00
   -4    1   15     -1.21      0.00
   -3    1   15     -2.53      0.00
   -2    1   15     -2.66      0.00
   -1    1   15     -0.83      0.00
    0    1   15     -0.26      0.00
    1    1   15      0.21      0.00
    2    1   15      1.27      0.00
    3    1   15     -0.23      0.00
    4    1   15     -1.50      0.00
    5    1   15     -2.06      0.00
    6    1   15     -1.97      0.00
    7    1   15     -2.78      0.00
    8    1   15     -0.20      0.00
    9    1   15     -3.31      0.00
   10    1   15      0.21      0.00
   11    1   15      0.25      0.00
   12    1   15      0.97      0.00
   13    1   15     -0.28      0.00
   14    1   15      0.53      0.00
   -8    2   15      0.62      0.00
   -7    2   15      1.65      0.00
   -6    2   15     -0.09      0.00
   -5    2   15      2.49      0.00
   -4    2   15      2.26      0.00
   -3    2   15      1.86      0.00
   -2    2   15      2.11      0.00
   -1    2   15      1.10      0.00
    0    2   15     -0.05      0.00
    1    2   15      1.06      0.00
    2    2   15     -0.32      0.00
    3    2   15      1.33      0.00
    4    2   15     -0.11      0.00
    5    2   15      0.63      0.00
    6    2   15      1.06      0.00
    7    2   15      0.24      0.00
    8    2   15     -0.47      0.00
    9    2   15      0.85      0.00
   10    2   15     -1.37      0.00
   11    2   15     -1.38      0.00
   12    2   15     -1.06      0.00
   13    2   15     -0.15      0.00
   14    2   15     -0.14      0.00
   -8    3   15     -0.06      0.00
   -7    3   15      0.48      0.00
   -6    3   15     -0.66      0.00
   -5    3   15     -2.20      0.00
   -4    3   15      0.51      0.00
   -3    3   15      0.04      0.00
   -2    3   15      0.17      0.00
   -1    3   15      0.76      0.00
    0    3   15     -0.21      0.00
    1    3   15      0.09      0.00
    2    3   15     -1.34      0.00
    3    3   15     -1.34      0.00
    4    3   15      0.39      0.00
    5    3   15      0.42      0.00
    6    3   15      2.02      0.00
    7    3   15      1.15      0.00
    8    3   15      1.92      0.00
    9    3   15      0.70      0.00
   10    3   15      1.30      0.00
   11    3   15      2.04      0.00
   12    3   15      0.67      0.00
   13    3   15      0.13      0.00
   14    3   15     -0.59      0.00
   -8    4   15     -0.21      0.00
   -7    4   15     -0.81      0.00
   -6    4   15      0.26      0.00
   -5    4   15     -1.39      0.00
   -4    4   15     -0.90      0.00
   -3    4   15      0.05      0.00
   -2    4   15     -4.08      0.00
   -1    4   15     -0.52      0.00
    0    4   15     -0.60      0.00
    1    4   15     -0.77      0.00
    2    4   15      0.87      0.00
    3    4   15     -0.47      0.00
    4    4   15     -1.35      0.00
    5    4   15      0.47      0.00
    6    4   15     -2.12      0.00
    7    4   15     -0.53      0.00
    8    4   15     -1.28      0.00
    9    4   15      0.17      0.00
   10    4   15     -0.67      0.00
   11    4   15      0.66      0.00
   12    4   15     -0.61      0.00
   13    4   15     -0.30      0.00
   14    4   15      0.46      0.00
   -8    5   15     -0.06      0.00
   -7    5   15     -0.89      0.00
   -6    5   15      0.18      0.00
   -5    5   15      1.24      0.00
   -4    5   15     -0.22      0.00
   -3    5   15     -0.07      0.00
   -2    5   15      2.75      0.00
   -1    5   15     -0.15      0.00
    0    5   15      1.90      0.00
    1    5   15      1.24      0.00
    2    5   15      0.44      0.00
    3    5   15      1.65      0.00
    4    5   15      1.59      0.00
    5    5   15     -0.62      0.00
    6    5   15     -0.99      0.00
    7    5   15     -1.05      0.00
    8    5   15     -0.83      0.00
    9    5   15     -0.19      0.00
   10    5   15     -1.35      0.00
   11    5   15     -0.43      0.00
   12    5   15      0.35      0.00
   13    5   15      0.04      0.00
   14    5   15     -0.78      0.00
   -8    6   15     -0.90      0.00
   -7    6   15      1.19      0.00
   -6    6   15     -0.23      0.00
   -5    6   15      0.41      0.00
   -4    6   15     -0.02      0.00
   -3    6   15     -0.81      0.00
   -2    6   15      2.34      0.00
   -1    6   15     -1.97      0.00
    0    6   15     -0.26      0.00
    1    6   15     -0.07      0.00
    2    6   15     -0.29      0.00
    3    6   15     -1.55      0.00
    4    6   15      0.37      0.00
    5    6   15      1.08      0.00
    6    6   15      1.83      0.00
    7    6   15      1.80      0.00
    8    6   15     -0.07      0.00
    9    6   15      0.73      0.00
   10    6   15      1.70      0.00
   11    6   15     -1.91      0.00
   12    6   15     -0.78      0.00
   13    6   15      0.70      0.00
   14    6   15     -0.45      0.00
   -8    7   15      0.70      0.00
   -7    7   15      0.12      0.00
   -6    7   15     -0.33      0.00
   -5    7   15      0.27      0.00
   -4    7   15     -0.93      0.00
   -3    7   15      0.12      0.00
   -2    7   15     -0.95      0.00
   -1    7   15      2.76      0.00
    0    7   15     -1.03      0.00
    1    7   15     -0.94      0.00
    2    7   15      0.26      0.00
    3    7   15      0.05      0.00
    4    7   15     -2.12      0.00
    5    7   15     -1.64      0.00
    6    7   15     -1.69      0.00
    7    7   15      0.16      0.00
    8    7   15     -0.44      0.00
    9    7   15      0.22      0.00
   10    7   15      1.18      0.00
   11    7   15      3.05      0.00
   12    7   15      1.19      0.00
   13    7   15      0.81      0.00
   14    7   15      0.38      0.00
   -8    8   15      0.51      0.00
   -7    8   15     -0.47      0.00
   -6    8   15      0.07      0.00
   -5    8   15      0.87      0.00
   -4    8   15      2.08      0.00
   -3    8   15     -0.16      0.00
   -2    8   15     -0.59      0.00
   -1    8   15     -0.38      0.00
    0    8   15     -0.59      0.00
    1    8   15     -1.73      0.00
    2    8   15     -1.69      0.00
    3    8   15     -1.72      0.00
    4    8   15      1.41      0.00
    5    8   15      1.70      0.00
    6    8   15      1.20      0.00
    7    8   15     -2.04      0.00
    8    8   15      0.30      0.00
    9    8   15     -1.58      0.00
   10    8   15     -3.02      0.00
   11    8   15     -2.70      0.00
   12    8   15     -0.80      0.00
   13    8   15     -1.74      0.00
   14    8   15     -0.21      0.00
   -8    9   15     -0.74      0.00
   -7    9   15      0.70      0.00
   -6    9   15      0.58      0.00
   -5    9   15     -1.38      0.00
   -4    9   15     -1.28      0.00
   -3    9   15     -0.59      0.00
   -2    9   15     -1.53      0.00
   -1    9   15     -0.74      0.00
    0    9   15      1.09      0.00
    1    9   15      2.29      0.00
    2    9   15      2.43      0.00
    3    9   15      2.89      0.00
    4    9   15      1.57      0.00
    5    9   15      0.15      0.00
    6    9   15     -0.58      0.00
    7    9   15      2.19      0.00
    8    9   15      1.93      0.00
    9    9   15      2.36      0.00
   10    9   15      3.79      0.00
   11    9   15     -0.07      0.00
   12    9   15      0.69      0.00
   13    9   15      0.50      0.00
   14    9   15      0.65      0.00
   -8   10   15     -0.87      0.00
   -7   10   15     -0.77      0.00
   -6   10   15     -0.18      0.00
   -5   10   15     -0.58      0.00
   -4   10   15     -0.56      0.00
   -3   10   15      1.62      0.00
   -2   10   15      2.00      0.00
   -1   10   15      0.70      0.00
    0   10   15     -0.33      0.00
    1   10   15     -0.18      0.00
    2   10   15     -0.85      0.00
    3   10   15      0.70      0.00
    4   10   15     -2.77      0.00
    5   10   15     -1.22      0.00
    6   10   15     -0.96      0.00
    7   10   15     -0.74      0.00
    8   10   15     -4.03      0.00
    9   10   15     -3.72      0.00
   10   10   15     -2.74      0.00
   11   10   15     -0.26      0.00
   12   10   15     -0.52      0.00
   13   10   15      0.48      0.00
   14   10   15      0.21      0.00
   -7   11   15     -0.24      0.00
   -6   11   15      1.05      0.00
   -5   11   15      1.45      0.00
   -4   11   15      0.85      0.00
   -3   11   15     -0.52      0.00
   -2   11   15      0.82      0.00
   -1   11   15      0.29      0.00
    0   11   15      0.77      0.00
    1   11   15     -0.42      0.00
    2   11   15     -2.10      0.00
    3   11   15     -1.79      0.00
    4   11   15      0.63      0.00
    5   11   15     -0.99      0.00
    6   11   15      2.37      0.00
    7   11   15      1.21      0.00
    8   11   15      5.46      0.00
    9   11   15      3.88      0.00
   10   11   15      2.50      0.00
   11   11   15      0.02      0.00
   12   11   15      0.52      0.00
   13   11   15     -1.24      0.00
   14   11   15     -0.23      0.00
   -7   12   15     -0.16      0.00
   -6   12   15     -1.08      0.00
   -5   12   15     -1.38      0.00
   -4   12   15      0.19      0.00
   -3   12   15     -2.07      0.00
   -2   12   15     -1.49      0.00
   -1   12   15     -3.10      0.00
    0   12   15     -1.94      0.00
    1   12   15     -1.30      0.00
    2   12   15      1.91      0.00
    3   12   15      1.37      0.00
    4   12   15      1.77      0.00
    5   12   15      1.52      0.00
    6   12   15     -0.03      0.00
    7   12   15     -3.15      0.00
    8   12   15     -4.48      0.00
    9   12   15     -3.31      0.00
   10   12   15     -1.40      0.00
   11   12   15      1.07      0.00
   12   12   15      0.76      0.00
   13   12   15      0.18      0.00
   -7   13   15     -0.05      0.00
   -6   13   15      0.33      0.00
   -5   13   15      1.12      0.00
   -4   13   15     -0.77      0.00
   -3   13   15      1.89      0.00
   -2   13   15      0.23      0.00
   -1   13   15      2.56      0.00
    0   13   15      3.10      0.00
    1   13   15      1.71      0.00
    2   13   15      0.17      0.00
    3   13   15     -0.03      0.00
    4   13   15     -2.28      0.00
    5   13   15     -0.48      0.00
    6   13   15     -0.38      0.00
    7   13   15      2.67      0.00
    8   13   15      2.57      0.00
    9   13   15      1.55      0.00
   10   13   15     -0.93      0.00
   11   13   15     -1.13      0.00
   12   13   15     -1.08      0.00
   13   13   15     -0.10      0.00
   -6   14   15     -0.37      0.00
   -5   14   15     -0.53      0.00
   -4   14   15      0.29      0.00
   -3   14   15     -0.01      0.00
   -2   14   15      0.57      0.00
   -1   14   15     -1.22      0.00
    0   14   15     -1.22      0.00
    1   14   15     -0.03      0.00
    2   14   15      0.57      0.00
    3   14   15     -1.31      0.00
    4   14   15      1.01      0.00
    5   14   15     -1.91      0.00
    6   14   15     -1.42      0.00
    7   14   15     -3.10      0.00
    8   14   15     -1.43      0.00
    9   14   15     -0.73      0.00
   10   14   15      1.57      0.00
   11   14   15      0.33      0.00
   12   14   15      0.14      0.00
   13   14   15      0.39      0.00
   -6   15   15      0.19      0.00
   -5   15   15     -0.19      0.00
   -4   15   15      1.14      0.00
   -3   15   15      0.03      0.00
   -2   15   15     -0.14      0.00
   -1   15   15      0.27      0.00
    0   15   15     -0.32      0.00
    1   15   15     -1.13      0.00
    2   15   15     -0.02      0.00
    3   15   15     -0.97      0.00
    4   15   15      2.00      0.00
    5   15   15      1.98      0.00
    6   15   15      1.74      0.00
    7   15   15      2.59      0.00
    8   15   15      1.93      0.00
    9   15   15      0.84      0.00
   10   15   15     -0.17      0.00
   11   15   15      0.19      0.00
   12   15   15      0.71      0.00
   -5   16   15     -0.20      0.00
   -4   16   15     -1.14      0.00
   -3   16   15      0.38      0.00
   -2   16   15     -0.34      0.00
   -1   16   15      0.57      0.00
    0   16   15     -0.43      0.00
    1   16   15      0.44      0.00
    2   16   15     -0.92      0.00
    3   16   15      1.67      0.00
    4   16   15     -2.90      0.00
    5   16   15      0.77      0.00
    6   16   15     -1.56      0.00
    7   16   15     -2.78      0.00
    8   16   15     -1.12      0.00
    9   16   15     -0.20      0.00
   10   16   15      0.63      0.00
   11   16   15     -0.32      0.00
   12   16   15     -0.44      0.00
   -4   17   15      0.58      0.00
   -3   17   15     -0.35      0.00
   -2   17   15      0.19      0.00
   -1   17   15     -0.40      0.00
    0   17   15      1.33      0.00
    1   17   15      0.25      0.00
    2   17   15      0.15      0.00
    3   17   15     -1.67      0.00
    4   17   15     -0.44      0.00
    5   17   15     -0.81      0.00
    6   17   15      2.35      0.00
    7   17   15      3.29      0.00
    8   17   15     -0.12      0.00
    9   17   15     -1.10      0.00
   10   17   15     -0.94      0.00
   11   17   15      0.09      0.00
   -4   18   15     -1.13      0.00
   -3   18   15     -0.41      0.00
   -2   18   15     -1.22      0.00
   -1   18   15      0.31      0.00
    0   18   15     -1.15      0.00
    1   18   15     -0.36      0.00
    2   18   15      0.32      0.00
    3   18   15      1.80      0.00
    4   18   15      2.30      0.00
    5   18   15     -0.40      0.00
    6   18   15     -1.91      0.00
    7   18   15      0.18      0.00
    8   18   15     -0.36      0.00
    9   18   15      0.93      0.00
   10   18   15     -0.56      0.00
   -2   19   15     -0.14      0.00
   -1   19   15      0.16      0.00
    0   19   15      0.11      0.00
    1   19   15      0.32      0.00
    2   19   15     -1.00      0.00
    3   19   15     -0.29      0.00
    4   19   15     -0.03      0.00
    5   19   15     -0.11      0.00
    6   19   15     -0.17      0.00
    7   19   15     -0.51      0.00
    8   19   15      0.26      0.00
    9   19   15      0.52      0.00
   -1   20   15      0.16      0.00
    0   20   15     -0.13      0.00
    1   20   15      0.30      0.00
    2   20   15      1.09      0.00
    3   20   15     -0.84      0.00
    4   20   15      1.07      0.00
    5   20   15     -0.40      0.00
    6   20   15      0.31      0.00
    7   20   15     -0.86      0.00
    8   20   15     -0.57      0.00
    1   21   15      0.16      0.00
    2   21   15     -0.98      0.00
    3   21   15      0.15      0.00
    4   21   15     -1.93      0.00
    5   21   15      0.69      0.00
    6   21   15     -0.45      0.00
    0  -10   16     -1.28      0.00
    1  -10   16     -0.16      0.00
    2  -10   16      0.95      0.00
    3  -10   16      0.36      0.00
    4  -10   16     -1.25      0.00
    5  -10   16      1.05      0.00
    6  -10   16     -0.17      0.00
   -2   -9   16      0.32      0.00
   -1   -9   16     -1.81      0.00
    0   -9   16      1.02      0.00
    1   -9   16     -0.63      0.00
    2   -9   16     -1.32      0.00
    3   -9   16      0.61      0.00
    4   -9   16      0.13      0.00
    5   -9   16     -0.29      0.00
    6   -9   16      0.03      0.00
    7   -9   16      0.19      0.00
    8   -9   16      0.44      0.00
   -3   -8   16      0.33      0.00
   -2   -8   16      0.70      0.00
   -1   -8   16     -0.04      0.00
    0   -8   16      0.39      0.00
    1   -8   16      1.25      0.00
    2   -8   16     -0.76      0.00
    3   -8   16     -1.61      0.00
    4   -8   16      0.78      0.00
    5   -8   16     -0.10      0.00
    6   -8   16     -0.68      0.00
    7   -8   16      0.14      0.00
    8   -8   16      0.29      0.00
    9   -8   16     -0.76      0.00
   -4   -7   16     -0.49      0.00
   -3   -7   16     -0.76      0.00
   -2   -7   16     -1.87      0.00
   -1   -7   16      0.83      0.00
    0   -7   16      0.27      0.00
    1   -7   16      0.53      0.00
    2   -7   16      1.89      0.00
    3   -7   16      0.06      0.00
    4   -7   16     -0.93      0.00
    5   -7   16      0.62      0.00
    6   -7   16     -0.05      0.00
    7   -7   16     -1.03      0.00
    8   -7   16     -1.15      0.00
    9   -7   16     -1.29      0.00
   10   -7   16     -0.50      0.00
   -5   -6   16      0.31      0.00
   -4   -6   16     -0.28      0.00
   -3   -6   16     -0.12      0.00
   -2   -6   16      2.73      0.00
   -1   -6   16     -1.51      0.00
    0   -6   16     -0.67      0.00
    1   -6   16     -1.46      0.00
    2   -6   16     -1.00      0.00
    3   -6   16      1.05      0.00
    4   -6   16     -0.41      0.00
    5   -6   16      1.11      0.00
    6   -6   16      1.45      0.00
    7   -6   16      0.92      0.00
    8   -6   16      1.33      0.00
    9   -6   16      0.84      0.00
   10   -6   16      1.03      0.00
   -5   -5   16     -0.19      0.00
   -4   -5   16      0.24      0.00
   -3   -5   16     -0.35      0.00
   -2   -5   16     -0.81      0.00
   -1   -5   16      0.81      0.00
    0   -5   16      0.10      0.00
    1   -5   16     -1.10      0.00
    2   -5   16      0.23      0.00
    3   -5   16      0.32      0.00
    4   -5   16      0.11      0.00
    5   -5   16     -1.54      0.00
    6   -5   16     -1.40      0.00
    7   -5   16     -0.05      0.00
    8   -5   16     -0.45      0.00
    9   -5   16      2.40      0.00
   11   -5   16      0.65      0.00
   -6   -4   16     -0.52      0.00
   -5   -4   16     -0.31      0.00
   -4   -4   16      0.51      0.00
   -3   -4   16      0.41      0.00
   -2   -4   16     -0.09      0.00
   -1   -4   16      1.48      0.00
    0   -4   16      0.11      0.00
    1   -4   16      0.14      0.00
    2   -4   16      0.29      0.00
    3   -4   16     -1.28      0.00
    4   -4   16      0.13      0.00
    5   -4   16      1.27      0.00
    6   -4   16     -0.38      0.00
    7   -4   16     -0.45      0.00
    8   -4   16     -3.31      0.00
   10   -4   16     -0.26      0.00
   11   -4   16     -0.93      0.00
   12   -4   16     -1.14      0.00
   -6   -3   16      0.84      0.00
   -5   -3   16      1.93      0.00
   -4   -3   16     -0.67      0.00
   -3   -3   16     -1.10      0.00
   -2   -3   16      0.47      0.00
   -1   -3   16     -0.52      0.00
    0   -3   16     -0.49      0.00
    1   -3   16      2.22      0.00
    2   -3   16      0.97      0.00
    3   -3   16      2.18      0.00
    4   -3   16     -0.46      0.00
    5   -3   16     -1.58      0.00
    6   -3   16      1.14      0.00
    7   -3   16      1.28      0.00
    9   -3   16     -0.34      0.00
   10   -3   16      0.47      0.00
   11   -3   16      0.66      0.00
   12   -3   16      2.40      0.00
   -7   -2   16     -1.49      0.00
   -6   -2   16     -0.57      0.00
   -5   -2   16     -2.06      0.00
   -4   -2   16     -0.94      0.00
   -3   -2   16      2.12      0.00
   -2   -2   16     -1.48      0.00
   -1   -2   16     -0.59      0.00
    0   -2   16     -0.73      0.00
    1   -2   16     -2.43      0.00
    2   -2   16     -1.16      0.00
    3   -2   16     -0.85      0.00
    4   -2   16      2.06      0.00
    5   -2   16     -0.58      0.00
    6   -2   16     -0.98      0.00
    7   -2   16     -0.63      0.00
    8   -2   16     -1.10      0.00
    9   -2   16     -1.57      0.00
   10   -2   16      0.17      0.00
   11   -2   16     -0.30      0.00
   12   -2   16     -0.20      0.00
   13   -2   16      0.51      0.00
   -7   -1   16     -1.88      0.00
   -6   -1   16      0.66      0.00
   -5   -1   16     -1.45      0.00
   -4   -1   16      0.78      0.00
   -3   -1   16      1.10      0.00
   -2   -1   16      1.17      0.00
   -1   -1   16      0.89      0.00
    0   -1   16      2.05      0.00
    1   -1   16      1.06      0.00
    2   -1   16     -1.09      0.00
    3   -1   16     -1.96      0.00
    4   -1   16     -0.70      0.00
    5   -1   16      0.54      0.00
    6   -1   16      0.71      0.00
    7   -1   16      1.17      0.00
    8   -1   16      0.26      0.00
    9   -1   16      0.79      0.00
   10   -1   16     -1.65      0.00
   11   -1   16      1.12      0.00
   12   -1   16     -2.09      0.00
   13   -1   16     -0.30      0.00
   -7    0   16      0.62      0.00
   -6    0   16      0.45      0.00
   -5    0   16      2.69      0.00
   -4    0   16      0.39      0.00
   -3    0   16     -1.86      0.00
   -2    0   16      0.03      0.00
   -1    0   16     -2.04      0.00
    0    0   16     -1.53      0.00
    1    0   16      0.78      0.00
    2    0   16      0.94      0.00
    3    0   16      1.24      0.00
    4    0   16     -1.12      0.00
    5    0   16      1.41      0.00
    6    0   16     -0.05      0.00
    7    0   16     -0.63      0.00
    8    0   16      0.44      0.00
    9    0   16     -0.10      0.00
   10    0   16     -0.11      0.00
   11    0   16      0.38      0.00
   12    0   16      0.37      0.00
   13    0   16      0.48      0.00
   -7    1   16      1.53      0.00
   -6    1   16     -0.98      0.00
   -5    1   16     -0.58      0.00
   -4    1   16     -0.04      0.00
   -3    1   16     -1.61      0.00
   -2    1   16     -0.99      0.00
   -1    1   16      1.67      0.00
    0    1   16     -1.07      0.00
    1    1   16     -0.17      0.00
    2    1   16      0.30      0.00
    3    1   16      1.49      0.00
    4    1   16      0.84      0.00
    5    1   16     -1.65      0.00
    6    1   16     -1.22      0.00
    7    1   16     -1.10      0.00
    8    1   16      0.90      0.00
    9    1   16     -1.10      0.00
   10    1   16      1.46      0.00
   11    1   16     -0.69      0.00
   12    1   16     -0.43      0.00
   13    1   16     -0.36      0.00
   14    1   16      0.94      0.00
   -8    2   16     -0.68      0.00
   -7    2   16      1.02      0.00
   -6    2   16     -1.01      0.00
   -5    2   16      0.75      0.00
   -4    2   16      0.47      0.00
   -3    2   16      1.15      0.00
   -2    2   16     -0.33      0.00
   -1    2   16     -0.07      0.00
    0    2   16      1.58      0.00
    1    2   16      0.59      0.00
    2    2   16      0.15      0.00
    3    2   16     -1.76      0.00
    4    2   16     -0.56      0.00
    5    2   16      0.29      0.00
    6    2   16      1.51      0.00
    7    2   16      0.56      0.00
    8    2   16     -1.86      0.00
    9    2   16      0.64      0.00
   10    2   16     -1.51      0.00
   11    2   16      0.55      0.00
   12    2   16      0.35      0.00
   13    2   16     -0.50      0.00
   14    2   16     -1.53      0.00
   -8    3   16      0.44      0.00
   -7    3   16     -0.56      0.00
   -6    3   16      0.83      0.00
   -5    3   16      0.19      0.00
   -4    3   16      0.71      0.00
   -3    3   16      1.79      0.00
   -2    3   16      0.62      0.00
   -1    3   16     -0.46      0.00
    0    3   16     -0.17      0.00
    1    3   16     -1.54      0.00
    2    3   16      0.23      0.00
    3    3   16     -0.56      0.00
    4    3   16      0.76      0.00
    5    3   16      0.52      0.00
    6    3   16      1.29      0.00
    7    3   16      0.67      0.00
    8    3   16      1.30      0.00
    9    3   16      1.68      0.00
   10    3   16      0.49      0.00
   11    3   16      1.17      0.00
   12    3   16      1.11      0.00
   13    3   16      0.57      0.00
   14    3   16      0.55      0.00
   -8    4   16      0.37      0.00
   -7    4   16     -1.27      0.00
   -6    4   16     -0.43      0.00
   -5    4   16     -3.35      0.00
   -4    4   16     -0.67      0.00
   -3    4   16     -0.90      0.00
   -2    4   16     -0.56      0.00
   -1    4   16      0.22      0.00
    0    4   16      1.36      0.00
    1    4   16      0.64      0.00
    2    4   16     -0.48      0.00
    3    4   16      0.71      0.00
    4    4   16     -1.32      0.00
    5    4   16      0.42      0.00
    6    4   16     -3.86      0.00
    7    4   16     -0.66      0.00
    8    4   16     -1.68      0.00
    9    4   16     -0.64      0.00
   10    4   16     -0.33      0.00
   11    4   16     -0.93      0.00
   12    4   16      0.15      0.00
   13    4   16     -0.41      0.00
   14    4   16     -0.19      0.00
   -8    5   16     -0.10      0.00
   -7    5   16      1.08      0.00
   -6    5   16      0.53      0.00
   -5    5   16      2.32      0.00
   -4    5   16     -1.42      0.00
   -3    5   16     -1.34      0.00
   -2    5   16      1.31      0.00
   -1    5   16     -1.34      0.00
    0    5   16     -0.97      0.00
    1    5   16      0.30      0.00
    2    5   16     -0.18      0.00
    3    5   16      0.07      0.00
    4    5   16      1.29      0.00
    5    5   16      0.82      0.00
    6    5   16      1.93      0.00
    7    5   16      0.04      0.00
    8    5   16     -0.04      0.00
    9    5   16     -0.55      0.00
   10    5   16      0.55      0.00
   11    5   16     -2.09      0.00
   12    5   16     -1.57      0.00
   13    5   16     -0.28      0.00
   14    5   16     -0.52      0.00
   -8    6   16     -0.21      0.00
   -7    6   16     -0.39      0.00
   -6    6   16      0.35      0.00
   -5    6   16      1.20      0.00
   -4    6   16     -0.92      0.00
   -3    6   16     -0.72      0.00
   -2    6   16      1.01      0.00
   -1    6   16      0.67      0.00
    0    6   16     -0.21      0.00
    1    6   16     -0.36      0.00
    2    6   16      0.77      0.00
    3    6   16     -0.24      0.00
    4    6   16      1.16      0.00
    5    6   16     -1.92      0.00
    6    6   16      0.54      0.00
    7    6   16      0.92      0.00
    8    6   16      2.04      0.00
    9    6   16      0.08      0.00
   10    6   16      1.75      0.00
   11    6   16      1.29      0.00
   12    6   16      1.89      0.00
   13    6   16      1.30      0.00
   14    6   16      0.55      0.00
   -8    7   16      1.08      0.00
   -7    7   16     -1.17      0.00
   -6    7   16      0.18      0.00
   -5    7   16     -0.39      0.00
   -4    7   16      3.25      0.00
   -3    7   16      2.17      0.00
   -2    7   16     -0.86      0.00
   -1    7   16      2.15      0.00
    0    7   16     -0.49      0.00
    1    7   16     -0.34      0.00
    2    7   16     -0.97      0.00
    3    7   16     -0.68      0.00
    4    7   16     -3.80      0.00
    5    7   16     -0.14      0.00
    6    7   16     -1.33      0.00
    7    7   16     -1.61      0.00
    8    7   16     -1.75      0.00
    9    7   16     -0.68      0.00
   10    7   16     -0.74      0.00
   11    7   16     -1.14      0.00
   12    7   16     -1.37      0.00
   13    7   16     -1.03      0.00
   14    7   16     -0.08      0.00
   -8    8   16     -0.24      0.00
   -7    8   16      1.15      0.00
   -6    8   16     -0.01      0.00
   -5    8   16     -1.44      0.00
   -4    8   16     -0.17      0.00
   -3    8   16     -1.77      0.00
   -2    8   16     -0.26      0.00
   -1    8   16     -2.11      0.00
    0    8   16      0.80      0.00
    1    8   16     -0.99      0.00
    2    8   16      0.58      0.00
    3    8   16      0.77      0.00
    4    8   16      3.86      0.00
    5    8   16      1.29      0.00
    6    8   16      1.83      0.00
    7    8   16     -0.96      0.00
    8    8   16      0.97      0.00
    9    8   16      0.34      0.00
   10    8   16      0.80      0.00
   11    8   16      1.52      0.00
   12    8   16      1.28      0.00
   13    8   16     -0.15      0.00
   14    8   16      0.26      0.00
   -7    9   16     -0.48      0.00
   -6    9   16     -0.13      0.00
   -5    9   16     -0.74      0.00
   -4    9   16     -1.81      0.00
   -3    9   16      0.71      0.00
   -2    9   16     -0.54      0.00
   -1    9   16     -0.55      0.00
    0    9   16     -0.63      0.00
    1    9   16      0.77      0.00
    2    9   16     -0.05      0.00
    3    9   16      0.70      0.00
    4    9   16     -1.51      0.00
    5    9   16      0.49      0.00
    6    9   16      0.58      0.00
    7    9   16      3.24      0.00
    8    9   16      0.17      0.00
    9    9   16     -1.48      0.00
   10    9   16     -2.18      0.00
   11    9   16     -2.39      0.00
   12    9   16     -0.35      0.00
   13    9   16     -0.63      0.00
   14    9   16      0.59      0.00
   -7   10   16     -0.08      0.00
   -6   10   16      0.85      0.00
   -5   10   16      2.07      0.00
   -4   10   16     -0.08      0.00
   -3   10   16      0.59      0.00
   -2   10   16      1.03      0.00
   -1   10   16      1.52      0.00
    0   10   16      1.06      0.00
    1   10   16      1.94      0.00
    2   10   16     -0.20      0.00
    3   10   16      1.38      0.00
    4   10   16     -2.38      0.00
    5   10   16     -2.13      0.00
    6   10   16     -3.26      0.00
    7   10   16     -0.43      0.00
    8   10   16      1.33      0.00
    9   10   16      2.90      0.00
   10   10   16      3.44      0.00
   11   10   16      1.24      0.00
   12   10   16     -0.34      0.00
   13   10   16      1.26      0.00
   14   10   16      0.13      0.00
   -7   11   16      0.62      0.00
   -6   11   16     -1.31      0.00
   -5   11   16     -1.08      0.00
   -4   11   16      0.53      0.00
   -3   11   16     -0.94      0.00
   -2   11   16      0.66      0.00
   -1   11   16     -1.50      0.00
    0   11   16     -1.35      0.00
    1   11   16     -3.15      0.00
    2   11   16     -0.16      0.00
    3   11   16     -2.20      0.00
    4   11   16      4.01      0.00
    5   11   16     -0.42      0.00
    6   11   16      2.79      0.00
    7   11   16     -3.04      0.00
    8   11   16     -3.03      0.00
    9   11   16     -3.35      0.00
   10   11   16     -3.37      0.00
   11   11   16     -0.14      0.00
   12   11   16      0.24      0.00
   13   11   16     -1.03      0.00
   -7   12   16     -0.46      0.00
   -6   12   16      0.17      0.00
   -5   12   16      0.23      0.00
   -4   12   16      0.95      0.00
   -3   12   16     -0.04      0.00
   -2   12   16     -1.28      0.00
   -1   12   16      0.40      0.00
    0   12   16      1.42      0.00
    1   12   16      2.09      0.00
    2   12   16      0.35      0.00
    3   12   16      0.39      0.00
    4   12   16     -0.70      0.00
    5   12   16      1.89      0.00
    6   12   16      0.98      0.00
    7   12   16      2.04      0.00
    8   12   16      2.04      0.00
    9   12   16      3.45      0.00
   10   12   16      1.46      0.00
   11   12   16      0.68      0.00
   12   12   16     -0.08      0.00
   13   12   16     -0.58      0.00
   -6   13   16      0.09      0.00
   -5   13   16      0.77      0.00
   -4   13   16     -1.42      0.00
   -3   13   16      1.12      0.00
   -2   13   16     -0.63      0.00
   -1   13   16     -0.36      0.00
    0   13   16     -1.04      0.00
    1   13   16     -1.80      0.00
    2   13   16      0.66      0.00
    3   13   16     -0.56      0.00
    4   13   16     -2.02      0.00
    5   13   16     -1.24      0.00
    6   13   16     -2.13      0.00
    7   13   16     -0.81      0.00
    8   13   16     -1.61      0.00
    9   13   16     -2.85      0.00
   10   13   16     -1.19      0.00
   11   13   16     -0.24      0.00
   12   13   16      0.46      0.00
   13   13   16      1.12      0.00
   -6   14   16     -0.58      0.00
   -5   14   16     -0.12      0.00
   -4   14   16      0.13      0.00
   -3   14   16      0.69      0.00
   -2   14   16      0.45      0.00
   -1   14   16      1.11      0.00
    0   14   16      2.25      0.00
    1   14   16      2.16      0.00
    2   14   16      0.31      0.00
    3   14   16     -0.76      0.00
    4   14   16      2.22      0.00
    5   14   16     -0.28      0.00
    6   14   16      0.62      0.00
    7   14   16      0.47      0.00
    8   14   16      3.13      0.00
    9   14   16      2.60      0.00
   10   14   16      1.36      0.00
   11   14   16      0.04      0.00
   12   14   16     -0.70      0.00
   -5   15   16     -1.16      0.00
   -4   15   16      0.53      0.00
   -3   15   16     -1.19      0.00
   -2   15   16      0.48      0.00
   -1   15   16     -0.40      0.00
    0   15   16     -2.02      0.00
    1   15   16     -0.27      0.00
    2   15   16     -1.41      0.00
    3   15   16      2.24      0.00
    4   15   16     -0.87      0.00
    5   15   16      1.58      0.00
    6   15   16     -1.66      0.00
    7   15   16     -1.54      0.00
    8   15   16     -3.99      0.00
    9   15   16     -1.63      0.00
   10   15   16     -1.15      0.00
   11   15   16      0.75      0.00
   12   15   16      0.21      0.00
   -4   16   16      0.11      0.00
   -3   16   16      0.99      0.00
   -2   16   16     -1.13      0.00
   -1   16   16      0.36      0.00
    0   16   16     -0.69      0.00
    1   16   16     -1.42      0.00
    2   16   16      0.17      0.00
    3   16   16     -2.25      0.00
    4   16   16     -1.33      0.00
    5   16   16     -0.33      0.00
    6   16   16      1.91      0.00
    7   16   16      2.78      0.00
    8   16   16      2.77      0.00
    9   16   16      1.19      0.00
   10   16   16     -0.46      0.00
   11   16   16     -0.93      0.00
   -4   17   16     -0.47      0.00
   -3   17   16     -1.09      0.00
   -2   17   16     -0.39      0.00
   -1   17   16      0.20      0.00
    0   17   16      0.11      0.00
    1   17   16      0.79      0.00
    2   17   16      0.64      0.00
    3   17   16      0.72      0.00
    4   17   16      1.85      0.00
    5   17   16      0.36      0.00
    6   17   16      0.27      0.00
    7   17   16     -0.32      0.00
    8   17   16     -1.11      0.00
    9   17   16     -0.18      0.00
   10   17   16      1.02      0.00
   11   17   16      0.71      0.00
   -3   18   16      0.60      0.00
   -2   18   16      0.61      0.00
   -1   18   16     -0.10      0.00
    0   18   16      0.58      0.00
    1   18   16      0.64      0.00
    2   18   16     -1.10      0.00
    3   18   16      0.71      0.00
    4   18   16     -1.33      0.00
    5   18   16     -0.85      0.00
    6   18   16     -1.57      0.00
    7   18   16      0.55      0.00
    8   18   16     -0.61      0.00
    9   18   16     -0.96      0.00
   10   18   16     -1.11      0.00
   -2   19   16      0.48      0.00
   -1   19   16      0.49      0.00
    0   19   16      0.09      0.00
    1   19   16     -0.85      0.00
    2   19   16      0.37      0.00
    3   19   16      0.54      0.00
    4   19   16      1.72      0.00
    5   19   16     -0.48      0.00
    6   19   16      0.25      0.00
    7   19   16     -1.61      0.00
    8   19   16      0.80      0.00
    9   19   16      0.80      0.00
    0   20   16      0.05      0.00
    1   20   16      1.18      0.00
    2   20   16      0.21      0.00
    3   20   16     -1.00      0.00
    4   20   16     -0.82      0.00
    5   20   16      0.51      0.00
    6   20   16      0.09      0.00
    7   20   16      0.06      0.00
    3   21   16      0.50      0.00
    4   21   16     -0.93      0.00
    0   -9   17      0.31      0.00
    1   -9   17     -0.21      0.00
    2   -9   17     -1.51      0.00
    3   -9   17      0.60      0.00
    4   -9   17     -1.44      0.00
    5   -9   17      1.35      0.00
    6   -9   17     -0.78      0.00
   -1   -8   17     -1.80      0.00
    0   -8   17      1.32      0.00
    1   -8   17      0.72      0.00
    2   -8   17      0.40      0.00
    3   -8   17     -1.28      0.00
    4   -8   17      0.19      0.00
    5   -8   17     -1.08      0.00
    6   -8   17     -0.07      0.00
    7   -8   17      0.14      0.00
    8   -8   17     -0.99      0.00
   -3   -7   17     -0.24      0.00
   -2   -7   17      1.30      0.00
   -1   -7   17      1.85      0.00
    0   -7   17     -1.12      0.00
    1   -7   17     -0.27      0.00
    2   -7   17      0.88      0.00
    3   -7   17     -0.35      0.00
    4   -7   17      0.02      0.00
    5   -7   17     -0.07      0.00
    6   -7   17      0.93      0.00
    7   -7   17     -0.56      0.00
    8   -7   17      0.59      0.00
    9   -7   17     -0.48      0.00
   -3   -6   17     -0.54      0.00
   -2   -6   17     -0.73      0.00
   -1   -6   17     -0.01      0.00
    0   -6   17     -1.07      0.00
    1   -6   17     -0.57      0.00
    2   -6   17     -0.55      0.00
    3   -6   17      1.95      0.00
    4   -6   17      0.52      0.00
    5   -6   17      0.23      0.00
    6   -6   17      0.05      0.00
    7   -6   17      0.00      0.00
    8   -6   17     -0.04      0.00
    9   -6   17      1.43      0.00
   10   -6   17      0.36      0.00
   -4   -5   17      0.41      0.00
   -3   -5   17      0.13      0.00
   -2   -5   17      0.87      0.00
   -1   -5   17      0.53      0.00
    0   -5   17      0.25      0.00
    1   -5   17      0.02      0.00
    2   -5   17     -0.45      0.00
    3   -5   17     -1.13      0.00
    4   -5   17     -1.00      0.00
    5   -5   17     -0.65      0.00
    6   -5   17      0.23      0.00
    7   -5   17     -0.21      0.00
    8   -5   17     -0.88      0.00
    9   -5   17      0.00      0.00
   10   -5   17     -1.02      0.00
   -5   -4   17      1.12      0.00
   -4   -4   17      0.13      0.00
   -3   -4   17      0.37      0.00
   -2   -4   17     -0.69      0.00
   -1   -4   17      0.47      0.00
    0   -4   17     -0.14      0.00
    1   -4   17      0.57      0.00
    2   -4   17      1.67      0.00
    3   -4   17      0.83      0.00
    4   -4   17      0.68      0.00
    5   -4   17     -0.94      0.00
    6   -4   17     -1.02      0.00
    7   -4   17      1.24      0.00
    8   -4   17     -0.18      0.00
    9   -4   17      0.57      0.00
   10   -4   17      0.16      0.00
   11   -4   17     -1.28      0.00
   -5   -3   17      0.18      0.00
   -4   -3   17     -1.29      0.00
   -3   -3   17     -0.13      0.00
   -2   -3   17      0.12      0.00
   -1   -3   17     -1.26      0.00
    0   -3   17     -0.35      0.00
    1   -3   17      0.02      0.00
    2   -3   17     -1.56      0.00
    3   -3   17      0.19      0.00
    4   -3   17      1.88      0.00
    5   -3   17      1.07      0.00
    6   -3   17      1.42      0.00
    7   -3   17     -0.37      0.00
    8   -3   17      1.41      0.00
    9   -3   17     -1.22      0.00
   10   -3   17      0.46      0.00
   11   -3   17      1.57      0.00
   12   -3   17      1.07      0.00
   -6   -2   17      0.46      0.00
   -5   -2   17     -1.38      0.00
   -4   -2   17      0.17      0.00
   -3   -2   17      1.26      0.00
   -2   -2   17      0.20      0.00
   -1   -2   17     -0.10      0.00
    0   -2   17      1.21      0.00
    1   -2   17     -0.33      0.00
    2   -2   17      0.50      0.00
    3   -2   17     -1.52      0.00
    4   -2   17     -1.40      0.00
    5   -2   17     -1.13      0.00
    6   -2   17     -2.53      0.00
    7   -2   17      0.08      0.00
    8   -2   17     -0.18      0.00
    9   -2   17     -0.02      0.00
   10   -2   17     -1.03      0.00
   11   -2   17      0.32      0.00
   12   -2   17     -0.19      0.00
   -6   -1   17     -0.53      0.00
   -5   -1   17     -0.20      0.00
   -4   -1   17      1.08      0.00
   -3   -1   17     -0.12      0.00
   -2   -1   17     -0.05      0.00
   -1   -1   17      0.02      0.00
    0   -1   17     -0.38      0.00
    1   -1   17      0.28      0.00
    2   -1   17     -1.04      0.00
    3   -1   17     -0.84      0.00
    4   -1   17     -0.67      0.00
    5   -1   17      1.59      0.00
    6   -1   17      2.36      0.00
    7   -1   17      0.45      0.00
    8   -1   17     -0.86      0.00
    9   -1   17     -1.22      0.00
   10   -1   17      0.05      0.00
   11   -1   17      0.26      0.00
   12   -1   17     -2.22      0.00
   13   -1   17      0.21      0.00
   -6    0   17     -0.28      0.00
   -5    0   17      1.87      0.00
   -4    0   17     -0.42      0.00
   -3    0   17     -2.60      0.00
   -2    0   17     -0.25      0.00
   -1    0   17     -1.00      0.00
    0    0   17      0.80      0.00
    1    0   17      0.92      0.00
    2    0   17      0.98      0.00
    3    0   17      1.83      0.00
    4    0   17      0.73      0.00
    5    0   17     -0.54      0.00
    6    0   17     -0.09      0.00
    7    0   17     -0.47      0.00
    8    0   17      1.38      0.00
    9    0   17      1.68      0.00
   10    0   17     -0.41      0.00
   11    0   17      1.21      0.00
   12    0   17      0.61      0.00
   13    0   17     -0.18      0.00
   -7    1   17      1.30      0.00
   -6    1   17     -0.47      0.00
   -5    1   17      0.07      0.00
   -4    1   17      1.47      0.00
   -3    1   17      0.79      0.00
   -2    1   17      0.00      0.00
   -1    1   17      0.16      0.00
    0    1   17     -1.22      0.00
    1    1   17     -1.16      0.00
    2    1   17      1.09      0.00
    3    1   17     -0.17      0.00
    4    1   17     -0.45      0.00
    5    1   17     -1.35      0.00
    6    1   17     -1.78      0.00
    7    1   17     -0.32      0.00
    8    1   17     -1.57      0.00
    9    1   17     -0.87      0.00
   10    1   17      0.06      0.00
   11    1   17     -2.16      0.00
   12    1   17      0.81      0.00
   13    1   17     -0.34      0.00
   -7    2   17      0.24      0.00
   -6    2   17      0.03      0.00
   -5    2   17     -0.13      0.00
   -4    2   17     -0.06      0.00
   -3    2   17      1.72      0.00
   -2    2   17     -0.07      0.00
   -1    2   17      2.19      0.00
    0    2   17      1.27      0.00
    1    2   17     -0.73      0.00
    2    2   17     -0.04      0.00
    3    2   17     -0.67      0.00
    4    2   17      1.11      0.00
    5    2   17      1.80      0.00
    6    2   17      1.67      0.00
    7    2   17      0.33      0.00
    8    2   17      0.64      0.00
    9    2   17      1.19      0.00
   10    2   17      1.45      0.00
   11    2   17      0.44      0.00
   12    2   17      0.56      0.00
   13    2   17     -0.91      0.00
   -7    3   17     -1.46      0.00
   -6    3   17      0.33      0.00
   -5    3   17     -1.54      0.00
   -4    3   17     -3.02      0.00
   -3    3   17     -0.67      0.00
   -2    3   17     -1.23      0.00
   -1    3   17     -1.94      0.00
    0    3   17      0.49      0.00
    1    3   17      0.10      0.00
    2    3   17     -0.99      0.00
    3    3   17     -0.09      0.00
    4    3   17     -1.47      0.00
    5    3   17     -0.01      0.00
    6    3   17      0.36      0.00
    7    3   17     -0.87      0.00
    8    3   17      0.22      0.00
    9    3   17     -0.32      0.00
   10    3   17     -0.74      0.00
   11    3   17      0.61      0.00
   12    3   17      2.00      0.00
   13    3   17      0.76      0.00
   14    3   17      0.16      0.00
   -7    4   17     -0.30      0.00
   -6    4   17      0.33      0.00
   -5    4   17      0.11      0.00
   -4    4   17      2.18      0.00
   -3    4   17     -0.31      0.00
   -2    4   17      1.68      0.00
   -1    4   17     -0.31      0.00
    0    4   17     -0.52      0.00
    1    4   17      0.30      0.00
    2    4   17     -1.16      0.00
    3    4   17      0.48      0.00
    4    4   17     -0.03      0.00
    5    4   17     -0.01      0.00
    6    4   17     -1.59      0.00
    7    4   17     -0.12      0.00
    8    4   17     -0.52      0.00
    9    4   17     -0.95      0.00
   10    4   17      1.04      0.00
   11    4   17     -2.86      0.00
   12    4   17     -2.01      0.00
   13    4   17     -0.44      0.00
   14    4   17      0.24      0.00
   -7    5   17      0.90      0.00
   -6    5   17      0.07      0.00
   -5    5   17      1.26      0.00
   -4    5   17     -0.96      0.00
   -3    5   17     -0.86      0.00
   -2    5   17      1.25      0.00
   -1    5   17      1.62      0.00
    0    5   17     -0.26      0.00
    1    5   17      1.32      0.00
    2    5   17      1.76      0.00
    3    5   17     -0.60      0.00
    4    5   17      1.95      0.00
    5    5   17      0.03      0.00
    6    5   17      0.84      0.00
    7    5   17      0.16      0.00
    8    5   17      1.09      0.00
    9    5   17     -0.53      0.00
   10    5   17      1.01      0.00
   11    5   17      0.27      0.00
   12    5   17     -0.41      0.00
   13    5   17      0.38      0.00
   14    5   17     -0.64      0.00
   -7    6   17     -0.86      0.00
   -6    6   17      1.00      0.00
   -5    6   17     -0.14      0.00
   -4    6   17     -0.33      0.00
   -3    6   17      0.17      0.00
   -2    6   17     -0.77      0.00
   -1    6   17     -0.52      0.00
    0    6   17     -1.01      0.00
    1    6   17     -1.72      0.00
    2    6   17     -0.01      0.00
    3    6   17      0.11      0.00
    4    6   17     -1.18      0.00
    5    6   17     -2.03      0.00
    6    6   17      0.99      0.00
    7    6   17      0.07      0.00
    8    6   17      0.56      0.00
    9    6   17     -0.30      0.00
   10    6   17     -0.08      0.00
   11    6   17      1.68      0.00
   12    6   17      0.70      0.00
   13    6   17      0.29      0.00
   14    6   17      0.93      0.00
   -7    7   17     -0.38      0.00
   -6    7   17     -0.13      0.00
   -5    7   17     -1.32      0.00
   -4    7   17      2.42      0.00
   -3    7   17     -0.05      0.00
   -2    7   17     -0.55      0.00
   -1    7   17      0.02      0.00
    0    7   17      1.12      0.00
    1    7   17      0.11      0.00
    2    7   17     -0.72      0.00
    3    7   17      0.61      0.00
    4    7   17     -0.70      0.00
    5    7   17      0.63      0.00
    6    7   17     -1.32      0.00
    7    7   17     -0.58      0.00
    8    7   17     -1.25      0.00
    9    7   17      0.58      0.00
   10    7   17     -1.09      0.00
   11    7   17     -0.47      0.00
   12    7   17      0.47      0.00
   13    7   17      0.08      0.00
   14    7   17     -0.09      0.00
   -7    8   17      1.52      0.00
   -6    8   17     -1.57      0.00
   -5    8   17      0.45      0.00
   -4    8   17     -0.48      0.00
   -3    8   17      0.89      0.00
   -2    8   17      0.55      0.00
   -1    8   17     -1.16      0.00
    0    8   17     -0.94      0.00
    1    8   17     -0.23      0.00
    2    8   17      0.26      0.00
    3    8   17     -0.17      0.00
    4    8   17      0.86      0.00
    5    8   17      1.21      0.00
    6    8   17      1.76      0.00
    7    8   17      0.99      0.00
    8    8   17      0.01      0.00
    9    8   17      0.68      0.00
   10    8   17     -0.97      0.00
   11    8   17     -0.95      0.00
   12    8   17     -1.58      0.00
   13    8   17     -1.20      0.00
   14    8   17     -0.36      0.00
   -7    9   17     -0.30      0.00
   -6    9   17      0.28      0.00
   -5    9   17      0.90      0.00
   -4    9   17     -2.67      0.00
   -3    9   17     -0.10      0.00
   -2    9   17     -1.09      0.00
   -1    9   17      0.49      0.00
    0    9   17      0.52      0.00
    1    9   17      1.64      0.00
    2    9   17      0.28      0.00
    3    9   17      1.54      0.00
    4    9   17     -0.04      0.00
    5    9   17      0.59      0.00
    6    9   17     -1.57      0.00
    7    9   17      0.61      0.00
    8    9   17      0.45      0.00
    9    9   17      0.47      0.00
   10    9   17      1.88      0.00
   11    9   17      2.69      0.00
   12    9   17      1.35      0.00
   13    9   17      0.55      0.00
   14    9   17      1.58      0.00
   -6   10   17      0.29      0.00
   -5   10   17     -0.23      0.00
   -4   10   17      0.52      0.00
   -3   10   17      0.55      0.00
   -2   10   17      1.04      0.00
   -1   10   17      1.07      0.00
    0   10   17      0.44      0.00
    1   10   17     -1.27      0.00
    2   10   17     -0.88      0.00
    3   10   17     -2.07      0.00
    4   10   17     -1.73      0.00
    5   10   17     -2.46      0.00
    6   10   17     -0.16      0.00
    7   10   17     -0.13      0.00
    8   10   17     -1.05      0.00
    9   10   17     -1.60      0.00
   10   10   17     -2.87      0.00
   11   10   17     -2.83      0.00
   12   10   17     -0.80      0.00
   13   10   17      0.16      0.00
   -6   11   17     -0.29      0.00
   -5   11   17      0.24      0.00
   -4   11   17      1.32      0.00
   -3   11   17     -0.63      0.00
   -2   11   17     -0.52      0.00
   -1   11   17     -1.61      0.00
    0   11   17     -0.22      0.00
    1   11   17      0.27      0.00
    2   11   17      1.06      0.00
    3   11   17      0.08      0.00
    4   11   17      3.38      0.00
    5   11   17      0.21      0.00
    6   11   17      1.47      0.00
    7   11   17     -0.56      0.00
    8   11   17      0.58      0.00
    9   11   17      3.42      0.00
   10   11   17      2.20      0.00
   11   11   17      2.36      0.00
   12   11   17      0.16      0.00
   13   11   17     -0.18      0.00
   -6   12   17     -0.14      0.00
   -5   12   17     -0.10      0.00
   -4   12   17     -0.57      0.00
   -3   12   17      0.48      0.00
   -2   12   17     -1.21      0.00
   -1   12   17      0.90      0.00
    0   12   17     -0.62      0.00
    1   12   17     -0.27      0.00
    2   12   17     -0.86      0.00
    3   12   17      1.07      0.00
    4   12   17     -1.35      0.00
    5   12   17      1.07      0.00
    6   12   17     -0.81      0.00
    7   12   17     -1.01      0.00
    8   12   17     -0.92      0.00
    9   12   17     -3.62      0.00
   10   12   17     -2.52      0.00
   11   12   17     -1.40      0.00
   12   12   17      0.53      0.00
   13   12   17      0.09      0.00
   -5   13   17      0.07      0.00
   -4   13   17     -0.15      0.00
   -3   13   17      0.59      0.00
   -2   13   17      0.68      0.00
   -1   13   17      0.59      0.00
    0   13   17      1.87      0.00
    1   13   17      1.58      0.00
    2   13   17      1.96      0.00
    3   13   17     -1.61      0.00
    4   13   17     -0.99      0.00
    5   13   17      0.19      0.00
    6   13   17     -1.05      0.00
    7   13   17      0.50      0.00
    8   13   17      1.97      0.00
    9   13   17      2.46      0.00
   10   13   17      2.68      0.00
   11   13   17      1.24      0.00
   12   13   17     -0.91      0.00
   13   13   17      0.51      0.00
   -5   14   17     -0.36      0.00
   -4   14   17     -0.16      0.00
   -3   14   17     -0.13      0.00
   -2   14   17     -0.82      0.00
   -1   14   17      0.01      0.00
    0   14   17     -2.05      0.00
    1   14   17     -1.74      0.00
    2   14   17     -2.70      0.00
    3   14   17      0.85      0.00
    4   14   17      0.94      0.00
    6   14   17      0.05      0.00
    7   14   17      0.11      0.00
    8   14   17     -1.33      0.00
    9   14   17     -1.62      0.00
   10   14   17     -1.99      0.00
   11   14   17      0.05      0.00
   12   14   17      0.02      0.00
   -4   15   17      0.94      0.00
   -3   15   17     -0.50      0.00
   -2   15   17      0.78      0.00
   -1   15   17     -0.30      0.00
    0   15   17      0.71      0.00
    1   15   17      1.44      0.00
    2   15   17     -0.46      0.00
    3   15   17      0.72      0.00
    4   15   17     -1.51      0.00
    5   15   17     -0.07      0.00
    6   15   17      0.65      0.00
    7   15   17      1.03      0.00
    8   15   17      0.88      0.00
    9   15   17      1.77      0.00
   10   15   17      1.05      0.00
   11   15   17     -0.15      0.00
   12   15   17      0.16      0.00
   -4   16   17     -0.18      0.00
   -3   16   17     -0.51      0.00
   -2   16   17     -0.20      0.00
   -1   16   17      0.52      0.00
    0   16   17     -1.15      0.00
    1   16   17     -1.03      0.00
    2   16   17      2.75      0.00
    3   16   17     -1.44      0.00
    4   16   17      0.98      0.00
    5   16   17     -1.39      0.00
    6   16   17      0.31      0.00
    7   16   17     -0.11      0.00
    8   16   17     -1.28      0.00
    9   16   17     -1.70      0.00
   10   16   17     -1.08      0.00
   11   16   17     -0.22      0.00
   -3   17   17      0.36      0.00
   -2   17   17      0.23      0.00
   -1   17   17      0.22      0.00
    0   17   17     -0.15      0.00
    1   17   17      0.84      0.00
    2   17   17     -1.32      0.00
    3   17   17      0.63      0.00
    4   17   17     -0.75      0.00
    5   17   17      0.37      0.00
    6   17   17     -0.79      0.00
    7   17   17      0.64      0.00
    8   17   17      1.78      0.00
    9   17   17      0.12      0.00
   10   17   17      1.11      0.00
   -2   18   17      0.38      0.00
   -1   18   17     -1.24      0.00
    0   18   17      1.58      0.00
    1   18   17     -1.07      0.00
    2   18   17     -0.83      0.00
    3   18   17      1.35      0.00
    4   18   17      1.82      0.00
    5   18   17      0.85      0.00
    6   18   17     -0.16      0.00
    7   18   17     -1.53      0.00
    8   18   17     -1.43      0.00
    9   18   17     -0.37      0.00
   -1   19   17      0.50      0.00
    0   19   17      0.00      0.00
    1   19   17      0.91      0.00
    2   19   17      1.29      0.00
    3   19   17     -0.88      0.00
    4   19   17     -0.76      0.00
    5   19   17     -1.14      0.00
    6   19   17      0.82      0.00
    7   19   17      0.09      0.00
    8   19   17      0.67      0.00
    1   20   17     -0.29      0.00
    2   20   17     -0.44      0.00
    3   20   17     -0.41      0.00
    4   20   17     -0.44      0.00
    5   20   17      0.42      0.00
    6   20   17      0.06      0.00
    1   -8   18      0.23      0.00
    2   -8   18      0.91      0.00
    3   -8   18     -0.56      0.00
    4   -8   18     -0.57      0.00
    5   -8   18     -1.47      0.00
   -1   -7   18      0.35      0.00
    0   -7   18     -2.46      0.00
    1   -7   18      0.12      0.00
    2   -7   18     -0.43      0.00
    3   -7   18      0.60      0.00
    4   -7   18      1.72      0.00
    5   -7   18     -1.55      0.00
    6   -7   18      1.29      0.00
    7   -7   18      0.15      0.00
   -2   -6   18      0.38      0.00
   -1   -6   18      2.12      0.00
    0   -6   18     -0.52      0.00
    1   -6   18     -0.67      0.00
    2   -6   18     -0.63      0.00
    3   -6   18      0.00      0.00
    4   -6   18     -0.24      0.00
    5   -6   18      0.89      0.00
    6   -6   18     -0.81      0.00
    7   -6   18      0.20      0.00
    8   -6   18      0.68      0.00
    9   -6   18      1.72      0.00
   -3   -5   18     -0.41      0.00
   -2   -5   18      0.68      0.00
   -1   -5   18     -2.17      0.00
    0   -5   18      1.80      0.00
    1   -5   18      0.44      0.00
    2   -5   18      0.62      0.00
    3   -5   18      0.74      0.00
    4   -5   18     -1.04      0.00
    5   -5   18      0.25      0.00
    6   -5   18     -1.22      0.00
    7   -5   18     -0.21      0.00
    8   -5   18     -1.82      0.00
    9   -5   18     -1.47      0.00
   10   -5   18     -0.37      0.00
   -4   -4   18     -0.20      0.00
   -3   -4   18      0.20      0.00
   -2   -4   18     -0.60      0.00
   -1   -4   18     -0.11      0.00
    0   -4   18     -0.41      0.00
    1   -4   18      0.01      0.00
    2   -4   18      0.61      0.00
    3   -4   18     -0.69      0.00
    4   -4   18      0.80      0.00
    5   -4   18      0.00      0.00
    6   -4   18      1.12      0.00
    7   -4   18      2.00      0.00
    8   -4   18      0.01      0.00
    9   -4   18     -0.15      0.00
   -4   -3   18     -1.39      0.00
   -3   -3   18      0.86      0.00
   -2   -3   18     -0.38      0.00
   -1   -3   18     -0.62      0.00
    0   -3   18      0.27      0.00
    1   -3   18     -0.92      0.00
    2   -3   18     -0.49      0.00
    3   -3   18     -0.10      0.00
    4   -3   18      1.34      0.00
    5   -3   18      0.01      0.00
    6   -3   18     -1.55      0.00
    7   -3   18     -0.66      0.00
    8   -3   18      2.09      0.00
   10   -3   18      0.57      0.00
   11   -3   18      1.07      0.00
   -5   -2   18     -0.50      0.00
   -4   -2   18     -0.11      0.00
   -3   -2   18     -0.30      0.00
   -2   -2   18      1.05      0.00
   -1   -2   18     -0.23      0.00
    0   -2   18      0.78      0.00
    1   -2   18      0.68      0.00
    2   -2   18     -0.73      0.00
    3   -2   18     -1.86      0.00
    4   -2   18     -2.71      0.00
    5   -2   18      1.05      0.00
    6   -2   18      0.26      0.00
    7   -2   18     -0.02      0.00
    9   -2   18     -1.84      0.00
   10   -2   18     -1.15      0.00
   11   -2   18      0.23      0.00
   12   -2   18     -1.25      0.00
   -5   -1   18      1.77      0.00
   -4   -1   18      2.41      0.00
   -3   -1   18     -0.48      0.00
   -2   -1   18     -0.49      0.00
   -1   -1   18      0.90      0.00
    0   -1   18      0.47      0.00
    1   -1   18      0.78      0.00
    2   -1   18      1.83      0.00
    3   -1   18      1.48      0.00
    4   -1   18      1.10      0.00
    5   -1   18     -1.51      0.00
    6   -1   18      0.78      0.00
    7   -1   18     -0.31      0.00
    8   -1   18     -0.34      0.00
    9   -1   18      0.73      0.00
   10   -1   18      1.37      0.00
   11   -1   18     -0.18      0.00
   12   -1   18     -0.18      0.00
   -5    0   18     -0.09      0.00
   -4    0   18     -0.40      0.00
   -3    0   18     -1.09      0.00
   -2    0   18     -1.05      0.00
   -1    0   18     -1.56      0.00
    0    0   18      0.08      0.00
    1    0   18     -2.28      0.00
    2    0   18     -0.99      0.00
    3    0   18      0.41      0.00
    4    0   18      0.93      0.00
    5    0   18     -0.46      0.00
    6    0   18      1.07      0.00
    7    0   18     -1.26      0.00
    8    0   18      0.33      0.00
    9    0   18      0.23      0.00
   10    0   18     -0.03      0.00
   11    0   18      0.40      0.00
   12    0   18      1.09      0.00
   -6    1   18     -0.61      0.00
   -5    1   18     -0.90      0.00
   -4    1   18     -0.20      0.00
   -3    1   18      0.87      0.00
   -2    1   18     -0.20      0.00
   -1    1   18      1.04      0.00
    0    1   18     -0.84      0.00
    1    1   18      0.73      0.00
    2    1   18      0.48      0.00
    3    1   18     -0.19      0.00
    4    1   18     -0.66      0.00
    5    1   18      1.73      0.00
    6    1   18     -0.97      0.00
    7    1   18      0.07      0.00
    8    1   18      0.06      0.00
    9    1   18     -0.08      0.00
   10    1   18      0.30      0.00
   11    1   18     -1.65      0.00
   12    1   18      1.19      0.00
   13    1   18     -1.33      0.00
   -6    2   18      0.92      0.00
   -5    2   18     -0.23      0.00
   -4    2   18     -0.13      0.00
   -3    2   18      1.30      0.00
   -2    2   18      0.38      0.00
   -1    2   18      2.65      0.00
    0    2   18     -1.21      0.00
    1    2   18      0.86      0.00
    2    2   18      0.08      0.00
    3    2   18     -0.04      0.00
    4    2   18     -0.82      0.00
    5    2   18     -0.53      0.00
    6    2   18      1.17      0.00
    7    2   18      0.65      0.00
    8    2   18      0.93      0.00
    9    2   18     -1.11      0.00
   10    2   18      0.26      0.00
   11    2   18     -1.52      0.00
   12    2   18      0.25      0.00
   13    2   18      0.66      0.00
   -6    3   18      0.04      0.00
   -5    3   18     -0.13      0.00
   -4    3   18     -1.80      0.00
   -3    3   18     -0.21      0.00
   -2    3   18      0.44      0.00
   -1    3   18     -1.31      0.00
    0    3   18      2.04      0.00
    1    3   18     -0.85      0.00
    2    3   18     -1.67      0.00
    3    3   18      0.38      0.00
    4    3   18      0.79      0.00
    5    3   18     -0.32      0.00
    6    3   18     -0.76      0.00
    8    3   18      0.17      0.00
    9    3   18      1.84      0.00
   10    3   18      1.22      0.00
   11    3   18      1.86      0.00
   12    3   18     -0.12      0.00
   13    3   18      0.05      0.00
   -6    4   18      0.20      0.00
   -5    4   18     -0.11      0.00
   -4    4   18      0.38      0.00
   -3    4   18     -2.43      0.00
   -2    4   18      0.15      0.00
   -1    4   18     -1.67      0.00
    0    4   18     -0.76      0.00
    1    4   18      0.67      0.00
    2    4   18      0.92      0.00
    3    4   18     -1.18      0.00
    4    4   18      0.35      0.00
    5    4   18     -0.30      0.00
    6    4   18     -0.48      0.00
    7    4   18      0.73      0.00
    8    4   18     -1.30      0.00
    9    4   18     -1.51      0.00
   10    4   18     -0.73      0.00
   11    4   18     -1.47      0.00
   12    4   18     -1.38      0.00
   13    4   18      0.31      0.00
   -6    5   18      0.49      0.00
   -5    5   18      1.12      0.00
   -4    5   18      1.94      0.00
   -3    5   18      0.54      0.00
   -2    5   18      0.78      0.00
   -1    5   18      1.27      0.00
    0    5   18     -1.66      0.00
    1    5   18      0.02      0.00
    2    5   18      0.37      0.00
    3    5   18     -0.01      0.00
    4    5   18      0.29      0.00
    5    5   18      1.02      0.00
    6    5   18      0.19      0.00
    7    5   18      1.96      0.00
    8    5   18      0.39      0.00
    9    5   18      0.16      0.00
   10    5   18     -0.02      0.00
   11    5   18      1.15      0.00
   12    5   18     -0.69      0.00
   13    5   18     -0.08      0.00
   -6    6   18     -0.49      0.00
   -5    6   18     -0.86      0.00
   -4    6   18     -0.90      0.00
   -3    6   18      1.40      0.00
   -2    6   18     -0.09      0.00
   -1    6   18      0.20      0.00
    0    6   18      1.71      0.00
    1    6   18      0.39      0.00
    2    6   18      0.35      0.00
    3    6   18      1.55      0.00
    4    6   18     -0.63      0.00
    5    6   18     -1.61      0.00
    6    6   18      0.00      0.00
    7    6   18     -1.45      0.00
    8    6   18      0.19      0.00
    9    6   18      0.70      0.00
   10    6   18     -0.93      0.00
   11    6   18      1.52      0.00
   12    6   18      1.42      0.00
   13    6   18      0.84      0.00
   -6    7   18     -0.52      0.00
   -5    7   18     -0.48      0.00
   -4    7   18      0.76      0.00
   -3    7   18      0.37      0.00
   -2    7   18      0.12      0.00
   -1    7   18     -1.31      0.00
    0    7   18     -0.44      0.00
    1    7   18     -1.15      0.00
    2    7   18     -1.00      0.00
    3    7   18     -0.52      0.00
    4    7   18     -0.91      0.00
    5    7   18      0.17      0.00
    6    7   18      0.56      0.00
    7    7   18      1.27      0.00
    8    7   18     -1.76      0.00
    9    7   18     -0.07      0.00
   10    7   18     -1.11      0.00
   11    7   18     -1.40      0.00
   12    7   18     -0.92      0.00
   13    7   18     -0.85      0.00
   -6    8   18     -0.97      0.00
   -5    8   18      1.75      0.00
   -4    8   18     -2.55      0.00
   -3    8   18     -0.66      0.00
   -2    8   18     -2.10      0.00
   -1    8   18     -0.05      0.00
    0    8   18     -1.60      0.00
    1    8   18      1.13      0.00
    2    8   18      0.07      0.00
    3    8   18      0.71      0.00
    4    8   18      0.28      0.00
    5    8   18      2.63      0.00
    6    8   18     -0.23      0.00
    7    8   18      0.92      0.00
    8    8   18      1.36      0.00
    9    8   18      1.58      0.00
   10    8   18      0.39      0.00
   11    8   18      1.36      0.00
   12    8   18      0.47      0.00
   13    8   18     -0.10      0.00
   -6    9   18      0.50      0.00
   -5    9   18      0.04      0.00
   -4    9   18      0.11      0.00
   -3    9   18      1.11      0.00
   -2    9   18      0.80      0.00
   -1    9   18      1.31      0.00
    0    9   18      1.94      0.00
    1    9   18     -0.45      0.00
    2    9   18      0.42      0.00
    3    9   18     -0.42      0.00
    4    9   18     -0.45      0.00
    5    9   18     -2.74      0.00
    6    9   18     -1.54      0.00
    7    9   18     -1.27      0.00
    8    9   18      0.45      0.00
    9    9   18     -0.86      0.00
   10    9   18     -0.10      0.00
   11    9   18     -1.01      0.00
   12    9   18     -1.28      0.00
   13    9   18     -0.35      0.00
   -6   10   18      1.53      0.00
   -5   10   18     -1.45      0.00
   -4   10   18      2.27      0.00
   -3   10   18     -0.51      0.00
   -2   10   18     -0.05      0.00
   -1   10   18      0.18      0.00
    0   10   18      0.70      0.00
    1   10   18      0.03      0.00
    2   10   18      0.44      0.00
    3   10   18     -0.85      0.00
    4   10   18      2.18      0.00
    5   10   18      0.93      0.00
    6   10   18      0.85      0.00
    7   10   18     -1.47      0.00
    8   10   18     -1.91      0.00
    9   10   18     -0.13      0.00
   10   10   18      1.24      0.00
   11   10   18      0.94      0.00
   12   10   18      1.65      0.00
   13   10   18      0.28      0.00
   -5   11   18      0.05      0.00
   -4   11   18     -1.18      0.00
   -3   11   18     -0.04      0.00
   -2   11   18     -0.07      0.00
   -1   11   18     -0.69      0.00
    0   11   18     -1.29      0.00
    1   11   18     -0.12      0.00
    2   11   18     -1.66      0.00
    3   11   18      0.61      0.00
    4   11   18     -0.97      0.00
    5   11   18      0.54      0.00
    6   11   18      1.32      0.00
    7   11   18      1.91      0.00
    8   11   18      0.92      0.00
    9   11   18     -0.93      0.00
   10   11   18     -2.49      0.00
   11   11   18     -1.84      0.00
   12   11   18     -0.60      0.00
   13   11   18      0.66      0.00
   -5   12   18      1.10      0.00
   -4   12   18      0.38      0.00
   -3   12   18     -0.19      0.00
   -2   12   18     -0.79      0.00
   -1   12   18      0.24      0.00
    0   12   18     -0.04      0.00
    1   12   18      0.87      0.00
    2   12   18      1.60      0.00
    3   12   18     -0.05      0.00
    4   12   18     -0.70      0.00
    5   12   18     -0.69      0.00
    6   12   18     -1.62      0.00
    7   12   18     -0.72      0.00
    8   12   18      1.95      0.00
    9   12   18      0.96      0.00
   10   12   18      3.14      0.00
   11   12   18      2.39      0.00
   12   12   18      0.32      0.00
   -5   13   18     -1.10      0.00
   -4   13   18      0.53      0.00
   -3   13   18     -0.31      0.00
   -2   13   18      0.47      0.00
   -1   13   18      0.54      0.00
    0   13   18      0.09      0.00
    1   13   18     -0.55      0.00
    2   13   18     -1.17      0.00
    3   13   18     -1.20      0.00
    4   13   18     -0.22      0.00
    5   13   18      0.78      0.00
    6   13   18     -1.49      0.00
    7   13   18     -1.11      0.00
    8   13   18     -1.09      0.00
    9   13   18     -1.16      0.00
   10   13   18     -2.21      0.00
   11   13   18     -1.54      0.00
   12   13   18     -1.14      0.00
   -4   14   18     -0.59      0.00
   -3   14   18      0.55      0.00
   -2   14   18      0.45      0.00
   -1   14   18      0.17      0.00
    0   14   18      0.12      0.00
    1   14   18      1.33      0.00
    2   14   18      1.10      0.00
    3   14   18      1.99      0.00
    4   14   18      1.04      0.00
    5   14   18      1.40      0.00
    6   14   18      2.18      0.00
    7   14   18      1.47      0.00
    8   14   18     -0.18      0.00
    9   14   18      1.41      0.00
   10   14   18      1.64      0.00
   11   14   18      1.08      0.00
   12   14   18      0.74      0.00
   -4   15   18      0.57      0.00
   -3   15   18     -1.11      0.00
   -2   15   18     -0.12      0.00
   -1   15   18     -0.80      0.00
    0   15   18     -0.56      0.00
    1   15   18     -3.08      0.00
    2   15   18     -1.97      0.00
    3   15   18     -0.89      0.00
    4   15   18     -0.66      0.00
    5   15   18     -2.29      0.00
    6   15   18      0.34      0.00
    7   15   18     -0.05      0.00
    8   15   18     -0.52      0.00
    9   15   18     -1.52      0.00
   10   15   18     -1.33      0.00
   11   15   18     -1.56      0.00
   -3   16   18      0.16      0.00
   -2   16   18      1.07      0.00
   -1   16   18      0.13      0.00
    0   16   18     -0.19      0.00
    1   16   18      2.06      0.00
    2   16   18      1.86      0.00
    3   16   18     -1.15      0.00
    4   16   18     -1.01      0.00
    5   16   18     -0.71      0.00
    6   16   18     -0.26      0.00
    7   16   18      0.77      0.00
    8   16   18      1.41      0.00
    9   16   18      1.01      0.00
   10   16   18      1.52      0.00
   -2   17   18     -0.49      0.00
   -1   17   18     -0.20      0.00
    0   17   18      0.38      0.00
    1   17   18      0.17      0.00
    2   17   18      0.49      0.00
    3   17   18      1.38      0.00
    4   17   18      2.34      0.00
    5   17   18      1.58      0.00
    6   17   18     -0.13      0.00
    7   17   18     -1.09      0.00
    8   17   18     -1.05      0.00
    9   17   18     -2.09      0.00
   10   17   18     -0.64      0.00
   -1   18   18     -0.33      0.00
    0   18   18      1.38      0.00
    1   18   18     -1.05      0.00
    2   18   18     -0.50      0.00
    3   18   18      0.15      0.00
    4   18   18     -0.22      0.00
    5   18   18     -1.31      0.00
    6   18   18     -0.90      0.00
    7   18   18     -0.33      0.00
    8   18   18     -0.15      0.00
    9   18   18      2.03      0.00
    0   19   18     -0.82      0.00
    1   19   18      0.28      0.00
    2   19   18     -0.88      0.00
    3   19   18     -0.34      0.00
    4   19   18     -0.62      0.00
    5   19   18      1.33      0.00
    6   19   18      1.30      0.00
    7   19   18      0.15      0.00
    4   20   18     -0.53      0.00
    2   -7   19     -0.79      0.00
    3   -7   19      0.24      0.00
    4   -7   19      1.15      0.00
    5   -7   19     -0.80      0.00
    0   -6   19     -0.26      0.00
    1   -6   19     -0.24      0.00
    2   -6   19      0.50      0.00
    3   -6   19      0.07      0.00
    4   -6   19     -0.17      0.00
    5   -6   19      1.38      0.00
    6   -6   19     -2.01      0.00
    7   -6   19      0.50      0.00
   -1   -5   19     -0.98      0.00
    0   -5   19      1.60      0.00
    1   -5   19     -0.12      0.00
    2   -5   19      0.31      0.00
    3   -5   19     -0.19      0.00
    4   -5   19     -1.86      0.00
    5   -5   19      0.26      0.00
    6   -5   19     -0.74      0.00
    7   -5   19      1.14      0.00
    8   -5   19     -1.41      0.00
   -2   -4   19     -1.17      0.00
   -1   -4   19      0.13      0.00
    0   -4   19     -0.30      0.00
    1   -4   19     -0.35      0.00
    2   -4   19     -0.01      0.00
    3   -4   19     -0.23      0.00
    4   -4   19      2.40      0.00
    5   -4   19     -0.15      0.00
    6   -4   19      0.96      0.00
    7   -4   19     -0.46      0.00
    8   -4   19      0.75      0.00
    9   -4   19     -0.03      0.00
   -3   -3   19      0.76      0.00
   -2   -3   19     -1.05      0.00
   -1   -3   19      0.16      0.00
    0   -3   19     -0.01      0.00
    1   -3   19     -0.08      0.00
    2   -3   19      0.32      0.00
    3   -3   19     -1.67      0.00
    4   -3   19     -0.66      0.00
    5   -3   19      0.07      0.00
    6   -3   19     -0.06      0.00
    7   -3   19     -0.45      0.00
    8   -3   19      0.74      0.00
    9   -3   19     -0.42      0.00
   -3   -2   19     -0.30      0.00
   -2   -2   19      2.00      0.00
   -1   -2   19     -0.12      0.00
    0   -2   19      0.98      0.00
    1   -2   19      0.88      0.00
    2   -2   19     -0.09      0.00
    3   -2   19      0.77      0.00
    4   -2   19     -0.99      0.00
    5   -2   19     -0.74      0.00
    6   -2   19     -0.27      0.00
    7   -2   19     -1.58      0.00
    8   -2   19     -0.06      0.00
   10   -2   19     -0.19      0.00
   11   -2   19      0.09      0.00
   -4   -1   19      1.51      0.00
   -3   -1   19     -1.55      0.00
   -2   -1   19     -1.54      0.00
   -1   -1   19      0.26      0.00
    0   -1   19     -0.63      0.00
    1   -1   19     -0.63      0.00
    2   -1   19      0.53      0.00
    3   -1   19      0.71      0.00
    4   -1   19      0.94      0.00
    5   -1   19     -0.93      0.00
    6   -1   19      2.64      0.00
    7   -1   19      1.51      0.00
    9   -1   19      1.12      0.00
   10   -1   19      0.58      0.00
   11   -1   19     -0.55      0.00
   -4    0   19      0.20      0.00
   -3    0   19      1.00      0.00
   -2    0   19     -1.26      0.00
   -1    0   19      1.18      0.00
    0    0   19     -0.93      0.00
    1    0   19     -0.66      0.00
    2    0   19     -1.10      0.00
    3    0   19      1.42      0.00
    4    0   19      0.96      0.00
    5    0   19      0.48      0.00
    6    0   19     -0.80      0.00
    7    0   19     -2.86      0.00
    8    0   19      0.27      0.00
    9    0   19      0.84      0.00
   10    0   19      1.44      0.00
   11    0   19     -0.36      0.00
   12    0   19      1.20      0.00
   -5    1   19     -0.40      0.00
   -4    1   19     -1.35      0.00
   -3    1   19      0.87      0.00
   -2    1   19      0.84      0.00
   -1    1   19      0.85      0.00
    0    1   19     -0.77      0.00
    1    1   19      0.66      0.00
    2    1   19     -0.88      0.00
    3    1   19     -1.40      0.00
    4    1   19     -2.16      0.00
    5    1   19      1.48      0.00
    6    1   19     -0.93      0.00
    7    1   19      1.20      0.00
    8    1   19     -0.04      0.00
    9    1   19     -1.44      0.00
   10    1   19     -1.41      0.00
   11    1   19     -0.55      0.00
   12    1   19     -0.75      0.00
   -5    2   19      0.20      0.00
   -4    2   19     -0.73      0.00
   -3    2   19     -0.83      0.00
   -2    2   19      0.30      0.00
   -1    2   19      0.10      0.00
    0    2   19     -0.01      0.00
    1    2   19      1.70      0.00
    2    2   19      0.75      0.00
    3    2   19     -0.28      0.00
    4    2   19      0.99      0.00
    5    2   19      0.47      0.00
    6    2   19      0.80      0.00
    8    2   19     -1.05      0.00
    9    2   19      1.34      0.00
   10    2   19      0.62      0.00
   11    2   19      0.26      0.00
   12    2   19      1.05      0.00
   -5    3   19      0.35      0.00
   -4    3   19     -0.53      0.00
   -3    3   19     -0.21      0.00
   -2    3   19      0.84      0.00
   -1    3   19     -1.59      0.00
    0    3   19      1.08      0.00
    1    3   19     -1.62      0.00
    2    3   19      0.33      0.00
    3    3   19      0.49      0.00
    4    3   19     -0.47      0.00
    5    3   19     -2.46      0.00
    6    3   19     -1.94      0.00
    9    3   19      0.89      0.00
   10    3   19     -0.83      0.00
   11    3   19     -0.16      0.00
   12    3   19     -1.38      0.00
   13    3   19      0.23      0.00
   -5    4   19     -0.06      0.00
   -4    4   19      1.59      0.00
   -3    4   19      0.60      0.00
   -2    4   19      0.95      0.00
   -1    4   19     -0.02      0.00
    0    4   19      0.07      0.00
    1    4   19     -0.02      0.00
    2    4   19      0.32      0.00
    3    4   19     -0.41      0.00
    4    4   19      0.68      0.00
    5    4   19      1.74      0.00
    6    4   19     -0.15      0.00
    9    4   19     -1.08      0.00
   10    4   19      0.30      0.00
   11    4   19      1.17      0.00
   12    4   19     -1.08      0.00
   13    4   19     -1.09      0.00
   -5    5   19      0.12      0.00
   -4    5   19     -0.21      0.00
   -3    5   19     -1.44      0.00
   -2    5   19     -1.21      0.00
   -1    5   19     -0.29      0.00
    0    5   19     -1.12      0.00
    1    5   19      1.21      0.00
    2    5   19     -0.55      0.00
    3    5   19      0.81      0.00
    4    5   19     -0.04      0.00
    5    5   19      0.59      0.00
    6    5   19      0.71      0.00
    7    5   19      1.67      0.00
    8    5   19      0.23      0.00
    9    5   19     -0.09      0.00
   10    5   19     -0.74      0.00
   11    5   19      0.40      0.00
   12    5   19      1.05      0.00
   13    5   19      1.62      0.00
   -5    6   19      0.05      0.00
   -4    6   19     -0.66      0.00
   -3    6   19      2.45      0.00
   -2    6   19      0.17      0.00
   -1    6   19     -0.29      0.00
    0    6   19      0.29      0.00
    1    6   19     -0.93      0.00
    2    6   19     -1.15      0.00
    3    6   19     -0.12      0.00
    4    6   19     -0.92      0.00
    5    6   19     -1.53      0.00
    6    6   19      0.69      0.00
    7    6   19     -0.69      0.00
    8    6   19      0.85      0.00
    9    6   19      0.33      0.00
   10    6   19     -0.38      0.00
   11    6   19     -0.04      0.00
   12    6   19     -0.33      0.00
   13    6   19     -0.46      0.00
   -5    7   19     -0.02      0.00
   -4    7   19      0.02      0.00
   -3    7   19     -0.05      0.00
   -2    7   19     -0.44      0.00
   -1    7   19      0.37      0.00
    0    7   19      0.48      0.00
    1    7   19      0.41      0.00
    2    7   19      1.67      0.00
    3    7   19      0.36      0.00
    4    7   19     -0.67      0.00
    5    7   19      0.92      0.00
    6    7   19     -0.20      0.00
    7    7   19     -0.14      0.00
    8    7   19     -1.33      0.00
    9    7   19      0.05      0.00
   10    7   19      0.19      0.00
   11    7   19     -0.51      0.00
   12    7   19     -0.18      0.00
   13    7   19     -0.53      0.00
   -5    8   19      0.72      0.00
   -4    8   19     -0.65      0.00
   -3    8   19     -0.28      0.00
   -2    8   19     -0.80      0.00
   -1    8   19      1.00      0.00
    0    8   19     -1.08      0.00
    1    8   19     -0.03      0.00
    2    8   19     -0.46      0.00
    3    8   19      0.12      0.00
    4    8   19      0.02      0.00
    5    8   19      0.09      0.00
    6    8   19     -0.75      0.00
    7    8   19      0.63      0.00
    8    8   19      1.31      0.00
    9    8   19     -0.04      0.00
   10    8   19      0.00      0.00
   11    8   19      0.88      0.00
   12    8   19      0.13      0.00
   13    8   19     -0.34      0.00
   -5    9   19     -0.93      0.00
   -4    9   19      1.14      0.00
   -3    9   19     -0.81      0.00
   -2    9   19     -0.35      0.00
   -1    9   19     -0.36      0.00
    0    9   19      1.63      0.00
    1    9   19     -0.37      0.00
    2    9   19      0.58      0.00
    3    9   19     -0.79      0.00
    4    9   19      2.10      0.00
    5    9   19     -0.69      0.00
    6    9   19      0.18      0.00
    7    9   19     -1.77      0.00
    8    9   19      0.07      0.00
    9    9   19     -0.08      0.00
   10    9   19      0.45      0.00
   11    9   19     -0.52      0.00
   12    9   19      0.84      0.00
   13    9   19      0.57      0.00
   -5   10   19     -1.52      0.00
   -4   10   19      1.32      0.00
   -3   10   19     -0.65      0.00
   -2   10   19      1.38      0.00
   -1   10   19      0.55      0.00
    0   10   19     -0.11      0.00
    1   10   19     -0.39      0.00
    2   10   19     -1.47      0.00
    3   10   19     -0.96      0.00
    4   10   19      0.03      0.00
    5   10   19      0.08      0.00
    6   10   19     -0.47      0.00
    7   10   19      0.24      0.00
    8   10   19     -0.58      0.00
    9   10   19      0.00      0.00
   10   10   19     -0.03      0.00
   11   10   19     -2.24      0.00
   12   10   19     -1.10      0.00
   13   10   19     -0.29      0.00
   -5   11   19      1.94      0.00
   -4   11   19     -1.26      0.00
   -3   11   19      0.92      0.00
   -2   11   19     -0.64      0.00
   -1   11   19     -0.95      0.00
    0   11   19     -0.73      0.00
    1   11   19      1.02      0.00
    2   11   19      0.74      0.00
    3   11   19      1.49      0.00
    4   11   19     -0.30      0.00
    5   11   19      1.91      0.00
    6   11   19      1.13      0.00
    7   11   19      0.46      0.00
    8   11   19      0.26      0.00
    9   11   19     -0.45      0.00
   10   11   19      1.04      0.00
   11   11   19      2.88      0.00
   12   11   19      1.60      0.00
   -4   12   19     -0.16      0.00
   -3   12   19     -0.60      0.00
   -2   12   19      0.15      0.00
   -1   12   19      0.48      0.00
    0   12   19      0.53      0.00
    1   12   19      0.07      0.00
    2   12   19      0.32      0.00
    3   12   19     -1.43      0.00
    4   12   19     -1.25      0.00
    5   12   19     -2.81      0.00
    6   12   19     -1.19      0.00
    7   12   19     -0.25      0.00
    8   12   19      0.21      0.00
    9   12   19     -0.70      0.00
   10   12   19     -1.84      0.00
   11   12   19     -1.47      0.00
   12   12   19     -1.61      0.00
   -4   13   19      0.84      0.00
   -3   13   19     -0.52      0.00
   -2   13   19      0.21      0.00
   -1   13   19      0.01      0.00
    0   13   19     -0.86      0.00
    1   13   19      0.07      0.00
    2   13   19     -0.11      0.00
    3   13   19      0.93      0.00
    4   13   19      0.75      0.00
    5   13   19      1.56      0.00
    6   13   19      1.05      0.00
    7   13   19      0.05      0.00
    8   13   19      0.96      0.00
    9   13   19      1.23      0.00
   10   13   19      2.09      0.00
   11   13   19      0.95      0.00
   12   13   19      1.05      0.00
   -3   14   19      1.12      0.00
   -2   14   19      0.39      0.00
   -1   14   19     -0.85      0.00
    0   14   19      0.36      0.00
    1   14   19     -1.43      0.00
    2   14   19     -1.19      0.00
    3   14   19     -0.87      0.00
    4   14   19      0.15      0.00
    5   14   19     -0.36      0.00
    6   14   19      0.59      0.00
    7   14   19      0.06      0.00
    8   14   19     -1.30      0.00
    9   14   19     -0.38      0.00
   10   14   19     -1.40      0.00
   11   14   19     -1.53      0.00
   -3   15   19     -0.77      0.00
   -2   15   19      0.54      0.00
   -1   15   19      0.89      0.00
    0   15   19      0.23      0.00
    1   15   19      0.47      0.00
    2   15   19      2.23      0.00
    3   15   19      1.76      0.00
    4   15   19     -0.52      0.00
    5   15   19     -1.62      0.00
    6   15   19     -0.30      0.00
    7   15   19      0.59      0.00
    8   15   19     -0.15      0.00
    9   15   19      0.18      0.00
   10   15   19      0.84      0.00
   11   15   19      1.19      0.00
   -2   16   19     -0.18      0.00
   -1   16   19     -0.83      0.00
    0   16   19      0.06      0.00
    1   16   19      0.19      0.00
    2   16   19     -1.08      0.00
    3   16   19     -0.75      0.00
    4   16   19      0.46      0.00
    5   16   19      1.58      0.00
    6   16   19     -0.25      0.00
    7   16   19     -0.32      0.00
    8   16   19      0.38      0.00
    9   16   19     -1.40      0.00
   10   16   19     -0.68      0.00
   -1   17   19     -0.30      0.00
    0   17   19      0.12      0.00
    1   17   19      0.20      0.00
    2   17   19      0.70      0.00
    3   17   19     -1.47      0.00
    4   17   19      0.75      0.00
    5   17   19     -0.29      0.00
    6   17   19     -0.26      0.00
    7   17   19     -0.16      0.00
    8   17   19     -0.34      0.00
    9   17   19      1.35      0.00
    0   18   19     -0.06      0.00
    1   18   19     -0.13      0.00
    2   18   19     -1.06      0.00
    3   18   19      1.89      0.00
    4   18   19     -0.73      0.00
    5   18   19      0.79      0.00
    6   18   19      0.28      0.00
    7   18   19      0.37      0.00
    8   18   19     -0.53      0.00
    2   19   19      0.17      0.00
    3   19   19      0.35      0.00
    4   19   19     -1.27      0.00
    5   19   19     -0.96      0.00
    6   19   19     -0.40      0.00
    1   -5   20     -0.13      0.00
    2   -5   20      0.48      0.00
    3   -5   20      0.01      0.00
    4   -5   20      0.40      0.00
    5   -5   20     -0.09      0.00
    6   -5   20      0.06      0.00
    0   -4   20      0.14      0.00
    1   -4   20     -0.74      0.00
    2   -4   20     -0.60      0.00
    3   -4   20     -0.17      0.00
    4   -4   20      0.55      0.00
    5   -4   20     -0.41      0.00
    6   -4   20      1.05      0.00
    7   -4   20     -0.95      0.00
    8   -4   20      1.63      0.00
   -1   -3   20      1.23      0.00
    0   -3   20      0.24      0.00
    1   -3   20      0.91      0.00
    2   -3   20      0.32      0.00
    3   -3   20     -1.04      0.00
    4   -3   20      0.15      0.00
    5   -3   20      0.25      0.00
    6   -3   20     -0.88      0.00
    7   -3   20     -1.55      0.00
    8   -3   20     -0.62      0.00
    9   -3   20      0.11      0.00
   -2   -2   20      0.42      0.00
   -1   -2   20     -1.11      0.00
    0   -2   20      0.06      0.00
    1   -2   20      0.02      0.00
    2   -2   20      0.36      0.00
    3   -2   20      1.49      0.00
    4   -2   20     -1.09      0.00
    5   -2   20     -0.80      0.00
    6   -2   20      1.47      0.00
    7   -2   20      0.73      0.00
    8   -2   20     -0.06      0.00
    9   -2   20     -0.81      0.00
   -3   -1   20     -0.33      0.00
   -2   -1   20     -0.65      0.00
   -1   -1   20      1.19      0.00
    0   -1   20     -1.09      0.00
    1   -1   20     -0.04      0.00
    2   -1   20     -1.75      0.00
    3   -1   20      1.61      0.00
    4   -1   20      0.75      0.00
    5   -1   20      0.93      0.00
    6   -1   20     -0.03      0.00
    7   -1   20      0.18      0.00
    8   -1   20     -0.65      0.00
   10   -1   20      1.23      0.00
   -3    0   20     -0.16      0.00
   -2    0   20     -1.24      0.00
   -1    0   20      1.10      0.00
    0    0   20     -1.94      0.00
    1    0   20      0.23      0.00
    2    0   20     -1.08      0.00
    3    0   20     -1.33      0.00
    4    0   20     -1.23      0.00
    5    0   20     -0.31      0.00
    6    0   20     -0.62      0.00
    7    0   20      0.10      0.00
    9    0   20      0.64      0.00
   10    0   20     -0.06      0.00
   11    0   20     -1.01      0.00
   -3    1   20      1.27      0.00
   -2    1   20      2.22      0.00
   -1    1   20     -0.81      0.00
    0    1   20      2.54      0.00
    1    1   20     -0.04      0.00
    2    1   20      2.29      0.00
    3    1   20      0.01      0.00
    4    1   20      0.37      0.00
    5    1   20      1.97      0.00
    6    1   20     -0.99      0.00
    7    1   20      0.75      0.00
    9    1   20     -0.80      0.00
   10    1   20     -0.54      0.00
   11    1   20      0.32      0.00
   -4    2   20     -0.59      0.00
   -3    2   20     -0.96      0.00
   -2    2   20      0.70      0.00
   -1    2   20     -1.01      0.00
    0    2   20      0.40      0.00
    1    2   20      0.58      0.00
    2    2   20     -0.22      0.00
    3    2   20     -0.01      0.00
    4    2   20      0.57      0.00
    5    2   20     -0.96      0.00
    6    2   20     -1.49      0.00
    9    2   20      1.49      0.00
   10    2   20     -0.13      0.00
   11    2   20      0.42      0.00
   12    2   20      1.28      0.00
   -4    3   20      0.43      0.00
   -3    3   20     -0.33      0.00
   -2    3   20     -0.28      0.00
   -1    3   20     -0.78      0.00
    0    3   20     -1.49      0.00
    1    3   20     -0.71      0.00
    2    3   20     -0.88      0.00
    3    3   20     -0.65      0.00
    4    3   20     -0.54      0.00
    5    3   20     -0.19      0.00
    6    3   20      1.55      0.00
   10    3   20      0.33      0.00
   11    3   20      0.75      0.00
   12    3   20      0.35      0.00
   -4    4   20      0.87      0.00
   -3    4   20      0.82      0.00
   -2    4   20     -0.50      0.00
   -1    4   20     -0.11      0.00
    0    4   20      0.64      0.00
    1    4   20     -0.30      0.00
    2    4   20      1.61      0.00
    3    4   20      0.47      0.00
    4    4   20     -0.20      0.00
    5    4   20     -0.61      0.00
    6    4   20      0.14      0.00
   10    4   20     -1.07      0.00
   11    4   20     -0.85      0.00
   12    4   20     -2.51      0.00
   -4    5   20     -0.14      0.00
   -3    5   20      0.33      0.00
   -2    5   20      0.79      0.00
   -1    5   20      0.65      0.00
    0    5   20      0.59      0.00
    1    5   20      1.24      0.00
    2    5   20     -1.29      0.00
    3    5   20      0.21      0.00
    4    5   20      1.22      0.00
    5    5   20      0.13      0.00
    6    5   20      0.96      0.00
    7    5   20      0.72      0.00
    8    5   20     -0.79      0.00
   11    5   20      1.10      0.00
   12    5   20      1.50      0.00
   -4    6   20     -0.69      0.00
   -3    6   20     -0.07      0.00
   -2    6   20     -1.40      0.00
   -1    6   20     -0.33      0.00
    0    6   20     -0.96      0.00
    1    6   20     -0.50      0.00
    2    6   20     -0.33      0.00
    3    6   20      0.43      0.00
    4    6   20     -1.30      0.00
    5    6   20     -0.01      0.00
    6    6   20     -1.10      0.00
    7    6   20     -0.59      0.00
    8    6   20     -0.48      0.00
    9    6   20      0.17      0.00
   10    6   20     -0.47      0.00
   11    6   20     -0.60      0.00
   12    6   20     -0.39      0.00
   -4    7   20      0.56      0.00
   -3    7   20     -0.03      0.00
   -2    7   20     -0.35      0.00
   -1    7   20      1.03      0.00
    0    7   20     -0.31      0.00
    1    7   20     -1.48      0.00
    2    7   20      1.13      0.00
    3    7   20     -0.85      0.00
    4    7   20     -0.53      0.00
    5    7   20      0.06      0.00
    6    7   20      0.12      0.00
    7    7   20     -0.03      0.00
    8    7   20     -0.21      0.00
    9    7   20     -0.37      0.00
   10    7   20     -0.42      0.00
   11    7   20      0.02      0.00
   12    7   20     -0.08      0.00
   -4    8   20      0.86      0.00
   -3    8   20     -1.36      0.00
   -2    8   20      0.01      0.00
   -1    8   20     -0.08      0.00
    0    8   20      1.03      0.00
    1    8   20      1.47      0.00
    2    8   20      0.37      0.00
    3    8   20      0.42      0.00
    4    8   20      2.33      0.00
    5    8   20     -0.44      0.00
    6    8   20      0.54      0.00
    7    8   20     -0.54      0.00
    8    8   20      0.03      0.00
    9    8   20      0.61      0.00
   10    8   20      0.69      0.00
   11    8   20      0.44      0.00
   12    8   20      1.30      0.00
   -4    9   20      0.25      0.00
   -3    9   20      0.44      0.00
   -2    9   20      1.06      0.00
   -1    9   20      0.29      0.00
    0    9   20      0.89      0.00
    1    9   20     -0.06      0.00
    2    9   20     -1.46      0.00
    3    9   20     -1.04      0.00
    4    9   20      0.03      0.00
    5    9   20     -0.02      0.00
    6    9   20     -1.08      0.00
    7    9   20     -0.16      0.00
    8    9   20      0.03      0.00
    9    9   20     -0.10      0.00
   10    9   20     -0.42      0.00
   11    9   20     -1.43      0.00
   12    9   20     -0.41      0.00
   -4   10   20     -0.29      0.00
   -3   10   20     -0.74      0.00
   -2   10   20      0.26      0.00
   -1   10   20     -1.17      0.00
    0   10   20     -0.71      0.00
    1   10   20     -0.82      0.00
    2   10   20      0.65      0.00
    3   10   20      0.10      0.00
    4   10   20     -0.03      0.00
    5   10   20      1.69      0.00
    6   10   20      1.42      0.00
    7   10   20      0.73      0.00
    8   10   20      0.16      0.00
    9   10   20     -0.12      0.00
   10   10   20      0.42      0.00
   11   10   20     -0.05      0.00
   12   10   20      0.35      0.00
   -4   11   20     -1.25      0.00
   -3   11   20      0.81      0.00
   -2   11   20     -0.72      0.00
   -1   11   20      0.26      0.00
    0   11   20     -0.31      0.00
    1   11   20      0.01      0.00
    2   11   20      0.09      0.00
    3   11   20      0.02      0.00
    4   11   20     -1.27      0.00
    5   11   20     -2.15      0.00
    6   11   20     -1.45      0.00
    7   11   20     -1.03      0.00
    8   11   20      1.13      0.00
    9   11   20     -0.20      0.00
   10   11   20      0.12      0.00
   11   11   20      0.34      0.00
   12   11   20     -0.91      0.00
   -3   12   20      0.58      0.00
   -2   12   20     -0.16      0.00
   -1   12   20      0.01      0.00
    0   12   20      0.09      0.00
    1   12   20      0.73      0.00
    2   12   20      0.16      0.00
    3   12   20      0.94      0.00
    4   12   20     -0.22      0.00
    5   12   20      0.46      0.00
    6   12   20      1.20      0.00
    7   12   20     -0.26      0.00
    8   12   20     -1.46      0.00
    9   12   20     -0.16      0.00
   10   12   20      0.15      0.00
   11   12   20      1.61      0.00
   -3   13   20     -0.69      0.00
   -2   13   20      1.40      0.00
   -1   13   20      0.39      0.00
    0   13   20      0.08      0.00
    1   13   20      0.16      0.00
    2   13   20     -0.57      0.00
    3   13   20     -0.28      0.00
    4   13   20      0.29      0.00
    5   13   20      0.23      0.00
    6   13   20      1.21      0.00
    7   13   20      0.61      0.00
    8   13   20      0.71      0.00
    9   13   20     -0.36      0.00
   10   13   20     -0.23      0.00
   11   13   20     -2.23      0.00
   -2   14   20     -0.81      0.00
   -1   14   20     -0.67      0.00
    0   14   20     -0.31      0.00
    1   14   20     -1.03      0.00
    2   14   20      0.22      0.00
    3   14   20      0.59      0.00
    4   14   20      0.50      0.00
    5   14   20      0.29      0.00
    6   14   20     -0.79      0.00
    7   14   20      1.50      0.00
    8   14   20     -0.23      0.00
    9   14   20      0.83      0.00
   10   14   20      0.24      0.00
   -2   15   20      0.21      0.00
   -1   15   20     -0.03      0.00
    0   15   20     -0.12      0.00
    1   15   20     -0.04      0.00
    2   15   20      0.13      0.00
    3   15   20     -1.09      0.00
    4   15   20     -1.64      0.00
    5   15   20     -0.96      0.00
    6   15   20     -1.79      0.00
    7   15   20     -0.83      0.00
    8   15   20     -1.01      0.00
    9   15   20     -0.40      0.00
   10   15   20     -0.96      0.00
   -1   16   20      0.34      0.00
    0   16   20      0.72      0.00
    1   16   20      0.49      0.00
    2   16   20      1.46      0.00
    3   16   20      1.40      0.00
    4   16   20      1.42      0.00
    5   16   20      1.35      0.00
    6   16   20      0.61      0.00
    7   16   20     -0.08      0.00
    8   16   20      1.19      0.00
    9   16   20     -0.11      0.00
    0   17   20     -0.46      0.00
    1   17   20      0.49      0.00
    2   17   20     -2.06      0.00
    3   17   20     -1.23      0.00
    4   17   20      0.70      0.00
    5   17   20      0.96      0.00
    6   17   20      0.54      0.00
    7   17   20     -0.19      0.00
    8   17   20     -1.01      0.00
    2   18   20     -0.19      0.00
    3   18   20      0.75      0.00
    4   18   20     -2.07      0.00
    5   18   20     -1.66      0.00
    6   18   20     -0.47      0.00
    3   -4   21      0.49      0.00
    4   -4   21      0.07      0.00
    1   -3   21      0.17      0.00
    2   -3   21      0.27      0.00
    3   -3   21      0.00      0.00
    4   -3   21     -0.35      0.00
    5   -3   21     -1.15      0.00
    6   -3   21     -0.74      0.00
    7   -3   21      0.28      0.00
    0   -2   21      0.90      0.00
    1   -2   21      0.22      0.00
    2   -2   21     -0.69      0.00
    3   -2   21      0.79      0.00
    4   -2   21     -0.07      0.00
    5   -2   21      0.85      0.00
    6   -2   21      0.71      0.00
    7   -2   21     -0.29      0.00
    8   -2   21     -0.32      0.00
   -1   -1   21     -0.90      0.00
    0   -1   21     -1.43      0.00
    1   -1   21      0.01      0.00
    2   -1   21     -1.60      0.00
    3   -1   21      0.62      0.00
    4   -1   21     -0.74      0.00
    5   -1   21      0.51      0.00
    6   -1   21     -0.09      0.00
    7   -1   21      0.74      0.00
    8   -1   21      0.32      0.00
    9   -1   21      0.39      0.00
   -2    0   21      1.46      0.00
   -1    0   21      0.53      0.00
    0    0   21      0.31      0.00
    1    0   21      0.48      0.00
    2    0   21      1.14      0.00
    3    0   21     -2.03      0.00
    4    0   21      0.80      0.00
    5    0   21     -0.35      0.00
    6    0   21     -0.07      0.00
    7    0   21     -0.33      0.00
   10    0   21     -0.98      0.00
   -2    1   21      0.25      0.00
   -1    1   21     -1.65      0.00
    0    1   21      1.85      0.00
    1    1   21     -1.34      0.00
    2    1   21      2.47      0.00
    3    1   21      0.11      0.00
    4    1   21     -0.20      0.00
    5    1   21      0.01      0.00
    6    1   21     -0.88      0.00
    7    1   21      1.02      0.00
   10    1   21     -0.33      0.00
   -2    2   21      0.39      0.00
   -1    2   21      0.32      0.00
    0    2   21     -0.47      0.00
    1    2   21      0.81      0.00
    2    2   21     -1.15      0.00
    3    2   21      0.72      0.00
    4    2   21      0.74      0.00
    5    2   21     -0.02      0.00
    6    2   21      0.21      0.00
   10    2   21      0.97      0.00
   11    2   21      1.27      0.00
   -3    3   21     -0.55      0.00
   -2    3   21     -0.04      0.00
   -1    3   21      0.27      0.00
    0    3   21     -1.78      0.00
    1    3   21      0.33      0.00
    2    3   21     -1.04      0.00
    3    3   21     -0.49      0.00
    4    3   21      0.55      0.00
    5    3   21     -1.67      0.00
    6    3   21      0.45      0.00
   11    3   21      0.12      0.00
   -3    4   21      0.32      0.00
   -2    4   21     -0.96      0.00
   -1    4   21     -0.48      0.00
    0    4   21      1.26      0.00
    1    4   21     -0.89      0.00
    2    4   21      1.18      0.00
    3    4   21     -1.06      0.00
    4    4   21     -0.92      0.00
    5    4   21      1.28      0.00
    6    4   21      1.90      0.00
   -3    5   21      0.04      0.00
   -2    5   21     -0.58      0.00
   -1    5   21     -0.07      0.00
    0    5   21      0.15      0.00
    1    5   21      0.55      0.00
    2    5   21     -0.53      0.00
    3    5   21      0.93      0.00
    4    5   21     -0.07      0.00
    5    5   21     -1.04      0.00
    6    5   21     -1.47      0.00
   -3    6   21      0.14      0.00
   -2    6   21      0.77      0.00
   -1    6   21      1.61      0.00
    0    6   21     -0.19      0.00
    1    6   21     -0.28      0.00
    2    6   21     -0.12      0.00
    3    6   21      1.49      0.00
    4    6   21     -0.57      0.00
    5    6   21      0.99      0.00
    6    6   21     -1.23      0.00
    7    6   21     -0.87      0.00
    8    6   21     -1.64      0.00
    9    6   21     -0.14      0.00
   10    6   21     -1.10      0.00
   -3    7   21     -0.69      0.00
   -2    7   21     -0.83      0.00
   -1    7   21     -0.30      0.00
    0    7   21     -0.18      0.00
    1    7   21     -0.56      0.00
    2    7   21      1.04      0.00
    3    7   21     -0.66      0.00
    4    7   21      1.62      0.00
    5    7   21     -0.40      0.00
    6    7   21      0.69      0.00
    7    7   21     -1.15      0.00
    8    7   21      0.20      0.00
    9    7   21     -0.44      0.00
   10    7   21     -0.32      0.00
   11    7   21     -0.02      0.00
   -3    8   21     -1.05      0.00
   -2    8   21      1.29      0.00
   -1    8   21     -0.90      0.00
    0    8   21      1.04      0.00
    1    8   21      0.43      0.00
    2    8   21     -2.07      0.00
    3    8   21     -1.48      0.00
    4    8   21      0.47      0.00
    5    8   21     -0.48      0.00
    6    8   21      0.95      0.00
    7    8   21      0.00      0.00
    8    8   21      1.12      0.00
    9    8   21      0.97      0.00
   10    8   21      1.32      0.00
   11    8   21     -0.53      0.00
   -3    9   21      0.95      0.00
   -2    9   21     -0.69      0.00
   -1    9   21     -0.10      0.00
    0    9   21      0.14      0.00
    1    9   21      0.47      0.00
    2    9   21      0.42      0.00
    3    9   21      0.42      0.00
    4    9   21     -1.21      0.00
    5    9   21      1.91      0.00
    6    9   21     -0.55      0.00
    7    9   21      0.46      0.00
    8    9   21     -0.55      0.00
    9    9   21     -0.89      0.00
   10    9   21     -0.22      0.00
   11    9   21     -0.44      0.00
   -3   10   21      0.45      0.00
   -2   10   21      0.28      0.00
   -1   10   21      0.57      0.00
    0   10   21     -0.13      0.00
    1   10   21     -1.07      0.00
    2   10   21      1.50      0.00
    3   10   21     -0.36      0.00
    4   10   21     -0.54      0.00
    5   10   21     -0.87      0.00
    6   10   21     -0.35      0.00
    7   10   21     -0.83      0.00
    8   10   21      0.99      0.00
    9   10   21     -0.53      0.00
   10   10   21     -0.06      0.00
   11   10   21      0.32      0.00
   -2   11   21     -0.38      0.00
   -1   11   21     -0.33      0.00
    0   11   21     -1.33      0.00
    1   11   21      0.77      0.00
    2   11   21      0.14      0.00
    3   11   21      1.76      0.00
    4   11   21      0.23      0.00
    5   11   21     -0.45      0.00
    6   11   21      1.02      0.00
    7   11   21      0.53      0.00
    8   11   21      0.41      0.00
    9   11   21     -0.54      0.00
   10   11   21      0.15      0.00
   11   11   21      0.47      0.00
   -2   12   21     -0.12      0.00
   -1   12   21      0.43      0.00
    0   12   21      0.31      0.00
    1   12   21     -0.08      0.00
    2   12   21     -1.61      0.00
    3   12   21     -0.33      0.00
    4   12   21     -1.20      0.00
    5   12   21     -0.47      0.00
    6   12   21     -1.12      0.00
    7   12   21     -0.48      0.00
    8   12   21     -1.13      0.00
    9   12   21      0.97      0.00
   10   12   21      0.06      0.00
   11   12   21     -0.18      0.00
   -2   13   21      1.09      0.00
   -1   13   21     -0.50      0.00
    0   13   21      0.07      0.00
    1   13   21     -0.19      0.00
    2   13   21     -0.08      0.00
    3   13   21     -0.36      0.00
    4   13   21      1.26      0.00
    5   13   21      1.20      0.00
    6   13   21      2.05      0.00
    7   13   21      1.63      0.00
    8   13   21     -0.30      0.00
    9   13   21      0.03      0.00
   10   13   21      0.39      0.00
   -1   14   21      0.31      0.00
    0   14   21      0.11      0.00
    1   14   21      0.74      0.00
    2   14   21      0.84      0.00
    3   14   21      0.14      0.00
    4   14   21     -0.40      0.00
    5   14   21     -0.45      0.00
    6   14   21     -2.70      0.00
    7   14   21      0.33      0.00
    8   14   21     -0.67      0.00
    9   14   21     -0.52      0.00
   10   14   21     -0.97      0.00
    0   15   21      0.29      0.00
    1   15   21     -0.84      0.00
    2   15   21      1.11      0.00
    3   15   21     -0.04      0.00
    4   15   21      0.92      0.00
    5   15   21      0.48      0.00
    6   15   21      0.26      0.00
    7   15   21     -0.59      0.00
    8   15   21      0.93      0.00
    9   15   21      0.54      0.00
    1   16   21      0.04      0.00
    2   16   21     -0.92      0.00
    3   16   21     -1.11      0.00
    4   16   21     -1.14      0.00
    5   16   21      0.03      0.00
    6   16   21      0.93      0.00
    7   16   21     -0.83      0.00
    8   16   21      0.41      0.00
    2   17   21     -1.10      0.00
    3   17   21      1.28      0.00
    4   17   21      0.54      0.00
    5   17   21     -0.63      0.00
    6   17   21     -0.57      0.00
    7   17   21     -0.41      0.00
    3   -2   22     -0.06      0.00
    4   -2   22      0.83      0.00
    5   -2   22      0.17      0.00
    1   -1   22      0.91      0.00
    2   -1   22      0.34      0.00
    3   -1   22     -1.36      0.00
    4   -1   22     -0.56      0.00
    5   -1   22      0.92      0.00
    6   -1   22      0.47      0.00
    7   -1   22     -0.83      0.00
    0    0   22     -0.71      0.00
    1    0   22     -0.33      0.00
    2    0   22      1.44      0.00
    3    0   22     -0.05      0.00
    4    0   22      0.46      0.00
    5    0   22     -1.49      0.00
    6    0   22     -0.03      0.00
    7    0   22      1.11      0.00
    0    1   22      0.53      0.00
    1    1   22     -0.05      0.00
    2    1   22      0.88      0.00
    3    1   22      0.59      0.00
    4    1   22      0.76      0.00
    5    1   22      0.70      0.00
    6    1   22      0.15      0.00
   -1    2   22     -0.14      0.00
    0    2   22     -1.01      0.00
    1    2   22     -0.66      0.00
    2    2   22     -1.54      0.00
    3    2   22     -0.72      0.00
    4    2   22     -0.63      0.00
    5    2   22     -0.51      0.00
    6    2   22     -1.00      0.00
   -1    3   22     -0.11      0.00
    0    3   22     -0.27      0.00
    1    3   22      1.05      0.00
    2    3   22     -0.54      0.00
    3    3   22      0.52      0.00
    4    3   22     -0.42      0.00
    5    3   22     -0.85      0.00
    6    3   22      0.88      0.00
   -1    4   22      0.08      0.00
    0    4   22      1.09      0.00
    1    4   22     -0.21      0.00
    2    4   22      1.35      0.00
    3    4   22      1.09      0.00
    4    4   22      0.26      0.00
    5    4   22      1.81      0.00
    6    4   22     -1.11      0.00
   -2    5   22     -0.95      0.00
   -1    5   22      0.67      0.00
    0    5   22      0.39      0.00
    1    5   22     -1.16      0.00
    2    5   22     -1.19      0.00
    3    5   22     -1.00      0.00
    4    5   22     -0.96      0.00
    5    5   22     -0.01      0.00
    6    5   22      1.01      0.00
   -2    6   22      0.51      0.00
   -1    6   22     -0.51      0.00
    0    6   22     -0.48      0.00
    1    6   22     -0.07      0.00
    2    6   22     -0.05      0.00
    3    6   22      1.38      0.00
    4    6   22      0.20      0.00
    5    6   22     -0.86      0.00
    6    6   22     -1.14      0.00
   -2    7   22      0.71      0.00
   -1    7   22      0.46      0.00
    0    7   22      0.39      0.00
    1    7   22      1.58      0.00
    2    7   22      0.23      0.00
    3    7   22     -0.20      0.00
    4    7   22      1.68      0.00
    5    7   22      0.06      0.00
    6    7   22      0.93      0.00
    7    7   22     -0.09      0.00
    8    7   22      1.63      0.00
    9    7   22     -0.39      0.00
   10    7   22      0.77      0.00
   11    7   22     -0.07      0.00
   -2    8   22      0.34      0.00
   -1    8   22     -1.26      0.00
    0    8   22     -0.01      0.00
    1    8   22     -0.43      0.00
    2    8   22     -0.38      0.00
    3    8   22     -1.68      0.00
    4    8   22     -0.31      0.00
    5    8   22      0.70      0.00
    6    8   22      0.42      0.00
    7    8   22     -0.78      0.00
    8    8   22      0.64      0.00
    9    8   22      0.16      0.00
   10    8   22      1.91      0.00
   11    8   22     -0.64      0.00
   -2    9   22     -0.93      0.00
   -1    9   22      1.23      0.00
    0    9   22      0.00      0.00
    1    9   22     -0.93      0.00
    2    9   22      0.47      0.00
    3    9   22     -0.45      0.00
    4    9   22     -2.03      0.00
    5    9   22      0.50      0.00
    6    9   22     -0.79      0.00
    7    9   22      0.51      0.00
    8    9   22     -0.62      0.00
    9    9   22     -0.80      0.00
   10    9   22     -0.77      0.00
   -1   10   22      0.38      0.00
    0   10   22     -1.35      0.00
    1   10   22      0.35      0.00
    2   10   22      1.30      0.00
    3   10   22      1.54      0.00
    4   10   22      0.94      0.00
    5   10   22     -0.27      0.00
    6   10   22      0.59      0.00
    7   10   22      0.70      0.00
    8   10   22      0.55      0.00
    9   10   22     -0.62      0.00
   10   10   22     -0.42      0.00
   -1   11   22     -0.72      0.00
    0   11   22      0.37      0.00
    1   11   22      0.78      0.00
    2   11   22     -1.22      0.00
    3   11   22      0.07      0.00
    4   11   22     -0.39      0.00
    5   11   22     -1.36      0.00
    6   11   22     -0.79      0.00
    7   11   22     -0.94      0.00
    8   11   22     -0.85      0.00
    9   11   22      0.53      0.00
   10   11   22      0.18      0.00
   -1   12   22     -0.09      0.00
    0   12   22      0.25      0.00
    1   12   22     -0.29      0.00
    2   12   22      0.14      0.00
    3   12   22      0.23      0.00
    4   12   22      0.35      0.00
    5   12   22      0.73      0.00
    6   12   22      1.59      0.00
    7   12   22      2.13      0.00
    8   12   22     -0.13      0.00
    9   12   22      0.42      0.00
   10   12   22     -0.17      0.00
    0   13   22      0.03      0.00
    1   13   22     -0.22      0.00
    2   13   22     -0.60      0.00
    3   13   22     -0.39      0.00
    4   13   22      0.19      0.00
    5   13   22      0.01      0.00
    6   13   22     -1.37      0.00
    7   13   22     -0.54      0.00
    8   13   22     -0.43      0.00
    9   13   22      0.64      0.00
    1   14   22      0.09      0.00
    2   14   22      0.07      0.00
    3   14   22     -0.51      0.00
    4   14   22      0.34      0.00
    5   14   22      0.18      0.00
    6   14   22     -0.32      0.00
    7   14   22     -0.20      0.00
    8   14   22      0.06      0.00
    2   15   22      1.65      0.00
    3   15   22     -0.35      0.00
    4   15   22      0.31      0.00
    5   15   22     -0.48      0.00
    6   15   22      0.37      0.00
    7   15   22     -1.30      0.00
    8   15   22      0.80      0.00
    3   16   22      0.38      0.00
    4   16   22     -0.16      0.00
    5   16   22      0.88      0.00
    6   16   22      0.74      0.00
    2    1   23     -0.70      0.00
    3    1   23      0.11      0.00
    4    1   23      0.97      0.00
    5    1   23     -0.55      0.00
    6    1   23     -0.63      0.00
    1    2   23     -0.41      0.00
    2    2   23     -0.21      0.00
    3    2   23     -0.85      0.00
    4    2   23     -1.01      0.00
    5    2   23      1.31      0.00
    6    2   23     -1.02      0.00
    1    3   23      0.27      0.00
    2    3   23     -0.80      0.00
    3    3   23      1.39      0.00
    4    3   23     -0.77      0.00
    5    3   23     -0.20      0.00
    6    3   23      0.74      0.00
    0    4   23      0.95      0.00
    1    4   23      0.27      0.00
    2    4   23      0.88      0.00
    3    4   23      0.03      0.00
    4    4   23      0.08      0.00
    5    4   23     -0.95      0.00
    6    4   23      0.45      0.00
    0    5   23      0.38      0.00
    1    5   23     -1.25      0.00
    2    5   23     -0.11      0.00
    3    5   23     -0.14      0.00
    4    5   23      1.54      0.00
    5    5   23      0.92      0.00
    6    5   23     -0.40      0.00
    0    6   23      0.04      0.00
    1    6   23      1.04      0.00
    2    6   23     -0.91      0.00
    3    6   23     -0.27      0.00
    4    6   23      0.37      0.00
    5    6   23     -0.40      0.00
    6    6   23      1.18      0.00
    0    7   23     -1.41      0.00
    1    7   23      0.94      0.00
    2    7   23      0.14      0.00
    3    7   23     -1.04      0.00
    4    7   23     -0.98      0.00
    5    7   23     -0.23      0.00
    0    8   23      0.50      0.00
    1    8   23     -0.69      0.00
    2    8   23      1.32      0.00
    3    8   23     -0.85      0.00
    4    8   23     -0.12      0.00
    5    8   23      0.46      0.00
    6    8   23     -0.14      0.00
    7    8   23      0.43      0.00
    8    8   23      0.52      0.00
    9    8   23     -0.16      0.00
    0    9   23     -0.28      0.00
    1    9   23     -0.76      0.00
    2    9   23      0.62      0.00
    3    9   23      1.48      0.00
    4    9   23      0.07      0.00
    5    9   23      0.37      0.00
    6    9   23      0.04      0.00
    7    9   23      0.23      0.00
    8    9   23     -1.28      0.00
    9    9   23     -0.63      0.00
    0   10   23     -0.58      0.00
    1   10   23      0.97      0.00
    2   10   23     -1.15      0.00
    3   10   23      0.36      0.00
    4   10   23     -0.21      0.00
    5   10   23     -0.69      0.00
    6   10   23     -0.37      0.00
    7   10   23      0.52      0.00
    8   10   23      0.16      0.00
    9   10   23      0.41      0.00
    1   11   23     -0.70      0.00
    2   11   23     -0.23      0.00
    3   11   23     -0.17      0.00
    4   11   23      0.51      0.00
    5   11   23     -0.34      0.00
    6   11   23      0.69      0.00
    7   11   23      0.10      0.00
    8   11   23      0.03      0.00
    9   11   23      0.46      0.00
    1   12   23      0.51      0.00
    2   12   23     -0.17      0.00
    3   12   23     -0.63      0.00
    4   12   23     -0.66      0.00
    5   12   23     -0.22      0.00
    6   12   23     -0.18      0.00
    7   12   23     -0.58      0.00
    8   12   23     -0.99      0.00
    2   13   23      0.34      0.00
    3   13   23      1.17      0.00
    4   13   23      0.61      0.00
    5   13   23      1.05      0.00
    6   13   23     -0.01      0.00
    7   13   23      1.67      0.00
    8   13   23      1.20      0.00
    3   14   23     -0.75      0.00
    4   14   23      0.81      0.00
    5   14   23     -0.68      0.00
    6   14   23     -0.69      0.00
    4    4   24      0.43      0.00
    5    4   24     -0.79      0.00
    6    4   24      1.42      0.00
    3    5   24     -0.50      0.00
    4    5   24     -0.14      0.00
    5    5   24      0.22      0.00
    6    5   24     -1.99      0.00
    2    6   24      0.35      0.00
    3    6   24      0.47      0.00
    4    6   24      1.81      0.00
    5    6   24      0.54      0.00
    6    6   24      0.72      0.00
    2    7   24      0.16      0.00
    3    7   24     -1.38      0.00
    4    7   24     -2.25      0.00
    5    7   24      0.98      0.00
    2    8   24      0.05      0.00
    3    8   24      0.39      0.00
    4    8   24     -1.25      0.00
    5    8   24     -0.86      0.00
    6    8   24     -0.72      0.00
    7    8   24      0.46      0.00
    2    9   24      0.56      0.00
    3    9   24      1.63      0.00
    4    9   24      1.76      0.00
    5    9   24     -0.40      0.00
    6    9   24      0.25      0.00
    7    9   24      0.18      0.00
    3   10   24      0.15      0.00
    4   10   24      0.08      0.00
    5   10   24      0.64      0.00
    6   10   24     -0.04      0.00
    7   10   24      0.19      0.00
    3   11   24     -1.23      0.00
    4   11   24     -0.69      0.00
    5   11   24     -0.77      0.00
    6   11   24     -0.18      0.00
    5   12   24      0.51      0.00
    1    0    0      9.32      0.00
    2    0    0     19.15      0.00
    3    0    0    -18.75      0.00
   -3    1    0     16.12      0.00
   -2    1    0    -20.32      0.00
   -1    1    0    -99.01      0.00
    0    1    0   -120.07      0.00
    1    1    0      3.20      0.00
    2    1    0      0.73      0.00
    3    1    0     -6.96      0.00
   -3    2    0     -1.00      0.00
   -2    2    0     23.35      0.00
   -1    2    0     85.03      0.00
    0    2    0    -60.23      0.00
    1    2    0     15.46      0.00
    2    2    0    -18.88      0.00
  -15    3    0      0.16      0.00
   -3    3    0     -0.72      0.00
   -2    3    0     -7.84      0.00
   -1    3    0    -26.29      0.00
    0    3    0     25.16      0.00
    1    3    0      9.96      0.00
    2    3    0     -2.46      0.00
   -1    4    0     20.77      0.00
    0    4    0     -5.33      0.00
    1    4    0      1.31      0.00
   15    4    0      0.49      0.00
  -12    5    0      0.47      0.00
  -13    6    0      0.39      0.00
  -12    6    0     -0.20      0.00
  -13    7    0     -0.71      0.00
  -13    8    0      1.26      0.00
  -13    9    0      0.45      0.00
  -13   10    0     -0.92      0.00
  -12   10    0      1.62      0.00
  -11   10    0     -1.16      0.00
  -10   10    0      0.29      0.00
  -12   11    0      1.34      0.00
  -11   11    0      1.74      0.00
  -10   11    0      3.54      0.00
  -12   12    0     -1.58      0.00
  -11   12    0     -0.93      0.00
  -10   12    0     -2.51      0.00
  -11   13    0      0.76      0.00
  -10   13    0     -0.62      0.00
  -11   14    0      0.19      0.00
   -7   15    0     -1.33      0.00
   11   15    0      0.86      0.00
    7   19    0     -0.78      0.00
   -1   21    0      0.41      0.00
    2   21    0     -0.61      0.00
   -4  -20    1      0.73      0.00
    4  -20    1      0.55      0.00
    6  -19    1     -1.51      0.00
   11  -14    1      0.12      0.00
   10  -13    1     -2.23      0.00
   11  -13    1     -1.49      0.00
   10  -12    1      1.94      0.00
   11  -12    1      2.37      0.00
   12  -12    1      0.47      0.00
   10  -11    1      1.12      0.00
   11  -11    1     -2.25      0.00
   12  -11    1      1.68      0.00
    7  -10    1     -1.96      0.00
   10  -10    1     -0.63      0.00
   11  -10    1     -0.01      0.00
   12  -10    1     -1.07      0.00
   13  -10    1      0.34      0.00
   12   -9    1     -0.66      0.00
   13   -9    1     -0.88      0.00
   12   -8    1      0.33      0.00
   14   -8    1      0.23      0.00
   12   -7    1     -0.35      0.00
    0   -4    1    -14.58      0.00
   15   -4    1     -0.79      0.00
   -1   -3    1     32.21      0.00
    0   -3    1    -26.97      0.00
    1   -3    1    -14.58      0.00
    2   -3    1     31.41      0.00
  -15   -2    1      0.44      0.00
   -2   -2    1     -4.92      0.00
   -1   -2    1     14.88      0.00
    0   -2    1     -9.20      0.00
    1   -2    1    -48.89      0.00
    2   -2    1    -38.42      0.00
    3   -2    1    -14.32      0.00
  -15   -1    1      0.09      0.00
   -2   -1    1      1.85      0.00
   -1   -1    1    -44.17      0.00
    0   -1    1     48.13      0.00
    1   -1    1     86.94      0.00
    2   -1    1     64.38      0.00
    3   -1    1     10.58      0.00
  -15    0    1     -0.64      0.00
   -2    0    1     10.99      0.00
   -1    0    1    -21.79      0.00
    0    0    1     23.72      0.00
    1    0    1   -154.29      0.00
    2    0    1    -38.23      0.00
    3    0    1     -5.76      0.00
  -15    1    1      0.46      0.00
   -2    1    1    -18.56      0.00
   -1    1    1     39.83      0.00
    0    1    1     51.85      0.00
    1    1    1    126.89      0.00
    2    1    1    -18.85      0.00
    3    1    1     -8.62      0.00
   -2    2    1     10.71      0.00
   -1    2    1    -17.60      0.00
    0    2    1   -177.94      0.00
    1    2    1      5.95      0.00
    2    2    1      6.75      0.00
    3    2    1     20.53      0.00
  -12    3    1     -0.13      0.00
   -2    3    1     10.33      0.00
   -1    3    1     36.66      0.00
    0    3    1     89.63      0.00
    1    3    1    -37.75      0.00
    2    3    1      4.23      0.00
  -13    4    1     -0.68      0.00
   -1    4    1    -30.29      0.00
    0    4    1      9.64      0.00
    1    4    1      3.23      0.00
  -13    5    1      1.65      0.00
  -14    6    1     -0.03      0.00
  -13    6    1      0.34      0.00
   15    6    1      0.24      0.00
  -14    7    1      0.18      0.00
   -1    7    1     -9.32      0.00
  -13   10    1     -2.03      0.00
  -12   11    1     -0.69      0.00
  -11   11    1      1.84      0.00
  -10   11    1      0.08      0.00
  -12   12    1     -0.41      0.00
  -11   12    1      0.08      0.00
  -10   12    1     -1.26      0.00
   13   12    1      0.59      0.00
  -11   13    1     -0.75      0.00
   -2   13    1      0.11      0.00
  -11   14    1      1.16      0.00
   12   14    1     -0.11      0.00
  -10   15    1      0.50      0.00
   -5   20    1      0.87      0.00
    6   20    1      0.73      0.00
    4   21    1     -0.35      0.00
   -3  -20    2     -0.04      0.00
    3  -20    2     -1.65      0.00
   -7  -18    2      0.36      0.00
    7  -18    2      0.22      0.00
  -10  -15    2     -0.59      0.00
   11  -14    2     -0.31      0.00
    2  -13    2      1.96      0.00
   10  -13    2      1.41      0.00
   11  -13    2      0.12      0.00
  -12  -12    2      0.82      0.00
   10  -12    2     -0.71      0.00
   11  -12    2     -1.20      0.00
   12  -12    2     -0.75      0.00
   11  -11    2      0.69      0.00
   12  -11    2      2.27      0.00
   12  -10    2     -2.13      0.00
   13  -10    2     -0.18      0.00
   12   -9    2     -0.08      0.00
   13   -9    2     -1.84      0.00
    0   -8    2      1.72      0.00
   13   -8    2      1.04      0.00
   14   -8    2      0.21      0.00
   -7   -3    2     -1.21      0.00
   -1   -3    2     26.66      0.00
    0   -3    2    -27.04      0.00
    1   -3    2    -17.17      0.00
   -2   -2    2      8.78      0.00
   -1   -2    2    -13.71      0.00
    0   -2    2     22.49      0.00
    1   -2    2    -63.53      0.00
    2   -2    2     17.79      0.00
   -2   -1    2     -9.25      0.00
   -1   -1    2    -28.55      0.00
    0   -1    2     55.45      0.00
    1   -1    2     42.32      0.00
    2   -1    2    -66.13      0.00
    3   -1    2    -29.22      0.00
   -2    0    2    -12.60      0.00
   -1    0    2      8.10      0.00
    0    0    2    -12.60      0.00
    1    0    2     80.41      0.00
    2    0    2     92.07      0.00
    3    0    2     27.92      0.00
   -2    1    2      9.90      0.00
   -1    1    2     17.15      0.00
    0    1    2    -78.11      0.00
    1    1    2   -148.91      0.00
    2    1    2    -98.11      0.00
    3    1    2     -3.35      0.00
  -13    2    2     -0.60      0.00
  -12    2    2      0.79      0.00
   -2    2    2     13.34      0.00
   -1    2    2     14.36      0.00
    0    2    2     41.34      0.00
    1    2    2    149.18      0.00
    2    2    2     25.05      0.00
    3    2    2     -5.44      0.00
  -13    3    2      1.07      0.00
   -2    3    2     -1.38      0.00
   -1    3    2    -18.96      0.00
    0    3    2    -24.26      0.00
    1    3    2    -75.84      0.00
    2    3    2     41.43      0.00
  -14    4    2     -0.92      0.00
  -13    4    2      0.69      0.00
   -1    4    2      1.28      0.00
    0    4    2     47.96      0.00
    1    4    2    -12.05      0.00
    2    4    2     -1.54      0.00
  -14    5    2      1.65      0.00
    1    5    2     27.89      0.00
  -14    6    2     -0.37      0.00
   15    7    2      1.59      0.00
  -13   10    2      0.17      0.00
  -12   12    2     -0.48      0.00
  -11   12    2     -1.07      0.00
  -10   12    2     -3.46      0.00
   -8   12    2     -2.69      0.00
  -11   13    2      0.99      0.00
  -10   13    2      2.69      0.00
  -11   14    2     -0.56      0.00
   -6   14    2     -0.62      0.00
   -3   16    2      2.41      0.00
   11   16    2     -0.28      0.00
   -3   17    2      0.18      0.00
    0   17    2      1.12      0.00
    8   19    2     -0.38      0.00
   -3   21    2     -0.36      0.00
    5   21    2     -0.05      0.00
   -1  -20    3     -0.80      0.00
    0  -20    3     -1.16      0.00
    1  -20    3     -0.75      0.00
    5  -19    3      0.04      0.00
   -6  -18    3      0.05      0.00
    8  -17    3      0.09      0.00
   10  -15    3     -1.10      0.00
  -11  -13    3      0.13      0.00
   10  -13    3      1.36      0.00
   11  -13    3     -1.58      0.00
   11  -12    3      1.39      0.00
   12  -12    3      1.28      0.00
  -12  -11    3      0.83      0.00
   12  -11    3     -1.46      0.00
   13  -10    3     -0.88      0.00
   13   -9    3      0.19      0.00
   14   -8    3      0.46      0.00
   14   -7    3     -1.59      0.00
  -14   -5    3     -0.43      0.00
   15   -5    3      0.69      0.00
   -8   -2    3     -1.47      0.00
   -1   -2    3    -27.50      0.00
    0   -2    3     13.70      0.00
    1   -2    3    -20.53      0.00
   -2   -1    3     -5.38      0.00
   -1   -1    3     -2.33      0.00
    0   -1    3     11.04      0.00
    1   -1    3     41.22      0.00
    2   -1    3    -12.15      0.00
  -12    0    3     -0.38      0.00
   -2    0    3     -8.05      0.00
   -1    0    3     19.79      0.00
    0    0    3    -22.44      0.00
    1    0    3     17.82      0.00
    2    0    3    -59.28      0.00
    3    0    3    -59.87      0.00
  -13    1    3     -0.93      0.00
   -2    1    3     20.37      0.00
   -1    1    3     -4.51      0.00
    0    1    3    -13.43      0.00
    1    1    3    -21.81      0.00
    2    1    3    122.62      0.00
    3    1    3     64.02      0.00
  -13    2    3      0.71      0.00
   -1    2    3      4.23      0.00
    0    2    3      0.27      0.00
    1    2    3    -47.20      0.00
    2    2    3   -113.52      0.00
    3    2    3    -30.20      0.00
  -14    3    3     -0.77      0.00
   -1    3    3    -12.11      0.00
    0    3    3     24.45      0.00
    1    3    3     83.04      0.00
    2    3    3     73.43      0.00
  -14    4    3      0.80      0.00
    0    4    3    -21.16      0.00
    1    4    3    -71.64      0.00
    2    4    3     -0.75      0.00
  -14    5    3     -0.56      0.00
    1    5    3     40.58      0.00
    4    5    3     -5.85      0.00
  -14    6    3      1.85      0.00
   15    8    3      0.30      0.00
   -7    9    3     -0.26      0.00
   14   11    3      1.17      0.00
  -12   12    3     -0.92      0.00
  -11   12    3     -0.24      0.00
  -11   13    3     -0.49      0.00
  -10   13    3      1.73      0.00
  -11   14    3      0.62      0.00
  -10   14    3      0.48      0.00
   -6   14    3     -0.54      0.00
   -3   14    3     -1.26      0.00
  -10   15    3     -1.38      0.00
   12   15    3      1.09      0.00
   -7   16    3      1.92      0.00
   -8   18    3     -0.44      0.00
    0   22    3      1.35      0.00
    1   22    3      0.31      0.00
    2   22    3     -0.68      0.00
   -3  -19    4      0.97      0.00
    4  -19    4      1.48      0.00
    6  -18    4     -0.62      0.00
   -8  -16    4      1.26      0.00
   -9  -15    4     -1.11      0.00
    3  -14    4     -0.44      0.00
    6  -13    4     -1.79      0.00
   11  -13    4     -1.24      0.00
  -11  -12    4     -0.18      0.00
    6  -12    4      3.54      0.00
   11  -12    4     -0.61      0.00
   12  -12    4     -0.36      0.00
   10  -11    4     -1.38      0.00
  -12  -10    4     -1.37      0.00
   13  -10    4     -1.69      0.00
   14   -8    4      1.15      0.00
   -3   -7    4     -2.22      0.00
   15   -5    4     -0.97      0.00
  -14   -3    4     -1.02      0.00
  -12   -1    4      3.00      0.00
    0   -1    4     -5.77      0.00
    1   -1    4     19.06      0.00
    2   -1    4     17.32      0.00
  -13    0    4      0.02      0.00
  -12    0    4     -2.57      0.00
   -1    0    4     18.60      0.00
    0    0    4     -9.60      0.00
    1    0    4    -18.64      0.00
    2    0    4    -31.21      0.00
  -13    1    4      0.50      0.00
   -1    1    4     -2.00      0.00
    0    1    4      5.22      0.00
    1    1    4    -22.21      0.00
    2    1    4     -0.42      0.00
  -14    2    4     -0.23      0.00
   -1    2    4     -7.49      0.00
    0    2    4      6.97      0.00
    1    2    4     27.15      0.00
    2    2    4     83.07      0.00
  -14    3    4     -0.93      0.00
    0    3    4    -15.22      0.00
    1    3    4    -13.94      0.00
    2    3    4   -107.35      0.00
  -14    4    4      1.51      0.00
    1    4    4     18.83      0.00
  -13    9    4      0.37      0.00
  -11   13    4     -0.38      0.00
  -10   13    4      1.55      0.00
   -8   13    4      0.89      0.00
  -10   14    4     -1.98      0.00
   -9   14    4     -0.79      0.00
   -7   14    4     -1.68      0.00
   -3   14    4      0.61      0.00
   13   14    4      1.81      0.00
   -9   15    4     -0.35      0.00
   -3   15    4     -0.06      0.00
   -9   16    4     -0.09      0.00
   -3   16    4     -0.69      0.00
   -1   16    4      0.03      0.00
   11   17    4     -1.05      0.00
   10   18    4     -0.52      0.00
    9   19    4      1.17      0.00
    6   21    4     -0.31      0.00
   -1   22    4      1.61      0.00
    0   22    4     -1.13      0.00
    3   22    4      0.84      0.00
   -1  -19    5     -0.03      0.00
    0  -19    5      0.99      0.00
    1  -19    5      0.25      0.00
    2  -19    5      0.63      0.00
   -4  -18    5      0.11      0.00
   -6  -17    5      0.48      0.00
    7  -17    5     -1.30      0.00
   -7  -16    5     -0.90      0.00
   -9  -14    5     -0.72      0.00
   12  -12    5      1.13      0.00
  -11  -11    5     -0.46      0.00
   10  -11    5     -2.41      0.00
  -12   -9    5     -0.32      0.00
   14   -8    5     -0.62      0.00
  -13   -6    5     -0.92      0.00
   15   -5    5     -1.35      0.00
  -12   -2    5     -0.13      0.00
  -11   -2    5     -0.04      0.00
   -8   -2    5      2.45      0.00
    0   -2    5     -6.34      0.00
  -12   -1    5      0.03      0.00
  -13    0    5     -0.13      0.00
    2    0    5    -24.74      0.00
    1    1    5     -2.69      0.00
    2    1    5     10.12      0.00
   -2    2    5     -2.97      0.00
    1    2    5      8.29      0.00
    2    2    5      9.04      0.00
    4    2    5    -55.72      0.00
   -4    3    5     -3.33      0.00
    3    4    5    -71.46      0.00
  -13    8    5      0.95      0.00
   -3    9    5     -1.76      0.00
   15    9    5     -0.39      0.00
  -12   11    5     -1.17      0.00
   14   12    5      0.33      0.00
  -10   14    5     -0.26      0.00
   -8   14    5     -0.12      0.00
   -7   14    5      0.59      0.00
  -10   15    5      0.62      0.00
   -8   15    5     -0.54      0.00
   -6   15    5      2.06      0.00
   -3   15    5     -1.70      0.00
   -8   16    5      0.64      0.00
   -2   16    5     -1.29      0.00
   12   16    5     -1.21      0.00
   -8   17    5     -0.81      0.00
    0   17    5      0.50      0.00
    8   20    5     -1.30      0.00
   -4   21    5     -1.15      0.00
   -1   22    5      0.87      0.00
    4   22    5     -0.95      0.00
   -3  -18    6      0.11      0.00
    4  -18    6     -0.22      0.00
   -5  -17    6     -1.22      0.00
    8  -16    6      0.26      0.00
   10  -14    6      0.30      0.00
   11  -13    6     -0.34      0.00
   11  -11    6      1.64      0.00
  -11  -10    6     -0.02      0.00
   13  -10    6     -1.42      0.00
    3   -7    6      3.48      0.00
   15   -5    6     -0.51      0.00
  -13   -4    6      0.01      0.00
  -11   -3    6      0.13      0.00
  -12   -2    6      0.68      0.00
  -10   -2    6      1.24      0.00
   -8   -2    6      0.86      0.00
  -13   -1    6     -2.44      0.00
  -10   -1    6      2.96      0.00
  -13    0    6      2.56      0.00
   -8    0    6     -0.67      0.00
   16    2    6     -0.78      0.00
   16    3    6      0.52      0.00
  -13    7    6     -0.25      0.00
  -11   13    6      0.34      0.00
  -10   15    6      0.47      0.00
   -7   15    6     -1.92      0.00
   -6   15    6      3.09      0.00
   -7   16    6     -0.55      0.00
   -2   16    6     -2.11      0.00
   -8   17    6     -0.61      0.00
   -7   17    6      1.71      0.00
   -1   17    6     -3.09      0.00
    0   17    6      2.04      0.00
    4   20    6     -1.51      0.00
   -4   21    6     -1.45      0.00
    4   21    6     -0.38      0.00
    5   21    6     -1.95      0.00
    7   21    6     -0.39      0.00
    4   22    6      1.14      0.00
    5   22    6     -0.11      0.00
    0  -18    7      1.10      0.00
    1  -18    7     -1.00      0.00
    2  -18    7     -0.02      0.00
   11  -11    7     -0.62      0.00
   12  -11    7     -1.05      0.00
   -7  -10    7      0.59      0.00
   10  -10    7      1.93      0.00
  -11   -9    7     -0.51      0.00
  -12   -6    7     -0.16      0.00
  -11   -4    7      0.53      0.00
  -10   -4    7      1.02      0.00
  -12   -3    7      1.87      0.00
  -11   -3    7     -0.62      0.00
  -13   -2    7     -0.43      0.00
  -12   -2    7     -1.03      0.00
    3   -2    7     10.47      0.00
  -13   -1    7     -0.15      0.00
   16    2    7     -0.32      0.00
   16    3    7      0.59      0.00
  -13    4    7     -0.14      0.00
   16    4    7     -0.94      0.00
  -13    5    7      1.46      0.00
   15   10    7      0.95      0.00
   14   13    7     -0.26      0.00
   13   15    7     -0.64      0.00
   -9   16    7      0.88      0.00
   -6   16    7     -2.35      0.00
   -3   16    7      3.02      0.00
   -6   17    7     -1.90      0.00
    0   17    7      1.04      0.00
   -7   18    7     -0.13      0.00
   -6   18    7      2.75      0.00
    0   18    7      0.24      0.00
   11   18    7      0.52      0.00
    4   19    7     -1.65      0.00
   10   19    7     -0.66      0.00
    4   20    7      1.26      0.00
    5   20    7     -1.09      0.00
   -4   21    7     -1.69      0.00
    4   21    7     -0.25      0.00
    5   21    7     -1.76      0.00
    6   21    7      0.05      0.00
    4   22    7      0.74      0.00
    5   22    7     -0.54      0.00
   -2  -17    8      0.18      0.00
    4  -17    8      0.20      0.00
   -4  -16    8      0.69      0.00
    8  -15    8      0.77      0.00
   11  -12    8     -0.11      0.00
   10  -10    8      1.23      0.00
   11  -10    8     -0.19      0.00
  -11   -7    8      1.12      0.00
   14   -7    8      0.26      0.00
  -11   -6    8     -0.39      0.00
  -10   -6    8     -1.91      0.00
  -10   -5    8      0.17      0.00
  -11   -4    8      1.73      0.00
   15   -4    8     -0.44      0.00
  -12   -3    8      1.57      0.00
   -8   -2    8      0.84      0.00
    3    0    8      0.91      0.00
   16    2    8      0.53      0.00
   16    3    8      0.01      0.00
   16    4    8     -0.85      0.00
   14   13    8      0.27      0.00
  -10   14    8      1.13      0.00
   -4   15    8     -1.46      0.00
   13   15    8     -1.17      0.00
   -8   17    8      1.49      0.00
   -5   17    8      2.21      0.00
   -4   17    8      1.26      0.00
    0   17    8      0.79      0.00
   -5   18    8     -1.02      0.00
    0   18    8      1.85      0.00
    5   18    8     -0.07      0.00
   11   18    8      0.52      0.00
   -5   19    8     -0.75      0.00
    1   19    8      1.32      0.00
    4   19    8      1.68      0.00
    5   19    8     -1.35      0.00
   10   19    8     -1.15      0.00
   -5   20    8     -0.06      0.00
    4   20    8      0.25      0.00
    5   20    8     -1.34      0.00
    6   20    8      0.33      0.00
    9   20    8      0.24      0.00
    4   21    8      0.46      0.00
    5   21    8      0.13      0.00
    6   21    8     -1.39      0.00
    7   21    8      1.65      0.00
    4   22    8     -0.34      0.00
    5   22    8      0.13      0.00
    5  -16    9     -0.13      0.00
   -7  -13    9     -1.14      0.00
   -9  -10    9      0.35      0.00
   11  -10    9      2.64      0.00
   10   -9    9     -0.38      0.00
  -10   -8    9      1.44      0.00
  -10   -7    9     -1.61      0.00
  -11   -6    9     -0.54      0.00
  -10   -6    9     -1.45      0.00
   -9   -6    9      0.08      0.00
  -11   -5    9     -1.07      0.00
  -10   -5    9      1.73      0.00
   -9   -5    9      1.84      0.00
   -8   -5    9      2.18      0.00
  -11   -4    9      1.69      0.00
  -12   -2    9      0.60      0.00
    1   -2    9      4.21      0.00
   16    3    9     -0.33      0.00
   16    4    9     -0.61      0.00
  -12    6    9     -0.07      0.00
  -12    7    9      0.63      0.00
    2    7    9     -2.72      0.00
  -11   11    9     -0.44      0.00
  -10   13    9      0.53      0.00
   -9   15    9      0.74      0.00
   -3   17    9     -1.97      0.00
   12   17    9     -0.16      0.00
   -7   18    9      0.67      0.00
   -3   18    9      1.47      0.00
    0   18    9      0.66      0.00
    5   18    9     -2.75      0.00
    6   18    9      2.56      0.00
   11   18    9      0.35      0.00
   -6   19    9     -0.59      0.00
   -5   19    9     -1.78      0.00
   -4   19    9     -1.20      0.00
   -3   19    9      0.23      0.00
    4   19    9      1.61      0.00
    5   19    9     -1.68      0.00
    6   19    9      0.65      0.00
   -5   20    9      0.84      0.00
   -4   20    9      0.05      0.00
    4   20    9     -1.86      0.00
    5   20    9      2.04      0.00
    6   20    9     -2.72      0.00
    7   20    9      1.51      0.00
    9   20    9      0.89      0.00
    4   21    9      0.17      0.00
    5   21    9     -0.61      0.00
    6   21    9      1.27      0.00
    7   21    9      0.28      0.00
   -1   22    9     -1.08      0.00
    4   22    9     -0.13      0.00
    5   22    9     -0.15      0.00
    0  -16   10      0.68      0.00
    1  -16   10     -0.53      0.00
    2  -16   10      0.39      0.00
    3  -16   10      0.30      0.00
   -3  -15   10     -0.07      0.00
    6  -15   10     -0.75      0.00
    8  -14   10      0.70      0.00
   -6  -13   10      0.41      0.00
   -7  -12   10      0.14      0.00
   11  -11   10      0.01      0.00
   -9   -9   10      1.53      0.00
   10   -9   10     -0.44      0.00
   -9   -8   10     -1.10      0.00
    9   -8   10     -0.04      0.00
   13   -8   10     -0.67      0.00
  -10   -7   10     -1.13      0.00
   -9   -7   10     -0.76      0.00
  -10   -6   10     -1.06      0.00
   -9   -6   10      0.52      0.00
   -8   -6   10      1.99      0.00
   14   -6   10      0.63      0.00
  -10   -5   10      1.67      0.00
   -9   -5   10      0.45      0.00
   -8   -5   10     -0.19      0.00
   -7   -5   10      0.40      0.00
  -11   -4   10      0.92      0.00
  -10   -4   10      0.49      0.00
   -9   -4   10      0.11      0.00
   -8   -4   10     -0.06      0.00
   -7   -4   10      1.03      0.00
   15   -3   10     -0.28      0.00
    1    3   10      1.71      0.00
   12   17   10      0.53      0.00
   -1   18   10     -0.35      0.00
    0   18   10     -2.31      0.00
   -2   19   10      1.04      0.00
   -1   19   10      2.33      0.00
    4   19   10     -2.03      0.00
    5   19   10      2.73      0.00
    6   19   10     -1.07      0.00
    7   19   10      3.22      0.00
    8   19   10     -0.14      0.00
   -2   20   10     -1.98      0.00
   -1   20   10     -0.77      0.00
    4   20   10     -1.29      0.00
    5   20   10     -0.07      0.00
    6   20   10     -0.78      0.00
    7   20   10     -0.37      0.00
    8   20   10     -0.31      0.00
    9   20   10      1.04      0.00
   -3   21   10      0.76      0.00
   -2   21   10      1.32      0.00
    4   21   10      0.66      0.00
    5   21   10     -1.55      0.00
    6   21   10      2.04      0.00
    7   21   10     -1.78      0.00
    8   21   10      0.39      0.00
   -1   22   10     -1.65      0.00
    4   22   10      0.25      0.00
    5   22   10      0.26      0.00
   -1  -15   11      0.48      0.00
    4  -15   11     -0.84      0.00
    5  -15   11      0.12      0.00
    7  -14   11      0.08      0.00
   -6  -12   11      0.24      0.00
   -8   -9   11     -0.09      0.00
   11   -9   11     -0.58      0.00
   -8   -8   11      1.90      0.00
   10   -8   11     -0.01      0.00
   -9   -7   11     -1.42      0.00
   -8   -7   11     -1.22      0.00
   -7   -7   11      0.97      0.00
   -9   -6   11      1.99      0.00
   -8   -6   11      1.07      0.00
   -7   -6   11      0.77      0.00
  -10   -5   11      0.54      0.00
   -9   -5   11     -0.23      0.00
   -8   -5   11     -0.36      0.00
   -7   -5   11     -0.02      0.00
  -10   -4   11      1.06      0.00
   -9   -4   11     -0.58      0.00
   -8   -4   11     -2.40      0.00
   -7   -4   11     -0.95      0.00
  -10   -3   11     -0.54      0.00
   -9   -3   11      1.45      0.00
   -8   -3   11      1.06      0.00
  -11   -1   11      0.41      0.00
    2   -1   11     -0.19      0.00
   -7    1   11      0.97      0.00
    5    6   11     -6.85      0.00
  -11    7   11      0.36      0.00
    5    7   11      3.41      0.00
  -11    8   11     -0.85      0.00
   11    8   11     -0.63      0.00
   -9   14   11     -0.58      0.00
   -7   17   11      0.42      0.00
   12   17   11     -0.95      0.00
    1   19   11     -0.40      0.00
    2   19   11     -1.60      0.00
    3   19   11      0.90      0.00
    4   19   11     -1.07      0.00
    5   19   11      1.75      0.00
   -4   20   11      0.55      0.00
    0   20   11      1.43      0.00
    1   20   11      0.87      0.00
    2   20   11      1.45      0.00
    3   20   11     -0.81      0.00
    4   20   11      0.97      0.00
    5   20   11     -2.02      0.00
    6   20   11      2.44      0.00
    7   20   11     -1.03      0.00
    8   20   11      1.10      0.00
    9   20   11     -0.38      0.00
    0   21   11      1.15      0.00
    1   21   11     -1.18      0.00
    2   21   11      0.27      0.00
    4   21   11     -0.52      0.00
    5   21   11      0.14      0.00
    6   21   11     -0.58      0.00
    7   21   11      0.84      0.00
    8   21   11      0.59      0.00
    0   22   11      0.30      0.00
    1   22   11     -0.07      0.00
    2   22   11     -0.81      0.00
    4   22   11      0.28      0.00
    5   22   11     -0.02      0.00
   -1  -14   12      0.19      0.00
    5  -14   12     -0.02      0.00
    9  -12   12     -0.78      0.00
   10  -11   12      1.13      0.00
   -6  -10   12     -0.08      0.00
   11  -10   12      0.63      0.00
   -7   -9   12      0.22      0.00
   -8   -8   12     -1.00      0.00
   -7   -8   12     -2.00      0.00
   10   -8   12      0.49      0.00
   -8   -7   12      0.82      0.00
   -7   -7   12      2.11      0.00
    9   -7   12     -1.55      0.00
   13   -7   12      1.20      0.00
   -9   -6   12      1.09      0.00
   -8   -6   12     -0.62      0.00
   -7   -6   12      1.18      0.00
   -9   -5   12      0.36      0.00
   -8   -5   12      0.28      0.00
   -7   -5   12     -1.31      0.00
   -9   -4   12     -1.26      0.00
   -8   -4   12     -0.55      0.00
  -10   -3   12     -0.31      0.00
   -9   -3   12     -0.26      0.00
   -8   -3   12     -1.28      0.00
   -5   -2   12     -0.45      0.00
   -6    1   12     -2.49      0.00
   -6    2   12      0.11      0.00
  -10   10   12     -0.99      0.00
   15   10   12      0.07      0.00
   -9   13   12     -0.25      0.00
   -8   15   12     -0.52      0.00
   12   17   12     -0.82      0.00
   -6   18   12      0.61      0.00
   -5   19   12     -0.52      0.00
    4   20   12     -0.23      0.00
    5   20   12      0.82      0.00
    6   20   12     -0.54      0.00
    7   20   12     -0.60      0.00
    8   20   12     -0.32      0.00
    9   20   12     -1.04      0.00
   -2   21   12      1.48      0.00
    4   21   12      0.02      0.00
    5   21   12      0.90      0.00
    6   21   12     -0.77      0.00
    7   21   12      1.20      0.00
    0   22   12     -1.15      0.00
    1   22   12      1.32      0.00
    4   22   12      0.20      0.00
    5   22   12     -0.45      0.00
    6  -13   13     -0.56      0.00
    8  -12   13      0.64      0.00
    9  -11   13      0.03      0.00
   11   -9   13     -0.52      0.00
   -7   -8   13      0.51      0.00
   11   -8   13      1.49      0.00
   -7   -7   13     -0.56      0.00
   10   -7   13     -0.76      0.00
   -8   -6   13      0.57      0.00
   -7   -6   13      1.49      0.00
   13   -6   13     -0.50      0.00
   -8   -5   13     -0.62      0.00
   -7   -5   13     -1.83      0.00
   -9   -4   13     -0.45      0.00
   -8   -4   13      1.01      0.00
   -7   -4   13     -0.22      0.00
   14   -4   13     -1.01      0.00
   -9   -3   13     -1.41      0.00
   -8   -3   13     -1.22      0.00
   -9   -2   13      0.28      0.00
   -8   -2   13     -0.23      0.00
  -10    0   13     -0.15      0.00
   15    0   13     -1.27      0.00
  -10    7   13      0.50      0.00
  -10    8   13      0.05      0.00
   -8    9   13      0.73      0.00
   15   10   13      0.53      0.00
   14   13   13      1.73      0.00
   -8   14   13     -0.39      0.00
   13   15   13      0.43      0.00
   -7   16   13     -0.52      0.00
   12   17   13      0.57      0.00
   11   18   13     -1.27      0.00
   10   19   13      0.38      0.00
   -3   20   13     -0.16      0.00
    9   20   13      0.91      0.00
    4   21   13      1.05      0.00
    5   21   13     -0.95      0.00
    6   21   13      0.81      0.00
    7   21   13     -1.57      0.00
    1   22   13      1.43      0.00
    2   22   13     -0.80      0.00
    3   22   13      0.61      0.00
    4   22   13      0.42      0.00
    5   22   13      0.16      0.00
    2  -13   14     -0.19      0.00
    3  -13   14      0.34      0.00
   -3  -11   14     -0.40      0.00
    8  -11   14      1.52      0.00
   11   -7   14     -1.07      0.00
   12   -7   14      0.78      0.00
   -7   -6   14     -0.94      0.00
    9   -6   14      0.04      0.00
   -7   -5   14      0.14      0.00
   13   -5   14      2.30      0.00
   -8   -4   14     -0.23      0.00
   -7   -4   14     -1.17      0.00
   -8   -3   14     -0.21      0.00
   14   -3   14     -0.15      0.00
   -9   -2   14      1.20      0.00
   -8   -2   14     -0.29      0.00
   -9   -1   14      1.11      0.00
   -8   -1   14      0.91      0.00
   15    1   14      0.62      0.00
   15    9   14      0.86      0.00
   -9   10   14      0.40      0.00
    9   11   14     -1.72      0.00
   -8   13   14      0.30      0.00
   -7   15   14     -0.05      0.00
   13   15   14      0.85      0.00
   11   18   14      0.36      0.00
   -4   19   14      0.51      0.00
   10   19   14     -0.57      0.00
    9   20   14      0.83      0.00
   -1   21   14      0.09      0.00
    4   21   14      0.89      0.00
    7   21   14     -1.48      0.00
    3   22   14      0.59      0.00
    4   22   14     -1.39      0.00
    2  -12   15      0.38      0.00
    3  -12   15     -0.19      0.00
    4  -12   15      1.34      0.00
    7  -11   15      0.51      0.00
   -3  -10   15      0.54      0.00
   -4   -9   15      0.10      0.00
   -5   -8   15     -0.30      0.00
   11   -7   15     -2.19      0.00
   10   -6   15      1.53      0.00
   12   -6   15      0.99      0.00
   -7   -5   15     -0.38      0.00
    9   -5   15      1.73      0.00
   -7   -4   15      0.05      0.00
   13   -4   15     -0.67      0.00
   -8   -2   15      0.92      0.00
   -8   -1   15      1.26      0.00
   -8    0   15     -0.14      0.00
   -9    2   15      1.11      0.00
   -9    3   15     -0.46      0.00
   15    3   15     -0.07      0.00
   -9    4   15      0.03      0.00
   15    4   15      0.31      0.00
   -9    5   15      0.19      0.00
   15    5   15     -0.68      0.00
   -9    6   15      0.71      0.00
   15    6   15      1.10      0.00
   -9    7   15     -0.43      0.00
   15    7   15     -0.20      0.00
   -8   11   15      0.78      0.00
   14   12   15      1.00      0.00
   -7   14   15      0.48      0.00
   -5   17   15      0.68      0.00
   -3   19   15      0.45      0.00
   -2   20   15      1.62      0.00
    0   21   15     -0.01      0.00
    2  -11   16     -0.03      0.00
    3  -11   16      0.03      0.00
    4  -11   16      1.10      0.00
   -1  -10   16      0.65      0.00
    7  -10   16     -0.69      0.00
   11   -6   16      0.14      0.00
   -6   -5   16     -0.44      0.00
   10   -5   16     -1.04      0.00
   12   -5   16     -0.90      0.00
    9   -4   16      0.04      0.00
   -7   -3   16      1.20      0.00
    8   -3   16      3.31      0.00
   13   -3   16      0.87      0.00
   14    0   16     -0.16      0.00
   -8    1   16     -0.80      0.00
   -8    9   16     -1.05      0.00
   14   11   16      0.18      0.00
   13   14   16      0.40      0.00
   -5   16   16      0.67      0.00
   12   16   16     -0.20      0.00
   -1   20   16     -0.92      0.00
    8   20   16     -0.04      0.00
    1   21   16     -0.45      0.00
    2   21   16      0.40      0.00
    5   21   16      1.00      0.00
    6   21   16      0.20      0.00
    3  -10   17      0.50      0.00
    7   -9   17      0.05      0.00
   -2   -8   17     -0.62      0.00
   -4   -6   17      0.00      0.00
   11   -5   17     -0.45      0.00
   -6   -3   17      0.69      0.00
   -7    0   17      0.92      0.00
   14    2   17     -0.46      0.00
   -7   10   17     -0.41      0.00
   14   10   17     -1.41      0.00
   -6   13   17      0.13      0.00
    5   14   17      0.97      0.00
   -5   15   17     -0.17      0.00
   11   17   17     -0.57      0.00
   10   18   17      0.51      0.00
    9   19   17      0.76      0.00
    0   20   17     -0.64      0.00
    7   20   17     -0.15      0.00
    0   -8   18      1.29      0.00
    6   -8   18      1.28      0.00
    8   -7   18      0.76      0.00
   10   -4   18     -0.66      0.00
   11   -4   18     -0.15      0.00
    9   -3   18      0.82      0.00
    8   -2   18     -1.03      0.00
   -6    0   18     -0.28      0.00
   13    0   18      0.01      0.00
    7    3   18     -1.89      0.00
   14    5   18      0.17      0.00
   14    6   18      0.73      0.00
   14    7   18     -0.14      0.00
   14    8   18      0.12      0.00
   -6   11   18     -1.04      0.00
   13   12   18      0.23      0.00
   11   16   18      1.05      0.00
    8   19   18     -0.24      0.00
    2   20   18      0.87      0.00
    3   20   18     -0.58      0.00
    5   20   18     -1.21      0.00
    6   20   18      0.37      0.00
    1   -7   19     -0.34      0.00
    6   -7   19      1.12      0.00
    8   -6   19      0.63      0.00
   -2   -5   19      1.13      0.00
    9   -5   19     -0.42      0.00
   -3   -4   19     -0.22      0.00
   10   -4   19      0.14      0.00
   10   -3   19     -0.25      0.00
   -4   -2   19      0.76      0.00
    9   -2   19     -1.18      0.00
    8   -1   19     -0.03      0.00
   12   -1   19      0.77      0.00
   -5    0   19     -0.96      0.00
    7    2   19      1.58      0.00
   13    2   19      0.79      0.00
    7    3   19     -0.49      0.00
    8    3   19      0.35      0.00
    7    4   19     -0.23      0.00
    8    4   19     -0.80      0.00
   -6    5   19      0.37      0.00
   -6    6   19     -1.17      0.00
   13   11   19      1.08      0.00
   -4   14   19     -0.39      0.00
    1   19   19      0.07      0.00
    7   19   19     -0.87      0.00
    3   -6   20     -0.50      0.00
    4   -6   20     -0.97      0.00
    5   -6   20     -0.02      0.00
    7   -5   20      0.51      0.00
   -1   -4   20      0.79      0.00
   -2   -3   20     -0.47      0.00
   10   -2   20     -0.71      0.00
    9   -1   20      1.61      0.00
   11   -1   20     -0.03      0.00
    8    0   20      0.71      0.00
   -4    1   20     -0.84      0.00
    8    1   20     -1.20      0.00
   12    1   20     -1.38      0.00
    7    2   20      0.96      0.00
    8    2   20     -0.92      0.00
    7    3   20     -1.65      0.00
    8    3   20      0.72      0.00
    9    3   20     -1.36      0.00
    7    4   20      0.63      0.00
    8    4   20      2.17      0.00
    9    4   20     -1.88      0.00
   -5    5   20     -0.04      0.00
    9    5   20      1.45      0.00
   10    5   20      1.17      0.00
   -5    6   20      0.07      0.00
   -5    7   20      0.02      0.00
   13    7   20     -1.55      0.00
   12   12   20      0.79      0.00
   -3   14   20      0.22      0.00
   11   14   20      1.45      0.00
   10   16   20      1.13      0.00
    9   17   20      0.62      0.00
    1   18   20      0.07      0.00
    7   18   20     -0.67      0.00
    2   -4   21     -0.24      0.00
    5   -4   21      1.24      0.00
    6   -4   21     -0.08      0.00
    0   -3   21     -0.56      0.00
    8   -3   21     -0.27      0.00
   -1   -2   21      0.02      0.00
    9   -2   21      0.51      0.00
    8    0   21     -1.35      0.00
    9    0   21     -0.79      0.00
    8    1   21      1.25      0.00
    9    1   21     -0.02      0.00
   11    1   21     -0.46      0.00
   -3    2   21      0.34      0.00
    7    2   21     -0.68      0.00
    8    2   21      0.03      0.00
    9    2   21      0.15      0.00
    7    3   21     -2.76      0.00
    8    3   21      1.37      0.00
    9    3   21     -1.17      0.00
   10    3   21     -0.81      0.00
    7    4   21      3.17      0.00
    8    4   21     -0.37      0.00
    9    4   21     -1.46      0.00
   10    4   21     -0.21      0.00
   11    4   21      0.09      0.00
   12    4   21     -0.30      0.00
    7    5   21      0.81      0.00
    8    5   21     -0.31      0.00
    9    5   21      2.90      0.00
   10    5   21      0.82      0.00
   11    5   21     -0.57      0.00
   12    5   21      0.17      0.00
   11    6   21      0.32      0.00
   12    6   21      0.12      0.00
   12    7   21      0.60      0.00
   12    8   21      0.96      0.00
   12    9   21     -1.09      0.00
   12   10   21     -0.22      0.00
   -3   11   21      0.57      0.00
   11   13   21      0.53      0.00
   -1   15   21     -0.49      0.00
    0   16   21     -0.83      0.00
    9   16   21     -0.11      0.00
    1   17   21      0.70      0.00
    4   18   21      0.74      0.00
    5   18   21     -0.38      0.00
    2   -2   22     -1.22      0.00
    6   -2   22      0.03      0.00
    8   -1   22     -0.59      0.00
    8    0   22     -0.70      0.00
    9    0   22     -0.40      0.00
   -1    1   22      0.95      0.00
    7    1   22      0.07      0.00
    8    1   22      0.86      0.00
    9    1   22     -0.83      0.00
    7    2   22     -1.28      0.00
    8    2   22      0.90      0.00
    9    2   22      0.76      0.00
   10    2   22      0.90      0.00
   -2    3   22      0.78      0.00
    7    3   22      1.10      0.00
    8    3   22     -0.24      0.00
    9    3   22     -0.55      0.00
   10    3   22     -1.60      0.00
   -2    4   22     -0.74      0.00
    7    4   22      1.14      0.00
    8    4   22     -1.12      0.00
    9    4   22      0.88      0.00
   10    4   22      1.14      0.00
   11    4   22     -0.64      0.00
    7    5   22      0.60      0.00
    8    5   22     -0.65      0.00
    9    5   22      0.09      0.00
   10    5   22      0.55      0.00
   11    5   22      0.30      0.00
    7    6   22     -2.03      0.00
    8    6   22     -0.53      0.00
    9    6   22      0.41      0.00
   10    6   22     -2.01      0.00
   11    6   22     -0.21      0.00
   11    9   22      0.37      0.00
   -2   10   22     -0.58      0.00
   11   10   22      0.40      0.00
   -1   13   22      0.09      0.00
   10   13   22      0.09      0.00
    0   14   22     -0.40      0.00
    9   14   22     -0.86      0.00
    1   15   22      0.00      0.00
    2   16   22     -1.09      0.00
    7   16   22      0.40      0.00
    3    0   23      1.42      0.00
    4    0   23     -0.53      0.00
    5    0   23     -0.58      0.00
    6    0   23      0.49      0.00
    7    1   23     -0.35      0.00
    7    2   23      0.14      0.00
    8    2   23     -0.29      0.00
    0    3   23     -0.46      0.00
    7    3   23      0.71      0.00
    8    3   23     -0.75      0.00
    9    3   23      0.45      0.00
    7    4   23      0.92      0.00
    8    4   23      1.27      0.00
    9    4   23      0.34      0.00
    7    5   23     -2.41      0.00
    8    5   23     -1.78      0.00
    9    5   23      0.29      0.00
   -1    6   23     -0.59      0.00
    7    6   23     -0.17      0.00
    8    6   23      0.45      0.00
    9    6   23     -0.68      0.00
   10    6   23     -2.25      0.00
   -1    7   23     -0.57      0.00
    6    7   23     -0.50      0.00
    7    7   23     -0.20      0.00
    8    7   23      1.26      0.00
    9    7   23      0.27      0.00
   10    7   23      1.91      0.00
   -1    8   23      0.34      0.00
   10    8   23      0.54      0.00
   10    9   23     -1.13      0.00
   10   10   23      0.11      0.00
    0   11   23      0.71      0.00
    9   12   23     -0.42      0.00
    1   13   23      0.32      0.00
    2   14   23     -0.01      0.00
    7   14   23     -2.33      0.00
    4   15   23     -0.54      0.00
    5   15   23      0.01      0.00
    6   15   23      0.68      0.00
    3    3   24      1.06      0.00
    4    3   24      0.38      0.00
    5    3   24     -0.49      0.00
    6    3   24      1.49      0.00
    2    4   24     -0.74      0.00
    3    4   24     -0.72      0.00
    7    4   24     -0.67      0.00
    2    5   24      0.06      0.00
    7    5   24      0.15      0.00
    8    5   24     -0.52      0.00
    7    6   24     -1.65      0.00
    8    6   24     -0.26      0.00
    1    7   24      0.23      0.00
    6    7   24      0.18      0.00
    7    7   24      1.27      0.00
    8    7   24      1.47      0.00
    1    8   24     -0.90      0.00
    8    8   24     -1.18      0.00
    8    9   24      0.70      0.00
    2   10   24     -0.88      0.00
    8   10   24     -0.30      0.00
    2   11   24     -0.08      0.00
    7   11   24     -0.80      0.00
    3   12   24      0.60      0.00
    4   12   24      0.80      0.00
    6   12   24      0.71      0.00
    7   12   24      0.91      0.00
    5   13   24      0.04      0.00
    0    0    0      0.00      0.00
# SQUEEZE RESULTS (Version = 211117)
# Note: Data are Listed for all Voids in the P1 Unit Cell
# i.e. Centre of Gravity, Solvent Accessible Volume,
# Recovered number of Electrons in the Void and
# Details about the Squeezed Material
loop_
  _platon_squeeze_void_nr
  _platon_squeeze_void_average_x
  _platon_squeeze_void_average_y
  _platon_squeeze_void_average_z
  _platon_squeeze_void_volume
  _platon_squeeze_void_count_electrons
  _platon_squeeze_void_content
   1  0.825  0.500 -0.500      1515       269 ' '
# Missing Reflections Below sin(th)/lambda = 0.25
loop_
  _platon_missing_refln_index_h
  _platon_missing_refln_index_k
  _platon_missing_refln_index_l
  _platon_missing_refln_theta
    1    0    0     1.469
    2    0    0     2.939
    3    0    0     4.411
   -3    1    0     4.563
   -2    1    0     3.149
   -1    1    0     1.831
    0    1    0     1.054
    1    1    0     1.785
    2    1    0     3.096
    3    1    0     4.508
   -3    2    0     4.942
   -2    2    0     3.665
   -1    2    0     2.603
    0    2    0     2.109
    1    2    0     2.538
    2    2    0     3.572
   -3    3    0     5.502
   -2    3    0     4.379
   -1    3    0     3.526
    0    3    0     3.165
    1    3    0     3.453
    2    3    0     4.262
   -1    4    0     4.508
    0    4    0     4.221
    1    4    0     4.433
    0   -4    1     4.652
   -1   -3    1     3.985
    0   -3    1     3.624
    1   -3    1     3.835
    2   -3    1     4.541
   -2   -2    1     4.104
   -1   -2    1     3.113
    0   -2    1     2.619
    1   -2    1     2.890
    2   -2    1     3.765
    3   -2    1     4.933
   -2   -1    1     3.601
   -1   -1    1     2.394
    0   -1    1     1.680
    1   -1    1     2.057
    2   -1    1     3.156
    3   -1    1     4.475
   -2    0    1     3.365
   -1    0    1     2.001
    0    0    1     1.006
    1    0    1     1.528
    2    0    1     2.825
    3    0    1     4.238
   -2    1    1     3.450
   -1    1    1     2.122
    0    1    1     1.194
    1    1    1     1.633
    2    1    1     2.868
    3    1    1     4.257
   -2    2    1     3.836
   -1    2    1     2.688
    0    2    1     2.016
    1    2    1     2.285
    2    2    1     3.271
    3    2    1     4.530
   -2    3    1     4.446
   -1    3    1     3.490
    0    3    1     2.989
    1    3    1     3.163
    2    3    1     3.925
   -1    4    1     4.401
    0    4    1     4.004
    1    4    1     4.126
   -1    7    1     7.381
    0   -8    2     9.335
   -1   -3    2     4.676
    0   -3    2     4.275
    1   -3    2     4.361
   -2   -2    2     4.793
   -1   -2    2     3.869
    0   -2    2     3.362
    1   -2    2     3.458
    2   -2    2     4.117
   -2   -1    2     4.288
   -1   -1    2     3.211
    0   -1    2     2.561
    1   -1    2     2.671
    2   -1    2     3.469
    3   -1    2     4.612
   -2    0    2     4.005
   -1    0    2     2.807
    0    0    2     2.012
    1    0    2     2.131
    2    0    2     3.058
    3    0    2     4.301
   -2    1    2     3.990
   -1    1    2     2.771
    0    1    2     1.940
    1    1    2     2.042
    2    1    2     2.983
    3    1    2     4.238
   -2    2    2     4.247
   -1    2    2     3.115
    0    2    2     2.389
    1    2    2     2.455
    2    2    2     3.267
    3    2    2     4.433
   -2    3    2     4.731
   -1    3    2     3.737
    0    3    2     3.142
    1    3    2     3.180
    2    3    2     3.831
   -1    4    2     4.523
    0    4    2     4.035
    1    4    2     4.054
    2    4    2     4.574
    1    5    2     4.999
   -1   -2    3     4.721
    0   -2    3     4.216
    1   -2    3     4.195
   -2   -1    3     5.084
   -1   -1    3     4.113
    0   -1    3     3.511
    1   -1    3     3.474
    2   -1    3     4.017
   -2    0    3     4.774
   -1    0    3     3.713
    0    0    3     3.019
    1    0    3     2.962
    2    0    3     3.571
    3    0    3     4.590
   -2    1    3     4.688
   -1    1    3     3.590
    0    1    3     2.852
    1    1    3     2.776
    2    1    3     3.406
    3    1    3     4.453
   -1    2    3     3.770
    0    2    3     3.062
    1    2    3     2.977
    2    2    3     3.560
    3    2    3     4.563
   -1    3    3     4.216
    0    3    3     3.584
    1    3    3     3.500
    2    3    3     3.998
    0    4    3     4.307
    1    4    3     4.228
    2    4    3     4.639
    1    5    3     5.073
    4    5    3     7.037
    0   -1    4     4.488
    1   -1    4     4.364
    2   -1    4     4.720
   -1    0    4     4.662
    0    0    4     4.027
    1    0    4     3.878
    2    0    4     4.265
   -1    1    4     4.486
    0    1    4     3.812
    1    1    4     3.643
    2    1    4     4.041
   -1    2    4     4.556
    0    2    4     3.883
    1    2    4     3.705
    2    2    4     4.087
    0    3    4     4.225
    1    3    4     4.052
    2    3    4     4.395
    1    4    4     4.620
    0   -2    5     6.072
    2    0    5     5.066
    1    1    5     4.569
    2    1    5     4.806
   -2    2    5     6.343
    1    2    5     4.542
    2    2    5     4.772
    4    2    5     6.333
   -4    3    5     8.811
    3    4    5     5.929
    3   -2    7     8.165
    3    0    8     8.037
    1   -2    9     9.732
    2    7    9     9.255
    1    3   10     9.196
_platon_squeeze_void_probe_radius                  1.20
_platon_squeeze_details
)
TITL oxdp25    P -1         R = 0.14
CELL   14.2180   20.1220   21.9750     69.44     72.04     82.39
SPGR P-1
# Solvent Accessible Volume =      1514
# Electrons Found in S.A.V. =       260
# Note: Atoms in Void are Labelled as Cxxx and Qxxx for all Others
C101 0.093 0.531 0.424 !       3.19 eA-3
C102 1.003 0.531 0.478 !       3.15 eA-3
C103 0.187 0.611 0.295 !       2.73 eA-3
C104 0.112 0.593 0.371 !       2.55 eA-3
Q105 0.954 0.344 0.080 !       2.54 eA-3
C106 0.206 0.673 0.249 !       1.81 eA-3
C107 0.363 0.645 0.177 !       1.54 eA-3
Q108 0.878 0.283 0.139 !       1.46 eA-3
C109 0.299 0.644 0.214 !       1.44 eA-3
C110 0.079 0.362 0.093 !       1.39 eA-3
C111 0.418 0.669 0.113 !       1.15 eA-3
C112 0.081 0.251 0.038 !       1.15 eA-3
Q113 0.550 0.392 0.277 !       1.12 eA-3
Q114 0.187 0.437 0.428 !       1.08 eA-3
C115 0.686 0.158 0.152 !       1.04 eA-3
C116 0.488 0.642 0.129 !       1.02 eA-3
Q117 0.667 0.923 0.292 !       1.00 eA-3
Q118 0.378 0.470 0.241 !       0.98 eA-3
C119 0.455 0.234 0.217 !       0.97 eA-3
C120 0.457 0.252 0.178 !       0.96 eA-3
C121 0.534 0.675 0.072 !       0.96 eA-3
Q122 0.499 0.879 0.396 !       0.95 eA-3
Q123 0.800 0.264 0.174 !       0.94 eA-3
C124 0.500 0.204 0.215 !       0.92 eA-3
Q125 0.499 0.361 0.260 !       0.92 eA-3
Q126 0.421 0.389 0.250 !       0.92 eA-3
Q127 0.518 1.003 0.280 !       0.89 eA-3
Q128 0.550 0.484 0.371 !       0.85 eA-3
C129 0.546 0.624 0.114 !       0.84 eA-3
Q130 0.111 0.406 0.479 !       0.79 eA-3
Q131 0.761 0.331 0.143 !       0.78 eA-3
C132 0.486 0.206 0.184 !       0.78 eA-3
Q133 0.750 0.064 0.064 !       0.78 eA-3
C134 0.673 0.157 0.111 !       0.77 eA-3
Q135 0.044 0.155 0.296 !       0.77 eA-3
C136 0.592 0.688 0.028 !       0.77 eA-3
C137 0.626 0.657 0.056 !       0.72 eA-3
C138 0.637 0.653 0.021 !       0.72 eA-3
C139 0.422 0.296 0.135 !       0.69 eA-3
Q140 0.090 0.095 0.372 !       0.66 eA-3
Q141 0.598 0.517 0.319 !       0.64 eA-3
C142 0.407 0.316 0.107 !       0.64 eA-3
Q143 0.079 0.593 0.248 !       0.63 eA-3
C144 0.627 0.186 0.091 !       0.63 eA-3
Q145 0.706 0.234 0.189 !       0.62 eA-3
C146 0.188 0.267 0.044 !       0.62 eA-3
Q147 0.602 0.516 0.343 !       0.61 eA-3
Q148 0.015 0.704 0.376 !       0.61 eA-3
Q149 0.987 0.612 0.232 !       0.61 eA-3
C150 0.594 0.172 0.137 !       0.61 eA-3
C151 0.312 0.312 0.015 !       0.61 eA-3
Q152 0.014 0.557 0.245 !       0.60 eA-3
Q153 0.666 0.528 0.277 !       0.59 eA-3
C154 0.641 0.280 0.242 !       0.59 eA-3
C155 0.500 0.219 0.120 !       0.58 eA-3
Q156 0.987 0.594 0.190 !       0.58 eA-3
C157 0.517 0.157 0.136 !       0.57 eA-3
Q158 0.798 0.545 0.387 !       0.57 eA-3
Q159 0.045 0.422 0.318 !       0.56 eA-3
C160 0.360 0.267 0.013 !       0.56 eA-3
C161 0.314 0.261 0.079 !       0.56 eA-3
C162 0.158 0.201 0.051 !       0.56 eA-3
C163 0.598 0.159 0.090 !       0.55 eA-3
C164 0.295 0.232 0.050 !       0.55 eA-3
Q165 0.709 0.955 0.062 !       0.53 eA-3
C166 0.206 0.332 0.020 !       0.52 eA-3
Q167 0.224 0.125 0.275 !       0.52 eA-3
Q168 0.582 0.486 0.187 !       0.51 eA-3
)
;
_shelx_fab_checksum              5219
loop_
_space_group_symop_operation_xyz
'x, y, z'
'-x, -y, -z'
loop_
_atom_site_label
_atom_site_type_symbol
_atom_site_fract_x
_atom_site_fract_y
_atom_site_fract_z
_atom_site_U_iso_or_equiv
_atom_site_adp_type
_atom_site_occupancy
_atom_site_site_symmetry_order
_atom_site_calc_flag
_atom_site_refinement_flags_posn
_atom_site_refinement_flags_adp
_atom_site_refinement_flags_occupancy
_atom_site_disorder_assembly
_atom_site_disorder_group
Ni1 Ni 1.0323(4) 0.57847(12) 0.22507(16) 0.1466(18) Uani 0.626(6) 1 d D U P A 1
N1A N 1.0776(13) 0.6575(5) 0.1419(5) 0.134(4) Uani 0.626(6) 1 d D U P A 1
N2A N 1.1274(14) 0.5171(6) 0.1862(5) 0.148(5) Uani 0.626(6) 1 d D U P A 1
N3 N 0.9782(5) 0.4990(3) 0.3057(3) 0.0891(17) Uani 1 1 d D U . . .
N4 N 0.9274(5) 0.6395(3) 0.2625(3) 0.0860(17) Uani 1 1 d D U . . .
C1A C 1.0524(14) 0.7277(5) 0.1324(6) 0.125(4) Uani 0.626(6) 1 d D U P A 1
C2A C 1.1116(14) 0.7701(7) 0.0659(6) 0.136(4) Uani 0.626(6) 1 d D U P A 1
H2A H 1.114599 0.820457 0.048603 0.164 Uiso 0.626(6) 1 calc R U P A 1
C3A C 1.1601(16) 0.7258(7) 0.0346(7) 0.145(4) Uani 0.626(6) 1 d D U P A 1
H3A H 1.201958 0.738945 -0.010582 0.174 Uiso 0.626(6) 1 calc R U P A 1
C4A C 1.1395(16) 0.6537(7) 0.0797(7) 0.146(4) Uani 0.626(6) 1 d D U P A 1
C5A C 1.1831(17) 0.5917(7) 0.0653(7) 0.155(3) Uani 0.626(6) 1 d D U P A 1
C6A C 1.1876(16) 0.5293(7) 0.1207(7) 0.153(4) Uani 0.626(6) 1 d D U P A 1
C7A C 1.2389(15) 0.4695(7) 0.1095(8) 0.151(4) Uani 0.626(6) 1 d D U P A 1
H7A H 1.271213 0.463134 0.067018 0.182 Uiso 0.626(6) 1 calc R U P A 1
C8A C 1.2329(14) 0.4179(7) 0.1770(7) 0.145(4) Uani 0.626(6) 1 d D U P A 1
H8A H 1.272394 0.376247 0.189539 0.174 Uiso 0.626(6) 1 calc R U P A 1
C9A C 1.1520(17) 0.4466(7) 0.2192(6) 0.129(4) Uani 0.626(6) 1 d D U P A 1
C10 C 1.1049(8) 0.4101(4) 0.2826(5) 0.107(2) Uani 1 1 d D U . . .
C11 C 1.0266(7) 0.4329(4) 0.3235(4) 0.0903(19) Uani 1 1 d D U . . .
C12 C 0.9711(6) 0.3899(4) 0.3877(4) 0.0880(19) Uani 1 1 d . U . . .
H12 H 0.987736 0.342464 0.411309 0.106 Uiso 1 1 calc R U . . .
C13 C 0.8903(6) 0.4280(3) 0.4098(4) 0.0819(18) Uani 1 1 d . U . . .
H13 H 0.839427 0.412369 0.451159 0.098 Uiso 1 1 calc R U . . .
C14 C 0.8960(6) 0.4963(3) 0.3589(4) 0.0761(17) Uani 1 1 d D U . . .
C15 C 0.8310(6) 0.5524(3) 0.3662(3) 0.0734(16) Uani 1 1 d . U . . .
C16 C 0.8499(6) 0.6208(3) 0.3216(3) 0.0740(16) Uani 1 1 d D U . . .
C17 C 0.7950(6) 0.6823(3) 0.3331(4) 0.0799(18) Uani 1 1 d . U . . .
H17 H 0.738968 0.683401 0.369953 0.096 Uiso 1 1 calc R U . . .
C18 C 0.8391(6) 0.7383(3) 0.2808(4) 0.0831(18) Uani 1 1 d . U . . .
H18 H 0.819030 0.786679 0.274116 0.100 Uiso 1 1 calc R U . . .
C19 C 0.9194(7) 0.7134(3) 0.2379(4) 0.0849(19) Uani 1 1 d D U . . .
C20 C 0.9770(8) 0.7549(4) 0.1758(4) 0.102(2) Uani 1 1 d D U . . .
Zn Zn 0.39565(6) 0.49421(4) 0.67419(4) 0.0729(3) Uani 1 1 d . . . . .
N5 N 0.5029(4) 0.4289(2) 0.6361(3) 0.0609(12) Uani 1 1 d . U . . .
N6 N 0.3301(5) 0.4063(3) 0.7510(3) 0.0781(15) Uani 1 1 d . U . . .
N7 N 0.2688(5) 0.5531(3) 0.7015(3) 0.0808(15) Uani 1 1 d . U . . .
N8 N 0.4413(4) 0.5728(2) 0.5832(3) 0.0624(13) Uani 1 1 d . U . . .
C21 C 0.5829(5) 0.4493(3) 0.5815(3) 0.0607(14) Uani 1 1 d . U . . .
C22 C 0.6539(5) 0.3913(3) 0.5796(3) 0.0687(15) Uani 1 1 d . U . . .
H22 H 0.716895 0.392610 0.547597 0.082 Uiso 1 1 calc R U . . .
C23 C 0.6130(5) 0.3354(3) 0.6321(3) 0.0665(15) Uani 1 1 d . U . . .
H23 H 0.641865 0.288948 0.643815 0.080 Uiso 1 1 calc R U . . .
C24 C 0.5186(5) 0.3572(3) 0.6676(3) 0.0614(14) Uani 1 1 d . U . . .
C25 C 0.4497(5) 0.3139(3) 0.7240(3) 0.0657(14) Uani 1 1 d . U . . .
C26 C 0.3632(6) 0.3365(4) 0.7625(4) 0.0764(16) Uani 1 1 d . U . . .
C27 C 0.2952(6) 0.2921(4) 0.8229(4) 0.093(2) Uani 1 1 d . U . . .
H27 H 0.300021 0.241861 0.841862 0.112 Uiso 1 1 calc R U . . .
C28 C 0.2252(8) 0.3342(4) 0.8469(5) 0.107(2) Uani 1 1 d . U . . .
H28 H 0.171677 0.319840 0.886881 0.128 Uiso 1 1 calc R U . . .
C29 C 0.2450(7) 0.4050(4) 0.8017(4) 0.096(2) Uani 1 1 d . U . . .
C30 C 0.1863(8) 0.4662(5) 0.8069(5) 0.111(2) Uani 1 1 d . U . . .
C31 C 0.1959(7) 0.5348(4) 0.7602(5) 0.096(2) Uani 1 1 d . U . . .
C32 C 0.1280(8) 0.5915(4) 0.7636(5) 0.108(2) Uani 1 1 d . U . . .
H32 H 0.070311 0.591524 0.799725 0.130 Uiso 1 1 calc R U . . .
C33 C 0.1603(7) 0.6462(4) 0.7056(5) 0.100(2) Uani 1 1 d . U . . .
H33 H 0.128702 0.691616 0.693412 0.120 Uiso 1 1 calc R U . . .
C34 C 0.2499(6) 0.6235(4) 0.6661(4) 0.0828(18) Uani 1 1 d . U . . .
C35 C 0.3076(6) 0.6621(3) 0.6024(4) 0.0742(15) Uani 1 1 d . U . . .
C36 C 0.3938(5) 0.6398(3) 0.5631(4) 0.0682(15) Uani 1 1 d . U . . .
C37 C 0.4511(5) 0.6808(3) 0.4985(4) 0.0716(16) Uani 1 1 d . U . . .
H37 H 0.435614 0.728009 0.473828 0.086 Uiso 1 1 calc R U . . .
C38 C 0.5319(5) 0.6414(3) 0.4775(4) 0.0700(16) Uani 1 1 d . U . . .
H38 H 0.582889 0.654971 0.435961 0.084 Uiso 1 1 calc R U . . .
C39 C 0.5232(5) 0.5745(3) 0.5319(3) 0.0623(14) Uani 1 1 d . U . . .
C40 C 0.5931(5) 0.5179(3) 0.5314(3) 0.0622(14) Uani 1 1 d . U . . .
C41 C 0.7486(6) 0.5396(3) 0.4244(4) 0.0639(15) Uani 1 1 d . U . . .
C42 C 0.6788(6) 0.5292(3) 0.4740(4) 0.0628(15) Uani 1 1 d . U . . .
C43A C 1.2455(10) 0.5952(10) -0.0044(9) 0.167(4) Uani 0.626(6) 1 d D U P A 1
H43A H 1.231904 0.643969 -0.033761 0.200 Uiso 0.626(6) 1 calc R U P A 1
C44A C 1.3235(16) 0.5281(15) -0.0931(12) 0.235(6) Uani 0.626(6) 1 d D U P A 1
H44A H 1.326151 0.479509 -0.095285 0.282 Uiso 0.626(6) 1 calc R U P A 1
H44B H 1.327593 0.562311 -0.138986 0.282 Uiso 0.626(6) 1 calc R U P A 1
C45A C 1.4009(14) 0.5365(15) -0.0727(13) 0.235(7) Uani 0.626(6) 1 d D U P A 1
H45A H 1.456114 0.558187 -0.112981 0.282 Uiso 0.626(6) 1 calc R U P A 1
H45B H 1.424258 0.489469 -0.047168 0.282 Uiso 0.626(6) 1 calc R U P A 1
S1A S 1.2170(10) 0.5414(6) -0.0388(6) 0.233(4) Uani 0.626(6) 1 d D U P A 1
S2A S 1.3686(6) 0.5880(4) -0.0239(3) 0.203(3) Uani 0.626(6) 1 d D U P A 1
C46 C 1.1492(7) 0.3369(4) 0.3133(5) 0.104(2) Uani 1 1 d D U . . .
C47 C 1.1345(6) 0.2801(4) 0.2957(5) 0.103(2) Uani 1 1 d . U . . .
H47 H 1.104199 0.287385 0.260796 0.123 Uiso 1 1 calc R U . . .
C48 C 1.1647(7) 0.2125(4) 0.3299(5) 0.105(2) Uani 1 1 d . U . . .
C49 C 1.2107(7) 0.2017(5) 0.3806(6) 0.115(2) Uani 1 1 d . U . . .
H49 H 1.231667 0.155100 0.402931 0.138 Uiso 1 1 calc R U . . .
C50 C 1.2262(7) 0.2583(6) 0.3990(6) 0.122(2) Uani 1 1 d . U . . .
C51 C 1.1950(7) 0.3248(5) 0.3646(5) 0.115(2) Uani 1 1 d . U . . .
H51 H 1.204824 0.364193 0.376131 0.138 Uiso 1 1 calc R U . . .
C52 C 1.1436(7) 0.1485(5) 0.3128(6) 0.123(3) Uani 1 1 d D U . . .
C53 C 1.0758(16) 0.0968(10) 0.3759(9) 0.141(5) Uani 0.511(9) 1 d D U P B 1
H53A H 1.105826 0.082569 0.413317 0.211 Uiso 0.511(9) 1 calc R U P B 1
H53B H 1.011315 0.120099 0.388706 0.211 Uiso 0.511(9) 1 calc R U P B 1
H53C H 1.067036 0.054613 0.365793 0.211 Uiso 0.511(9) 1 calc R U P B 1
C54 C 1.0938(19) 0.1690(10) 0.2559(11) 0.142(5) Uani 0.511(9) 1 d D U P B 1
H54A H 1.135340 0.202108 0.214861 0.213 Uiso 0.511(9) 1 calc R U P B 1
H54B H 1.084854 0.126321 0.246792 0.213 Uiso 0.511(9) 1 calc R U P B 1
H54C H 1.029133 0.191806 0.269705 0.213 Uiso 0.511(9) 1 calc R U P B 1
C55 C 1.2401(12) 0.1054(11) 0.2934(14) 0.151(6) Uani 0.511(9) 1 d D U P B 1
H55A H 1.272777 0.091950 0.329473 0.227 Uiso 0.511(9) 1 calc R U P B 1
H55B H 1.224243 0.062554 0.287489 0.227 Uiso 0.511(9) 1 calc R U P B 1
H55C H 1.284358 0.134535 0.250978 0.227 Uiso 0.511(9) 1 calc R U P B 1
C56 C 1.2696(8) 0.2473(6) 0.4573(6) 0.143(3) Uani 1 1 d D U . . .
C57 C 1.3716(9) 0.2149(8) 0.4385(7) 0.191(5) Uani 1 1 d D U . . .
H57A H 1.402717 0.206765 0.474675 0.287 Uiso 1 1 calc R U . . .
H57B H 1.366789 0.169600 0.432463 0.287 Uiso 1 1 calc R U . . .
H57C H 1.411707 0.247263 0.396168 0.287 Uiso 1 1 calc R U . . .
C58 C 1.2054(9) 0.1975(7) 0.5249(7) 0.179(5) Uani 1 1 d D U . . .
H58A H 1.139344 0.219227 0.536462 0.268 Uiso 1 1 calc R U . . .
H58B H 1.199958 0.151752 0.519954 0.268 Uiso 1 1 calc R U . . .
H58C H 1.236449 0.190157 0.560948 0.268 Uiso 1 1 calc R U . . .
C59 C 1.2736(10) 0.3164(6) 0.4704(7) 0.183(5) Uani 1 1 d D U . . .
H59A H 1.206495 0.336357 0.482439 0.275 Uiso 1 1 calc R U . . .
H59B H 1.302910 0.306782 0.507651 0.275 Uiso 1 1 calc R U . . .
H59C H 1.314050 0.350304 0.429387 0.275 Uiso 1 1 calc R U . . .
C60 C 0.9521(7) 0.8336(4) 0.1574(4) 0.0909(19) Uani 1 1 d D U . . .
C61 C 0.8990(7) 0.8641(4) 0.1108(4) 0.100(2) Uani 1 1 d . U . . .
H61 H 0.885239 0.836911 0.087075 0.120 Uiso 1 1 calc R U . . .
C62 C 0.8656(7) 0.9345(4) 0.0984(4) 0.103(2) Uani 1 1 d . U . . .
C63 C 0.8891(6) 0.9728(4) 0.1321(4) 0.089(2) Uani 1 1 d . U . . .
H63 H 0.866492 1.020883 0.123415 0.107 Uiso 1 1 calc R U . . .
C64 C 0.9445(5) 0.9450(3) 0.1786(4) 0.0760(16) Uani 1 1 d . U . . .
C65 C 0.9760(6) 0.8739(3) 0.1893(3) 0.0772(17) Uani 1 1 d . U . . .
H65 H 1.015164 0.852925 0.219668 0.093 Uiso 1 1 calc R U . . .
C66 C 0.8056(6) 0.9660(5) 0.0472(4) 0.122(3) Uani 1 1 d D U . . .
C67 C 0.758(2) 1.0339(13) 0.0647(16) 0.131(6) Uani 0.263(10) 1 d D U P C 1
H67A H 0.716609 1.020209 0.111673 0.197 Uiso 0.263(10) 1 calc R U P C 1
H67B H 0.810755 1.064491 0.059035 0.197 Uiso 0.263(10) 1 calc R U P C 1
H67C H 0.717927 1.059714 0.034257 0.197 Uiso 0.263(10) 1 calc R U P C 1
C68 C 0.868(2) 0.990(2) -0.0248(10) 0.125(7) Uani 0.263(10) 1 d D U P C 1
H68A H 0.922803 1.017987 -0.028811 0.187 Uiso 0.263(10) 1 calc R U P C 1
H68B H 0.894917 0.948870 -0.039003 0.187 Uiso 0.263(10) 1 calc R U P C 1
H68C H 0.827798 1.019848 -0.053895 0.187 Uiso 0.263(10) 1 calc R U P C 1
C69 C 0.719(2) 0.9224(18) 0.0565(19) 0.136(7) Uani 0.263(10) 1 d D U P C 1
H69A H 0.680010 0.907488 0.104191 0.203 Uiso 0.263(10) 1 calc R U P C 1
H69B H 0.677334 0.951339 0.028252 0.203 Uiso 0.263(10) 1 calc R U P C 1
H69C H 0.744453 0.880361 0.043143 0.203 Uiso 0.263(10) 1 calc R U P C 1
C70 C 0.9691(5) 0.9863(4) 0.2167(4) 0.0903(19) Uani 1 1 d D U . . .
C71 C 1.0815(6) 0.9877(5) 0.2023(6) 0.134(3) Uani 1 1 d D U . . .
H71A H 1.096794 1.014763 0.227343 0.201 Uiso 1 1 calc R U . . .
H71B H 1.107987 0.939044 0.216811 0.201 Uiso 1 1 calc R U . . .
H71C H 1.111482 1.010270 0.153686 0.201 Uiso 1 1 calc R U . . .
C72 C 0.9242(8) 0.9496(5) 0.2925(5) 0.125(3) Uani 1 1 d D U . . .
H72A H 0.939796 0.976035 0.317949 0.187 Uiso 1 1 calc R U . . .
H72B H 0.852318 0.948021 0.302481 0.187 Uiso 1 1 calc R U . . .
H72C H 0.951835 0.901080 0.305817 0.187 Uiso 1 1 calc R U . . .
C73 C 0.9265(8) 1.0627(4) 0.1986(6) 0.131(3) Uani 1 1 d D U . . .
H73A H 0.944236 1.087609 0.224452 0.197 Uiso 1 1 calc R U . . .
H73B H 0.953686 1.087473 0.150018 0.197 Uiso 1 1 calc R U . . .
H73C H 0.854308 1.061678 0.209752 0.197 Uiso 1 1 calc R U . . .
C74 C 0.4744(5) 0.2352(3) 0.7428(3) 0.0674(15) Uani 1 1 d . U . . .
C75 C 0.4519(5) 0.1968(3) 0.7088(3) 0.0685(16) Uani 1 1 d . U . . .
H75 H 0.419084 0.220203 0.674918 0.082 Uiso 1 1 calc R U . . .
C76 C 0.4756(5) 0.1240(3) 0.7220(3) 0.0713(15) Uani 1 1 d . U . . .
C77 C 0.5235(5) 0.0924(3) 0.7718(4) 0.0777(18) Uani 1 1 d . U . . .
H77 H 0.541266 0.043353 0.781847 0.093 Uiso 1 1 calc R U . . .
C78 C 0.5462(6) 0.1294(4) 0.8074(4) 0.0832(18) Uani 1 1 d . U . . .
C79 C 0.5204(5) 0.2016(3) 0.7929(3) 0.0762(17) Uani 1 1 d . U . . .
H79 H 0.534628 0.227526 0.817565 0.091 Uiso 1 1 calc R U . . .
C80 C 0.4492(5) 0.0813(3) 0.6850(4) 0.0827(18) Uani 1 1 d D U . . .
C81 C 0.4922(19) 0.1184(11) 0.6096(7) 0.094(5) Uani 0.327(8) 1 d D U P D 1
H81A H 0.464035 0.166718 0.596808 0.142 Uiso 0.327(8) 1 calc R U P D 1
H81B H 0.564198 0.120279 0.598868 0.142 Uiso 0.327(8) 1 calc R U P D 1
H81C H 0.476093 0.091960 0.584292 0.142 Uiso 0.327(8) 1 calc R U P D 1
C82 C 0.4892(19) 0.0064(8) 0.7086(13) 0.098(5) Uani 0.327(8) 1 d D U P D 1
H82A H 0.472380 -0.021495 0.684870 0.147 Uiso 0.327(8) 1 calc R U P D 1
H82B H 0.561197 0.006921 0.698630 0.147 Uiso 0.327(8) 1 calc R U P D 1
H82C H 0.459852 -0.014920 0.757467 0.147 Uiso 0.327(8) 1 calc R U P D 1
C83 C 0.3367(10) 0.0816(12) 0.7026(12) 0.097(5) Uani 0.327(8) 1 d D U P D 1
H83A H 0.311374 0.130493 0.687074 0.146 Uiso 0.327(8) 1 calc R U P D 1
H83B H 0.317425 0.053386 0.680119 0.146 Uiso 0.327(8) 1 calc R U P D 1
H83C H 0.308938 0.061022 0.751712 0.146 Uiso 0.327(8) 1 calc R U P D 1
C84 C 0.6022(6) 0.0953(4) 0.8622(4) 0.106(2) Uani 1 1 d D U . . .
C85 C 0.6222(8) 0.0159(4) 0.8736(5) 0.145(4) Uani 1 1 d D U . . .
H85A H 0.662106 0.008955 0.831017 0.218 Uiso 1 1 calc R U . . .
H85B H 0.658155 -0.003990 0.907890 0.218 Uiso 1 1 calc R U . . .
H85C H 0.559312 -0.008102 0.889200 0.218 Uiso 1 1 calc R U . . .
C86 C 0.5402(7) 0.1044(5) 0.9291(4) 0.129(3) Uani 1 1 d D U . . .
H86A H 0.526528 0.155079 0.922752 0.194 Uiso 1 1 calc R U . . .
H86B H 0.477642 0.079997 0.944428 0.194 Uiso 1 1 calc R U . . .
H86C H 0.576485 0.084110 0.963117 0.194 Uiso 1 1 calc R U . . .
C87 C 0.7010(6) 0.1333(5) 0.8380(5) 0.133(4) Uani 1 1 d D U . . .
H87A H 0.740781 0.127366 0.795010 0.200 Uiso 1 1 calc R U . . .
H87B H 0.687822 0.184013 0.831722 0.200 Uiso 1 1 calc R U . . .
H87C H 0.737287 0.112782 0.872097 0.200 Uiso 1 1 calc R U . . .
C88 C 0.2725(5) 0.7368(3) 0.5696(4) 0.0774(16) Uani 1 1 d . U . . .
C89 C 0.2950(6) 0.7919(4) 0.5863(4) 0.0848(18) Uani 1 1 d . U . . .
H89 H 0.329797 0.782130 0.619195 0.102 Uiso 1 1 calc R U . . .
C90 C 0.2665(6) 0.8620(4) 0.5548(5) 0.0888(18) Uani 1 1 d . U . . .
C91 C 0.2183(6) 0.8744(4) 0.5065(4) 0.0901(19) Uani 1 1 d . U . . .
H91 H 0.200373 0.922005 0.484414 0.108 Uiso 1 1 calc R U . . .
C92 C 0.1939(6) 0.8200(3) 0.4878(4) 0.0822(17) Uani 1 1 d . U . . .
C93 C 0.2228(5) 0.7512(3) 0.5223(4) 0.0786(17) Uani 1 1 d . U . . .
H93 H 0.206764 0.712631 0.512158 0.094 Uiso 1 1 calc R U . . .
C94 C 0.1402(6) 0.8373(3) 0.4341(4) 0.0899(19) Uani 1 1 d D U . . .
C95 C 0.220(5) 0.830(5) 0.372(3) 0.102(7) Uani 0.079(11) 1 d D U P E 1
H95A H 0.190507 0.839927 0.334112 0.154 Uiso 0.079(11) 1 calc R U P E 1
H95B H 0.272617 0.862782 0.358467 0.154 Uiso 0.079(11) 1 calc R U P E 1
H95C H 0.247229 0.780829 0.381961 0.154 Uiso 0.079(11) 1 calc R U P E 1
C96 C 0.094(6) 0.912(2) 0.415(5) 0.105(8) Uani 0.079(11) 1 d D U P E 1
H96A H 0.061461 0.918524 0.380205 0.157 Uiso 0.079(11) 1 calc R U P E 1
H96B H 0.045901 0.919169 0.455293 0.157 Uiso 0.079(11) 1 calc R U P E 1
H96C H 0.146442 0.947110 0.397623 0.157 Uiso 0.079(11) 1 calc R U P E 1
C97 C 0.061(5) 0.783(4) 0.454(5) 0.100(7) Uani 0.079(11) 1 d D U P E 1
H97A H 0.027157 0.795452 0.418663 0.150 Uiso 0.079(11) 1 calc R U P E 1
H97B H 0.091591 0.735648 0.459848 0.150 Uiso 0.079(11) 1 calc R U P E 1
H97C H 0.012424 0.783613 0.496915 0.150 Uiso 0.079(11) 1 calc R U P E 1
C98 C 0.2942(7) 0.9226(4) 0.5733(5) 0.110(2) Uani 1 1 d D U . . .
C99 C 0.4066(7) 0.9209(5) 0.5617(7) 0.117(3) Uani 0.818(10) 1 d D U P F 1
H99A H 0.427775 0.874007 0.587762 0.175 Uiso 0.818(10) 1 calc R U P F 1
H99B H 0.440330 0.930442 0.513427 0.175 Uiso 0.818(10) 1 calc R U P F 1
H99C H 0.423498 0.957215 0.576603 0.175 Uiso 0.818(10) 1 calc R U P F 1
C100 C 0.2483(10) 0.9069(6) 0.6491(6) 0.127(4) Uani 0.818(10) 1 d D U P F 1
H10A H 0.270113 0.859504 0.673557 0.190 Uiso 0.818(10) 1 calc R U P F 1
H10B H 0.269199 0.942354 0.663212 0.190 Uiso 0.818(10) 1 calc R U P F 1
H10C H 0.176057 0.908878 0.659326 0.190 Uiso 0.818(10) 1 calc R U P F 1
C101 C 0.2630(12) 0.9957(5) 0.5325(8) 0.143(4) Uani 0.818(10) 1 d D U P F 1
H10D H 0.293984 1.003757 0.484103 0.214 Uiso 0.818(10) 1 calc R U P F 1
H10E H 0.190915 0.998474 0.541616 0.214 Uiso 0.818(10) 1 calc R U P F 1
H10F H 0.284056 1.031951 0.545502 0.214 Uiso 0.818(10) 1 calc R U P F 1
N9 N 0.0484(12) 0.4500(7) 0.9175(7) 0.231(7) Uani 1 1 d . U . . .
C102 C 0.1063(11) 0.4582(6) 0.8694(7) 0.154(4) Uani 1 1 d . U . . .
O1 O 0.4761(6) 0.5277(4) 0.7275(4) 0.148(3) Uani 1 1 d . U . . .
H1 H 0.438887 0.549956 0.759434 0.178 Uiso 1 1 calc R U . . .
C103 C 0.5708(15) 0.5199(14) 0.7192(10) 0.285(10) Uani 1 1 d . U . . .
H10G H 0.588692 0.539382 0.749149 0.428 Uiso 1 1 calc R U . . .
H10H H 0.589456 0.469299 0.730368 0.428 Uiso 1 1 calc R U . . .
H10I H 0.605786 0.545099 0.672026 0.428 Uiso 1 1 calc R U . . .
Ni2 Ni 1.0108(3) 0.5779(2) 0.2194(2) 0.0869(16) Uani 0.374(6) 1 d D U P A 2
N1B N 1.0398(18) 0.6560(5) 0.1344(5) 0.116(4) Uani 0.374(6) 1 d D U P A 2
N2B N 1.0991(17) 0.5139(7) 0.1798(6) 0.118(4) Uani 0.374(6) 1 d D U P A 2
C1B C 1.020(2) 0.7266(6) 0.1244(7) 0.123(4) Uani 0.374(6) 1 d D U P A 2
C2B C 1.059(2) 0.7696(8) 0.0537(7) 0.132(4) Uani 0.374(6) 1 d D U P A 2
H2B H 1.058049 0.819963 0.034977 0.158 Uiso 0.374(6) 1 calc R U P A 2
C3B C 1.095(3) 0.7240(8) 0.0216(8) 0.138(4) Uani 0.374(6) 1 d D U P A 2
H3B H 1.127014 0.735786 -0.025544 0.166 Uiso 0.374(6) 1 calc R U P A 2
C4B C 1.078(3) 0.6526(8) 0.0693(7) 0.146(4) Uani 0.374(6) 1 d D U P A 2
C5B C 1.117(3) 0.5879(8) 0.0586(8) 0.154(4) Uani 0.374(6) 1 d D U P A 2
C6B C 1.138(2) 0.5275(9) 0.1106(7) 0.148(4) Uani 0.374(6) 1 d D U P A 2
C7B C 1.187(2) 0.4677(10) 0.0984(9) 0.150(4) Uani 0.374(6) 1 d D U P A 2
H7B H 1.211646 0.460617 0.055655 0.180 Uiso 0.374(6) 1 calc R U P A 2
C8B C 1.195(2) 0.4166(10) 0.1639(8) 0.136(4) Uani 0.374(6) 1 d D U P A 2
H8B H 1.233390 0.373823 0.171340 0.163 Uiso 0.374(6) 1 calc R U P A 2
C9B C 1.131(3) 0.4452(11) 0.2144(7) 0.125(4) Uani 0.374(6) 1 d D U P A 2
C43B C 1.1548(17) 0.5961(9) -0.0152(9) 0.171(4) Uani 0.374(6) 1 d D U P A 2
H43B H 1.100954 0.622424 -0.035293 0.205 Uiso 0.374(6) 1 calc R U P A 2
C44B C 1.258(3) 0.5357(17) -0.1053(16) 0.230(7) Uani 0.374(6) 1 d D U P A 2
H44C H 1.299171 0.492223 -0.105740 0.276 Uiso 0.374(6) 1 calc R U P A 2
H44D H 1.225974 0.548252 -0.142442 0.276 Uiso 0.374(6) 1 calc R U P A 2
C45B C 1.315(3) 0.5897(18) -0.1151(19) 0.234(6) Uani 0.374(6) 1 d D U P A 2
H45C H 1.330110 0.620409 -0.163196 0.281 Uiso 0.374(6) 1 calc R U P A 2
H45D H 1.377710 0.569987 -0.104931 0.281 Uiso 0.374(6) 1 calc R U P A 2
S1B S 1.1706(14) 0.5205(9) -0.0312(9) 0.209(5) Uani 0.374(6) 1 d D U P A 2
S2B S 1.2570(11) 0.6380(6) -0.0657(6) 0.210(5) Uani 0.374(6) 1 d D U P A 2
C53B C 1.0318(10) 0.1476(11) 0.3232(14) 0.133(5) Uani 0.489(9) 1 d D U P B 2
H53D H 0.996734 0.140030 0.371038 0.160 Uiso 0.489(9) 1 calc R U P B 2
H53E H 1.009950 0.193040 0.295220 0.160 Uiso 0.489(9) 1 calc R U P B 2
H53F H 1.017515 0.109031 0.310137 0.160 Uiso 0.489(9) 1 calc R U P B 2
C54B C 1.1948(18) 0.1603(10) 0.2384(8) 0.141(5) Uani 0.489(9) 1 d D U P B 2
H54D H 1.171883 0.205704 0.210973 0.170 Uiso 0.489(9) 1 calc R U P B 2
H54E H 1.266499 0.160959 0.230182 0.170 Uiso 0.489(9) 1 calc R U P B 2
H54F H 1.179142 0.121704 0.225850 0.170 Uiso 0.489(9) 1 calc R U P B 2
C55B C 1.178(2) 0.0779(8) 0.3573(12) 0.151(6) Uani 0.489(9) 1 d D U P B 2
H55D H 1.143491 0.071556 0.405042 0.182 Uiso 0.489(9) 1 calc R U P B 2
H55E H 1.161775 0.038839 0.345527 0.182 Uiso 0.489(9) 1 calc R U P B 2
H55F H 1.249131 0.078094 0.349859 0.182 Uiso 0.489(9) 1 calc R U P B 2
C67B C 0.7001(8) 0.9731(9) 0.0837(6) 0.142(5) Uani 0.737(10) 1 d D U P C 2
H67D H 0.677450 0.927396 0.118108 0.171 Uiso 0.737(10) 1 calc R U P C 2
H67E H 0.692460 1.009061 0.105607 0.171 Uiso 0.737(10) 1 calc R U P C 2
H67F H 0.660536 0.987439 0.051443 0.171 Uiso 0.737(10) 1 calc R U P C 2
C68B C 0.8532(9) 1.0299(6) -0.0071(6) 0.105(4) Uani 0.737(10) 1 d D U P C 2
H68D H 0.922456 1.018393 -0.027097 0.126 Uiso 0.737(10) 1 calc R U P C 2
H68E H 0.818411 1.046056 -0.042113 0.126 Uiso 0.737(10) 1 calc R U P C 2
H68F H 0.850335 1.067679 0.012051 0.126 Uiso 0.737(10) 1 calc R U P C 2
C69B C 0.8056(12) 0.9127(7) 0.0085(7) 0.144(4) Uani 0.737(10) 1 d D U P C 2
H69D H 0.774926 0.868362 0.041163 0.173 Uiso 0.737(10) 1 calc R U P C 2
H69E H 0.767939 0.934132 -0.024614 0.173 Uiso 0.737(10) 1 calc R U P C 2
H69F H 0.873760 0.902584 -0.014958 0.173 Uiso 0.737(10) 1 calc R U P C 2
C81B C 0.3987(10) 0.1246(6) 0.6306(6) 0.097(3) Uani 0.673(8) 1 d D U P D 2
H81D H 0.384185 0.093348 0.609240 0.117 Uiso 0.673(8) 1 calc R U P D 2
H81E H 0.336949 0.146192 0.651440 0.117 Uiso 0.673(8) 1 calc R U P D 2
H81F H 0.442643 0.161979 0.596291 0.117 Uiso 0.673(8) 1 calc R U P D 2
C82B C 0.5409(8) 0.0447(7) 0.6507(7) 0.105(3) Uani 0.673(8) 1 d D U P D 2
H82D H 0.521594 0.017580 0.627291 0.126 Uiso 0.673(8) 1 calc R U P D 2
H82E H 0.588407 0.080502 0.617855 0.126 Uiso 0.673(8) 1 calc R U P D 2
H82F H 0.571392 0.012399 0.684992 0.126 Uiso 0.673(8) 1 calc R U P D 2
C83B C 0.3775(10) 0.0228(6) 0.7368(6) 0.109(4) Uani 0.673(8) 1 d D U P D 2
H83D H 0.360101 -0.005035 0.713231 0.131 Uiso 0.673(8) 1 calc R U P D 2
H83E H 0.409447 -0.008478 0.770655 0.131 Uiso 0.673(8) 1 calc R U P D 2
H83F H 0.317431 0.044649 0.759245 0.131 Uiso 0.673(8) 1 calc R U P D 2
C95B C 0.1145(8) 0.7707(4) 0.4237(6) 0.101(3) Uani 0.921(11) 1 d D U P E 2
H95D H 0.071592 0.740691 0.466286 0.121 Uiso 0.921(11) 1 calc R U P E 2
H95E H 0.080091 0.785045 0.388531 0.121 Uiso 0.921(11) 1 calc R U P E 2
H95F H 0.175433 0.744073 0.409845 0.121 Uiso 0.921(11) 1 calc R U P E 2
C96B C 0.2060(7) 0.8820(5) 0.3678(5) 0.108(3) Uani 0.921(11) 1 d D U P E 2
H96D H 0.172319 0.893616 0.332410 0.130 Uiso 0.921(11) 1 calc R U P E 2
H96E H 0.220709 0.925881 0.372439 0.130 Uiso 0.921(11) 1 calc R U P E 2
H96F H 0.267813 0.855513 0.355373 0.130 Uiso 0.921(11) 1 calc R U P E 2
C97B C 0.0418(7) 0.8771(5) 0.4553(6) 0.111(3) Uani 0.921(11) 1 d D U P E 2
H97D H 0.000378 0.847004 0.498493 0.133 Uiso 0.921(11) 1 calc R U P E 2
H97E H 0.055421 0.921036 0.460515 0.133 Uiso 0.921(11) 1 calc R U P E 2
H97F H 0.007144 0.888686 0.420490 0.133 Uiso 0.921(11) 1 calc R U P E 2
C99B C 0.367(3) 0.970(2) 0.5097(15) 0.124(7) Uani 0.182(10) 1 d D U P F 2
H99D H 0.339769 0.981538 0.470919 0.148 Uiso 0.182(10) 1 calc R U P F 2
H99E H 0.375704 1.013643 0.516861 0.148 Uiso 0.182(10) 1 calc R U P F 2
H99F H 0.430324 0.944460 0.500588 0.148 Uiso 0.182(10) 1 calc R U P F 2
C10A C 0.339(4) 0.906(2) 0.6321(19) 0.126(6) Uani 0.182(10) 1 d D U P F 2
H10J H 0.294146 0.875606 0.673581 0.151 Uiso 0.182(10) 1 calc R U P F 2
H10K H 0.402858 0.880919 0.622098 0.151 Uiso 0.182(10) 1 calc R U P F 2
H10L H 0.348238 0.950102 0.638372 0.151 Uiso 0.182(10) 1 calc R U P F 2
C10B C 0.202(2) 0.972(2) 0.585(3) 0.115(6) Uani 0.182(10) 1 d D U P F 2
H10M H 0.172176 0.982836 0.547479 0.138 Uiso 0.182(10) 1 calc R U P F 2
H10N H 0.153319 0.947397 0.627645 0.138 Uiso 0.182(10) 1 calc R U P F 2
H10O H 0.220802 1.015599 0.587023 0.138 Uiso 0.182(10) 1 calc R U P F 2
loop_
_atom_site_aniso_label
_atom_site_aniso_U_11
_atom_site_aniso_U_22
_atom_site_aniso_U_33
_atom_site_aniso_U_23
_atom_site_aniso_U_13
_atom_site_aniso_U_12
Ni1 0.264(4) 0.0373(14) 0.085(2) -0.0103(12) 0.013(2) -0.0016(18)
N1A 0.229(8) 0.069(5) 0.076(5) -0.024(4) 0.004(6) -0.026(6)
N2A 0.231(9) 0.077(6) 0.096(6) -0.033(5) 0.027(7) -0.028(6)
N3 0.139(5) 0.048(3) 0.079(4) -0.021(3) -0.022(3) -0.018(3)
N4 0.150(5) 0.045(3) 0.059(3) -0.012(2) -0.022(3) -0.021(3)
C1A 0.211(7) 0.065(4) 0.073(5) -0.015(4) -0.003(5) -0.028(5)
C2A 0.221(7) 0.076(4) 0.081(5) -0.020(4) 0.004(5) -0.028(5)
C3A 0.230(7) 0.085(5) 0.088(5) -0.025(4) 0.007(6) -0.033(6)
C4A 0.234(7) 0.084(4) 0.095(5) -0.038(4) 0.012(5) -0.031(5)
C5A 0.240(6) 0.096(4) 0.107(4) -0.046(4) 0.010(5) -0.034(5)
C6A 0.232(7) 0.089(5) 0.113(5) -0.049(4) 0.014(5) -0.026(5)
C7A 0.221(7) 0.091(5) 0.121(5) -0.054(4) 0.013(6) -0.029(6)
C8A 0.210(7) 0.083(5) 0.121(5) -0.055(4) 0.015(6) -0.024(5)
C9A 0.194(7) 0.070(4) 0.115(5) -0.056(4) 0.007(5) -0.029(5)
C10 0.151(5) 0.064(3) 0.113(4) -0.050(3) -0.013(4) -0.028(3)
C11 0.133(5) 0.052(4) 0.093(4) -0.037(3) -0.022(4) -0.016(3)
C12 0.129(5) 0.041(3) 0.093(4) -0.017(3) -0.032(4) -0.011(3)
C13 0.124(5) 0.036(3) 0.086(4) -0.015(3) -0.034(4) -0.006(3)
C14 0.123(5) 0.039(3) 0.068(4) -0.016(3) -0.025(3) -0.018(3)
C15 0.119(4) 0.034(3) 0.073(3) -0.013(3) -0.036(3) -0.013(3)
C16 0.124(5) 0.039(3) 0.063(3) -0.012(2) -0.035(3) -0.008(3)
C17 0.115(5) 0.042(3) 0.075(4) -0.006(3) -0.030(3) -0.002(3)
C18 0.127(5) 0.042(3) 0.075(4) -0.007(3) -0.032(4) -0.009(3)
C19 0.144(5) 0.038(3) 0.065(4) -0.010(3) -0.023(3) -0.010(3)
C20 0.178(5) 0.049(3) 0.069(3) -0.012(3) -0.021(4) -0.024(3)
Zn 0.1014(6) 0.0439(4) 0.0837(6) -0.0176(4) -0.0426(5) -0.0060(4)
N5 0.089(3) 0.030(2) 0.070(3) -0.009(2) -0.040(3) -0.002(2)
N6 0.106(4) 0.053(3) 0.078(4) -0.019(3) -0.035(3) 0.003(3)
N7 0.109(4) 0.050(3) 0.091(4) -0.028(3) -0.038(3) 0.007(3)
N8 0.088(4) 0.038(3) 0.074(3) -0.020(2) -0.039(3) 0.000(2)
C21 0.085(4) 0.028(3) 0.078(4) -0.011(2) -0.042(3) 0.001(2)
C22 0.086(4) 0.039(3) 0.084(4) -0.009(3) -0.039(3) -0.002(3)
C23 0.085(4) 0.035(3) 0.080(4) -0.006(3) -0.041(3) 0.003(3)
C24 0.083(4) 0.035(3) 0.073(3) -0.009(2) -0.043(3) 0.002(3)
C25 0.089(4) 0.043(3) 0.071(3) -0.009(2) -0.040(3) -0.008(3)
C26 0.097(4) 0.057(3) 0.074(4) -0.012(3) -0.033(3) -0.008(3)
C27 0.116(5) 0.063(4) 0.090(4) -0.011(3) -0.028(4) -0.010(4)
C28 0.135(6) 0.072(4) 0.097(5) -0.020(4) -0.016(4) -0.010(4)
C29 0.126(5) 0.066(4) 0.086(4) -0.021(3) -0.018(4) -0.007(4)
C30 0.143(5) 0.076(4) 0.100(5) -0.034(4) -0.008(4) -0.006(4)
C31 0.127(5) 0.063(4) 0.093(4) -0.032(3) -0.018(4) -0.002(4)
C32 0.136(6) 0.073(4) 0.112(5) -0.042(4) -0.014(4) -0.005(4)
C33 0.126(5) 0.067(4) 0.112(5) -0.040(4) -0.032(4) 0.004(4)
C34 0.110(5) 0.051(3) 0.100(4) -0.039(3) -0.035(4) 0.006(3)
C35 0.096(4) 0.046(3) 0.099(4) -0.030(3) -0.050(3) 0.006(3)
C36 0.089(4) 0.043(3) 0.085(4) -0.018(3) -0.044(3) -0.004(3)
C37 0.093(4) 0.037(3) 0.095(4) -0.013(3) -0.048(3) -0.001(3)
C38 0.091(4) 0.036(3) 0.089(4) -0.010(3) -0.045(3) -0.005(3)
C39 0.089(4) 0.031(3) 0.077(4) -0.012(2) -0.043(3) -0.003(3)
C40 0.089(4) 0.033(3) 0.074(3) -0.010(2) -0.043(3) -0.006(3)
C41 0.096(4) 0.028(3) 0.073(4) -0.009(3) -0.041(3) -0.003(3)
C42 0.094(4) 0.026(3) 0.075(4) -0.009(3) -0.042(3) 0.000(3)
C43A 0.253(7) 0.114(6) 0.115(5) -0.055(5) 0.004(6) -0.031(6)
C44A 0.315(11) 0.193(9) 0.174(9) -0.084(8) -0.004(9) -0.018(10)
C45A 0.308(12) 0.191(10) 0.175(9) -0.080(8) -0.001(9) -0.016(10)
S1A 0.327(9) 0.177(6) 0.175(5) -0.075(5) -0.016(6) -0.029(6)
S2A 0.266(8) 0.156(5) 0.142(5) -0.062(4) 0.022(5) -0.010(5)
C46 0.126(5) 0.070(4) 0.137(5) -0.059(3) -0.033(4) -0.013(3)
C47 0.119(5) 0.074(4) 0.146(5) -0.059(4) -0.051(4) -0.003(4)
C48 0.118(5) 0.067(4) 0.168(5) -0.068(4) -0.063(4) 0.009(3)
C49 0.118(5) 0.088(4) 0.177(6) -0.067(4) -0.074(5) 0.011(4)
C50 0.122(5) 0.105(5) 0.180(6) -0.071(4) -0.073(4) -0.001(4)
C51 0.123(5) 0.092(5) 0.161(6) -0.066(4) -0.050(5) -0.020(4)
C52 0.147(6) 0.079(4) 0.182(7) -0.079(5) -0.063(5) 0.004(4)
C53 0.156(11) 0.089(9) 0.209(11) -0.078(8) -0.055(10) -0.021(8)
C54 0.179(12) 0.103(9) 0.194(11) -0.091(9) -0.071(10) -0.008(9)
C55 0.169(11) 0.091(9) 0.208(13) -0.084(9) -0.036(10) 0.006(8)
C56 0.134(6) 0.153(7) 0.193(7) -0.083(6) -0.087(6) -0.005(5)
C57 0.161(9) 0.249(13) 0.205(11) -0.106(10) -0.092(8) 0.041(9)
C58 0.169(9) 0.206(11) 0.198(10) -0.066(9) -0.096(8) -0.021(9)
C59 0.206(11) 0.196(10) 0.216(11) -0.112(9) -0.093(9) -0.030(8)
C60 0.145(5) 0.051(3) 0.073(4) 0.000(3) -0.038(4) -0.025(3)
C61 0.146(5) 0.073(4) 0.077(4) 0.012(3) -0.046(4) -0.053(4)
C62 0.117(4) 0.085(4) 0.095(4) 0.021(3) -0.057(4) -0.041(4)
C63 0.095(4) 0.059(4) 0.101(4) 0.012(3) -0.047(4) -0.013(3)
C64 0.091(4) 0.045(3) 0.093(4) -0.007(3) -0.045(3) -0.002(3)
C65 0.111(4) 0.047(3) 0.077(4) -0.006(3) -0.048(3) -0.003(3)
C66 0.118(5) 0.123(6) 0.110(5) 0.020(4) -0.065(4) -0.041(5)
C67 0.116(11) 0.149(11) 0.108(11) 0.016(10) -0.062(9) -0.023(9)
C68 0.126(11) 0.135(13) 0.105(9) 0.013(10) -0.069(9) -0.033(11)
C69 0.121(11) 0.149(12) 0.124(12) 0.018(11) -0.076(9) -0.034(10)
C70 0.098(4) 0.061(4) 0.128(5) -0.037(4) -0.052(4) 0.009(3)
C71 0.122(6) 0.126(7) 0.202(9) -0.094(7) -0.071(6) 0.011(5)
C72 0.164(8) 0.102(6) 0.134(7) -0.056(5) -0.067(6) 0.015(6)
C73 0.150(8) 0.067(5) 0.184(9) -0.043(5) -0.061(7) 0.007(5)
C74 0.083(4) 0.047(3) 0.068(3) 0.002(2) -0.038(3) -0.009(3)
C75 0.089(4) 0.040(3) 0.076(4) -0.002(3) -0.041(3) -0.002(3)
C76 0.085(4) 0.041(3) 0.080(3) 0.000(3) -0.032(3) -0.007(3)
C77 0.086(4) 0.049(3) 0.084(4) 0.007(3) -0.036(3) -0.003(3)
C78 0.093(4) 0.065(4) 0.080(4) 0.006(3) -0.044(3) 0.002(3)
C79 0.092(4) 0.057(3) 0.078(4) -0.003(3) -0.041(3) -0.006(3)
C80 0.103(4) 0.044(3) 0.104(4) -0.016(3) -0.042(4) -0.006(3)
C81 0.131(10) 0.065(9) 0.103(8) -0.032(7) -0.045(9) -0.016(9)
C82 0.120(10) 0.055(8) 0.126(11) -0.030(8) -0.048(10) 0.007(8)
C83 0.110(9) 0.077(10) 0.118(10) -0.025(9) -0.051(8) -0.018(8)
C84 0.113(5) 0.095(5) 0.096(5) 0.011(4) -0.061(4) 0.004(4)
C85 0.180(9) 0.100(6) 0.143(8) 0.011(5) -0.102(7) 0.032(6)
C86 0.143(7) 0.145(8) 0.086(5) 0.010(5) -0.068(5) -0.002(6)
C87 0.117(6) 0.135(7) 0.137(7) 0.007(6) -0.082(6) 0.000(6)
C88 0.098(4) 0.046(3) 0.104(4) -0.028(3) -0.049(3) 0.004(3)
C89 0.098(4) 0.053(3) 0.125(5) -0.040(3) -0.053(4) 0.008(3)
C90 0.098(4) 0.051(3) 0.143(5) -0.048(3) -0.056(4) 0.010(3)
C91 0.101(4) 0.044(3) 0.140(5) -0.033(3) -0.056(4) 0.010(3)
C92 0.096(4) 0.044(3) 0.121(4) -0.028(3) -0.053(3) 0.006(3)
C93 0.104(4) 0.042(3) 0.109(4) -0.030(3) -0.051(4) 0.002(3)
C94 0.102(4) 0.056(4) 0.123(5) -0.024(3) -0.055(4) 0.001(3)
C95 0.124(12) 0.067(12) 0.121(10) -0.021(11) -0.056(10) 0.003(11)
C96 0.114(12) 0.072(10) 0.131(12) -0.018(11) -0.059(11) 0.006(10)
C97 0.111(11) 0.073(11) 0.130(13) -0.026(11) -0.063(10) 0.000(10)
C98 0.130(5) 0.063(4) 0.171(6) -0.065(4) -0.063(5) 0.008(4)
C99 0.133(7) 0.074(6) 0.173(9) -0.058(6) -0.055(7) -0.024(5)
C100 0.144(8) 0.093(7) 0.183(8) -0.089(6) -0.052(7) 0.001(6)
C101 0.188(10) 0.069(6) 0.208(10) -0.061(6) -0.090(8) 0.004(6)
N9 0.265(15) 0.168(10) 0.147(9) -0.026(8) 0.065(10) 0.002(10)
C102 0.183(9) 0.093(6) 0.129(7) -0.028(6) 0.026(6) -0.003(6)
O1 0.139(6) 0.196(7) 0.141(6) -0.079(5) -0.040(5) -0.043(5)
C103 0.216(16) 0.45(3) 0.254(18) -0.139(18) -0.071(14) -0.139(17)
Ni2 0.139(3) 0.074(3) 0.065(2) -0.043(2) -0.005(2) -0.059(2)
N1B 0.210(9) 0.070(6) 0.074(6) -0.040(5) -0.007(7) -0.055(7)
N2B 0.202(8) 0.070(6) 0.093(6) -0.058(5) -0.002(6) -0.051(6)
C1B 0.209(7) 0.068(5) 0.072(5) -0.018(4) -0.006(6) -0.034(5)
C2B 0.219(7) 0.076(5) 0.078(5) -0.022(4) -0.001(6) -0.038(6)
C3B 0.229(7) 0.082(5) 0.085(5) -0.034(5) 0.003(6) -0.038(6)
C4B 0.234(7) 0.088(5) 0.094(5) -0.038(4) 0.008(6) -0.037(6)
C5B 0.242(6) 0.097(5) 0.107(5) -0.052(4) 0.009(5) -0.033(5)
C6B 0.230(7) 0.087(5) 0.111(5) -0.056(4) 0.011(6) -0.035(5)
C7B 0.221(7) 0.089(5) 0.122(5) -0.059(5) 0.015(6) -0.031(6)
C8B 0.204(7) 0.081(5) 0.118(6) -0.063(5) 0.008(6) -0.034(6)
C9B 0.189(7) 0.073(5) 0.114(5) -0.058(5) 0.002(6) -0.034(5)
C43B 0.259(8) 0.116(6) 0.120(6) -0.059(5) 0.004(6) -0.032(7)
C44B 0.315(12) 0.191(9) 0.167(9) -0.085(8) -0.008(9) -0.021(10)
C45B 0.313(11) 0.192(9) 0.171(8) -0.081(8) -0.003(9) -0.020(9)
S1B 0.303(12) 0.182(9) 0.155(8) -0.080(7) -0.037(8) -0.050(8)
S2B 0.285(10) 0.165(7) 0.153(7) -0.075(6) 0.007(7) -0.016(7)
C53B 0.147(10) 0.095(9) 0.202(12) -0.076(9) -0.069(9) -0.028(8)
C54B 0.173(11) 0.095(9) 0.196(10) -0.098(8) -0.050(10) -0.005(9)
C55B 0.175(12) 0.085(8) 0.214(12) -0.074(9) -0.059(11) 0.010(9)
C67B 0.109(7) 0.165(10) 0.116(8) 0.026(7) -0.061(6) -0.013(7)
C68B 0.103(7) 0.103(7) 0.089(7) 0.017(6) -0.054(6) -0.003(6)
C69B 0.164(10) 0.141(9) 0.133(9) -0.005(7) -0.086(7) -0.031(8)
C81B 0.130(8) 0.075(6) 0.103(7) -0.024(5) -0.056(7) -0.013(6)
C82B 0.114(7) 0.083(7) 0.137(9) -0.049(6) -0.045(6) -0.003(6)
C83B 0.124(8) 0.071(6) 0.132(8) -0.015(6) -0.044(7) -0.030(6)
C95B 0.129(7) 0.070(5) 0.123(7) -0.024(4) -0.069(6) -0.006(5)
C96B 0.129(7) 0.071(6) 0.125(6) -0.015(5) -0.056(5) -0.005(5)
C97B 0.108(6) 0.093(6) 0.140(7) -0.029(5) -0.063(5) 0.010(5)
C99B 0.147(12) 0.071(11) 0.185(11) -0.066(10) -0.059(11) -0.011(10)
C10A 0.143(12) 0.087(11) 0.179(11) -0.069(10) -0.060(10) -0.005(11)
C10B 0.144(11) 0.068(10) 0.184(13) -0.086(10) -0.065(10) -0.005(9)
loop_
_atom_type_symbol
_atom_type_description
_atom_type_scat_dispersion_real
_atom_type_scat_dispersion_imag
_atom_type_scat_source
C C 0.0030 0.0020 'International Tables Vol C Tables 4.2.6.8 and 6.1.1.4'
H H 0.0000 0.0000 'International Tables Vol C Tables 4.2.6.8 and 6.1.1.4'
N N 0.0060 0.0030 'International Tables Vol C Tables 4.2.6.8 and 6.1.1.4'
S S 0.1190 0.1180 'International Tables Vol C Tables 4.2.6.8 and 6.1.1.4'
Ni Ni 0.3580 1.0750 'International Tables Vol C Tables 4.2.6.8 and 6.1.1.4'
Zn Zn 0.3240 1.4030 'International Tables Vol C Tables 4.2.6.8 and 6.1.1.4'
O O 0.0110 0.0060 'International Tables Vol C Tables 4.2.6.8 and 6.1.1.4'
loop_
_geom_angle_atom_site_label_1
_geom_angle_atom_site_label_2
_geom_angle_atom_site_label_3
_geom_angle
N1A Ni1 N2A 89.5(4)
N1A Ni1 N3 175.5(7)
N1A Ni1 N4 90.7(4)
N2A Ni1 N3 91.4(4)
N2A Ni1 N4 175.8(7)
N3 Ni1 N4 88.1(3)
Ni1 N1A C1A 126.3(7)
Ni1 N1A C4A 127.1(8)
C1A N1A C4A 106.6(9)
Ni1 N2A C6A 130.3(9)
Ni1 N2A C9A 127.0(7)
C6A N2A C9A 102.7(10)
Ni1 N3 C11 123.9(6)
Ni1 N3 C14 130.0(5)
C11 N3 C14 105.8(6)
C11 N3 Ni2 128.5(6)
C14 N3 Ni2 125.4(5)
Ni1 N4 C16 129.0(4)
Ni1 N4 C19 127.1(5)
C16 N4 C19 103.7(6)
C16 N4 Ni2 127.4(4)
C19 N4 Ni2 128.3(5)
N1A C1A C2A 108.9(10)
N1A C1A C20 126.3(9)
C2A C1A C20 124.6(10)
C1A C2A H2A 126.4
C1A C2A C3A 107.2(10)
H2A C2A C3A 126.4
C2A C3A H3A 125.4
C2A C3A C4A 109.2(11)
H3A C3A C4A 125.4
N1A C4A C3A 107.5(10)
N1A C4A C5A 126.7(11)
C3A C4A C5A 125.5(12)
C4A C5A C6A 117.8(12)
C4A C5A C43A 121.1(13)
C6A C5A C43A 119.2(14)
N2A C6A C5A 124.6(13)
N2A C6A C7A 113.8(12)
C5A C6A C7A 120.2(12)
C6A C7A H7A 127.3
C6A C7A C8A 105.4(12)
H7A C7A C8A 127.3
C7A C8A H8A 129.0
C7A C8A C9A 102.0(12)
H8A C8A C9A 129.0
N2A C9A C8A 112.8(11)
N2A C9A C10 123.6(10)
C8A C9A C10 123.6(11)
C9A C10 C11 126.4(10)
C9A C10 C46 116.5(9)
C11 C10 C46 117.0(8)
C11 C10 C9B 120.2(11)
C46 C10 C9B 121.8(9)
N3 C11 C10 125.6(8)
N3 C11 C12 109.1(7)
C10 C11 C12 124.8(8)
C11 C12 H12 126.0
C11 C12 C13 108.0(7)
H12 C12 C13 126.0
C12 C13 H13 126.6
C12 C13 C14 106.9(7)
H13 C13 C14 126.6
N3 C14 C13 110.2(7)
N3 C14 C15 125.8(6)
C13 C14 C15 123.8(7)
C14 C15 C16 121.5(7)
C14 C15 C41 118.1(6)
C16 C15 C41 120.1(6)
N4 C16 C15 125.1(7)
N4 C16 C17 111.0(5)
C15 C16 C17 123.7(7)
C16 C17 H17 127.0
C16 C17 C18 105.9(7)
H17 C17 C18 127.0
C17 C18 H18 125.7
C17 C18 C19 108.7(7)
H18 C18 C19 125.7
N4 C19 C18 110.6(6)
N4 C19 C20 123.8(7)
C18 C19 C20 125.2(7)
C1A C20 C19 123.7(8)
C1A C20 C60 121.3(7)
C19 C20 C60 115.0(8)
C19 C20 C1B 120.4(9)
C60 C20 C1B 118.8(8)
N5 Zn N6 89.0(2)
N5 Zn N7 166.9(2)
N5 Zn N8 88.1(2)
N5 Zn O1 98.6(3)
N6 Zn N7 88.8(2)
N6 Zn N8 164.1(2)
N6 Zn O1 99.0(3)
N7 Zn N8 90.5(2)
N7 Zn O1 94.5(3)
N8 Zn O1 96.8(2)
Zn N5 C21 126.6(4)
Zn N5 C24 126.8(5)
C21 N5 C24 105.6(5)
Zn N6 C26 127.2(5)
Zn N6 C29 126.9(5)
C26 N6 C29 105.8(6)
Zn N7 C31 127.1(5)
Zn N7 C34 125.5(6)
C31 N7 C34 106.8(6)
Zn N8 C36 125.8(5)
Zn N8 C39 128.8(4)
C36 N8 C39 105.3(5)
N5 C21 C22 110.8(5)
N5 C21 C40 124.3(6)
C22 C21 C40 124.8(7)
C21 C22 H22 127.0
C21 C22 C23 106.0(6)
H22 C22 C23 127.0
C22 C23 H23 125.7
C22 C23 C24 108.5(6)
H23 C23 C24 125.7
N5 C24 C23 109.0(6)
N5 C24 C25 124.2(6)
C23 C24 C25 126.8(5)
C24 C25 C26 126.4(6)
C24 C25 C74 115.3(6)
C26 C25 C74 118.3(6)
N6 C26 C25 125.1(6)
N6 C26 C27 108.7(7)
C25 C26 C27 126.2(7)
C26 C27 H27 126.2
C26 C27 C28 107.6(7)
H27 C27 C28 126.2
C27 C28 H28 126.3
C27 C28 C29 107.4(8)
H28 C28 C29 126.3
N6 C29 C28 110.4(8)
N6 C29 C30 123.4(7)
C28 C29 C30 126.1(9)
C29 C30 C31 128.2(9)
C29 C30 C102 116.9(8)
C31 C30 C102 114.8(9)
N7 C31 C30 123.2(8)
N7 C31 C32 110.7(7)
C30 C31 C32 125.8(9)
C31 C32 H32 126.5
C31 C32 C33 107.0(9)
H32 C32 C33 126.5
C32 C33 H33 126.1
C32 C33 C34 107.8(8)
H33 C33 C34 126.1
N7 C34 C33 107.6(7)
N7 C34 C35 124.8(7)
C33 C34 C35 127.5(7)
C34 C35 C36 127.8(6)
C34 C35 C88 117.7(7)
C36 C35 C88 114.5(7)
N8 C36 C35 124.8(6)
N8 C36 C37 108.9(6)
C35 C36 C37 126.2(6)
C36 C37 H37 125.6
C36 C37 C38 108.8(6)
H37 C37 C38 125.6
C37 C38 H38 127.5
C37 C38 C39 105.0(7)
H38 C38 C39 127.5
N8 C39 C38 112.0(6)
N8 C39 C40 124.1(5)
C38 C39 C40 123.9(7)
C21 C40 C39 125.3(7)
C21 C40 C42 117.4(6)
C39 C40 C42 117.2(5)
C15 C41 C42 179.3(7)
C40 C42 C41 177.7(7)
C5A C43A H43A 104.3
C5A C43A S1A 117.1(11)
C5A C43A S2A 122.0(13)
H43A C43A S1A 104.3
H43A C43A S2A 104.3
S1A C43A S2A 103.0(10)
H44A C44A H44B 108.2
H44A C44A C45A 109.7
H44A C44A S1A 109.7
H44B C44A C45A 109.7
H44B C44A S1A 109.7
C45A C44A S1A 109.8(11)
C44A C45A H45A 109.4
C44A C45A H45B 109.4
C44A C45A S2A 111.2(10)
H45A C45A H45B 108.0
H45A C45A S2A 109.4
H45B C45A S2A 109.4
C43A S1A C44A 104.5(9)
C43A S2A C45A 105.3(9)
C10 C46 C47 119.6(8)
C10 C46 C51 120.6(7)
C47 C46 C51 119.4(9)
C46 C47 H47 120.5
C46 C47 C48 119.0(8)
H47 C47 C48 120.5
C47 C48 C49 120.7(7)
C47 C48 C52 119.0(8)
C49 C48 C52 120.3(8)
C48 C49 H49 119.4
C48 C49 C50 121.2(9)
H49 C49 C50 119.4
C49 C50 C51 116.9(9)
C49 C50 C56 122.2(10)
C51 C50 C56 120.8(8)
C46 C51 C50 122.8(8)
C46 C51 H51 118.6
C50 C51 H51 118.6
C48 C52 C53 109.8(10)
C48 C52 C54 114.0(9)
C48 C52 C55 110.8(10)
C48 C52 C53B 108.3(9)
C48 C52 C54B 108.2(10)
C48 C52 C55B 112.0(10)
C53 C52 C54 107.5(11)
C53 C52 C55 105.7(11)
C54 C52 C55 108.7(12)
C53B C52 C54B 107.7(12)
C53B C52 C55B 109.5(12)
C54B C52 C55B 111.0(12)
C52 C53 H53A 109.5
C52 C53 H53B 109.5
C52 C53 H53C 109.5
H53A C53 H53B 109.5
H53A C53 H53C 109.5
H53B C53 H53C 109.5
C52 C54 H54A 109.5
C52 C54 H54B 109.5
C52 C54 H54C 109.5
H54A C54 H54B 109.5
H54A C54 H54C 109.5
H54B C54 H54C 109.5
C52 C55 H55A 109.5
C52 C55 H55B 109.5
C52 C55 H55C 109.5
H55A C55 H55B 109.5
H55A C55 H55C 109.5
H55B C55 H55C 109.5
C50 C56 C57 106.4(10)
C50 C56 C58 111.4(9)
C50 C56 C59 112.4(9)
C57 C56 C58 110.3(10)
C57 C56 C59 111.0(9)
C58 C56 C59 105.3(10)
C56 C57 H57A 109.5
C56 C57 H57B 109.5
C56 C57 H57C 109.5
H57A C57 H57B 109.5
H57A C57 H57C 109.5
H57B C57 H57C 109.5
C56 C58 H58A 109.5
C56 C58 H58B 109.5
C56 C58 H58C 109.5
H58A C58 H58B 109.5
H58A C58 H58C 109.5
H58B C58 H58C 109.5
C56 C59 H59A 109.5
C56 C59 H59B 109.5
C56 C59 H59C 109.5
H59A C59 H59B 109.5
H59A C59 H59C 109.5
H59B C59 H59C 109.5
C20 C60 C61 119.1(7)
C20 C60 C65 121.0(7)
C61 C60 C65 119.7(7)
C60 C61 H61 119.8
C60 C61 C62 120.4(7)
H61 C61 C62 119.8
C61 C62 C63 118.3(7)
C61 C62 C66 118.7(8)
C63 C62 C66 122.9(8)
C62 C63 H63 118.2
C62 C63 C64 123.6(7)
H63 C63 C64 118.2
C63 C64 C65 115.7(7)
C63 C64 C70 124.0(6)
C65 C64 C70 120.3(6)
C60 C65 C64 122.2(6)
C60 C65 H65 118.9
C64 C65 H65 118.9
C62 C66 C67 101.5(13)
C62 C66 C68 113.5(15)
C62 C66 C69 116.0(14)
C62 C66 C67B 109.5(8)
C62 C66 C68B 110.6(7)
C62 C66 C69B 110.7(9)
C67 C66 C68 106.9(15)
C67 C66 C69 105.7(16)
C68 C66 C69 111.8(16)
C67B C66 C68B 117.4(9)
C67B C66 C69B 104.1(9)
C68B C66 C69B 104.2(9)
C66 C67 H67A 109.5
C66 C67 H67B 109.5
C66 C67 H67C 109.5
H67A C67 H67B 109.5
H67A C67 H67C 109.5
H67B C67 H67C 109.5
C66 C68 H68A 109.5
C66 C68 H68B 109.5
C66 C68 H68C 109.5
H68A C68 H68B 109.5
H68A C68 H68C 109.5
H68B C68 H68C 109.5
C66 C69 H69A 109.5
C66 C69 H69B 109.5
C66 C69 H69C 109.5
H69A C69 H69B 109.5
H69A C69 H69C 109.5
H69B C69 H69C 109.5
C64 C70 C71 110.1(7)
C64 C70 C72 108.7(6)
C64 C70 C73 112.2(6)
C71 C70 C72 108.5(7)
C71 C70 C73 109.6(7)
C72 C70 C73 107.7(7)
C70 C71 H71A 109.5
C70 C71 H71B 109.5
C70 C71 H71C 109.5
H71A C71 H71B 109.5
H71A C71 H71C 109.5
H71B C71 H71C 109.5
C70 C72 H72A 109.5
C70 C72 H72B 109.5
C70 C72 H72C 109.5
H72A C72 H72B 109.5
H72A C72 H72C 109.5
H72B C72 H72C 109.5
C70 C73 H73A 109.5
C70 C73 H73B 109.5
C70 C73 H73C 109.5
H73A C73 H73B 109.5
H73A C73 H73C 109.5
H73B C73 H73C 109.5
C25 C74 C75 119.4(5)
C25 C74 C79 121.3(6)
C75 C74 C79 119.4(6)
C74 C75 H75 118.8
C74 C75 C76 122.5(6)
H75 C75 C76 118.8
C75 C76 C77 116.4(6)
C75 C76 C80 122.3(6)
C77 C76 C80 121.3(6)
C76 C77 H77 118.7
C76 C77 C78 122.5(6)
H77 C77 C78 118.7
C77 C78 C79 119.0(6)
C77 C78 C84 123.2(7)
C79 C78 C84 117.8(7)
C74 C79 C78 120.2(7)
C74 C79 H79 119.9
C78 C79 H79 119.9
C76 C80 C81 107.7(9)
C76 C80 C82 109.0(11)
C76 C80 C83 107.7(10)
C76 C80 C81B 114.5(6)
C76 C80 C82B 111.3(7)
C76 C80 C83B 109.0(7)
C81 C80 C82 112.6(13)
C81 C80 C83 109.7(12)
C82 C80 C83 110.0(12)
C81B C80 C82B 107.2(8)
C81B C80 C83B 107.0(8)
C82B C80 C83B 107.5(8)
C80 C81 H81A 109.5
C80 C81 H81B 109.5
C80 C81 H81C 109.5
H81A C81 H81B 109.5
H81A C81 H81C 109.5
H81B C81 H81C 109.5
C80 C82 H82A 109.5
C80 C82 H82B 109.5
C80 C82 H82C 109.5
H82A C82 H82B 109.5
H82A C82 H82C 109.5
H82B C82 H82C 109.5
C80 C83 H83A 109.5
C80 C83 H83B 109.5
C80 C83 H83C 109.5
H83A C83 H83B 109.5
H83A C83 H83C 109.5
H83B C83 H83C 109.5
C78 C84 C85 111.3(7)
C78 C84 C86 109.7(7)
C78 C84 C87 108.2(6)
C85 C84 C86 108.3(7)
C85 C84 C87 109.7(8)
C86 C84 C87 109.6(8)
C84 C85 H85A 109.5
C84 C85 H85B 109.5
C84 C85 H85C 109.5
H85A C85 H85B 109.5
H85A C85 H85C 109.5
H85B C85 H85C 109.5
C84 C86 H86A 109.5
C84 C86 H86B 109.5
C84 C86 H86C 109.5
H86A C86 H86B 109.5
H86A C86 H86C 109.5
H86B C86 H86C 109.5
C84 C87 H87A 109.5
C84 C87 H87B 109.5
C84 C87 H87C 109.5
H87A C87 H87B 109.5
H87A C87 H87C 109.5
H87B C87 H87C 109.5
C35 C88 C89 119.1(6)
C35 C88 C93 121.4(6)
C89 C88 C93 119.5(6)
C88 C89 H89 119.8
C88 C89 C90 120.3(7)
H89 C89 C90 119.8
C89 C90 C91 118.3(6)
C89 C90 C98 119.3(7)
C91 C90 C98 122.3(7)
C90 C91 H91 118.4
C90 C91 C92 123.3(6)
H91 C91 C92 118.4
C91 C92 C93 115.2(6)
C91 C92 C94 120.6(6)
C93 C92 C94 124.1(6)
C88 C93 C92 123.3(6)
C88 C93 H93 118.3
C92 C93 H93 118.3
C92 C94 C95 105(4)
C92 C94 C96 115(4)
C92 C94 C97 111(4)
C92 C94 C95B 113.1(6)
C92 C94 C96B 108.4(6)
C92 C94 C97B 109.3(7)
C95 C94 C96 108(2)
C95 C94 C97 108(2)
C96 C94 C97 109(2)
C95B C94 C96B 107.9(7)
C95B C94 C97B 107.1(7)
C96B C94 C97B 111.0(7)
C94 C95 H95A 109.5
C94 C95 H95B 109.5
C94 C95 H95C 109.5
H95A C95 H95B 109.5
H95A C95 H95C 109.5
H95B C95 H95C 109.5
C94 C96 H96A 109.5
C94 C96 H96B 109.5
C94 C96 H96C 109.5
H96A C96 H96B 109.5
H96A C96 H96C 109.5
H96B C96 H96C 109.5
C94 C97 H97A 109.5
C94 C97 H97B 109.5
C94 C97 H97C 109.5
H97A C97 H97B 109.5
H97A C97 H97C 109.5
H97B C97 H97C 109.5
C90 C98 C99 109.6(7)
C90 C98 C100 107.4(7)
C90 C98 C101 113.2(8)
C90 C98 C99B 107.4(17)
C90 C98 C10A 120.3(18)
C90 C98 C10B 108.1(14)
C99 C98 C100 105.8(8)
C99 C98 C101 108.6(8)
C100 C98 C101 111.9(9)
C99B C98 C10A 107.6(17)
C99B C98 C10B 103.6(16)
C10A C98 C10B 108.6(17)
C98 C99 H99A 109.5
C98 C99 H99B 109.5
C98 C99 H99C 109.5
H99A C99 H99B 109.5
H99A C99 H99C 109.5
H99B C99 H99C 109.5
C98 C100 H10A 109.5
C98 C100 H10B 109.5
C98 C100 H10C 109.5
H10A C100 H10B 109.5
H10A C100 H10C 109.5
H10B C100 H10C 109.5
C98 C101 H10D 109.5
C98 C101 H10E 109.5
C98 C101 H10F 109.5
H10D C101 H10E 109.5
H10D C101 H10F 109.5
H10E C101 H10F 109.5
C30 C102 N9 177.2(16)
Zn O1 H1 117.3
Zn O1 C103 125.4(10)
H1 O1 C103 117.3
O1 C103 H10G 109.5
O1 C103 H10H 109.5
O1 C103 H10I 109.5
H10G C103 H10H 109.5
H10G C103 H10I 109.5
H10H C103 H10I 109.5
N3 Ni2 N4 89.6(3)
N3 Ni2 N1B 178.7(8)
N3 Ni2 N2B 88.3(4)
N4 Ni2 N1B 89.7(4)
N4 Ni2 N2B 176.6(7)
N1B Ni2 N2B 92.5(5)
Ni2 N1B C1B 128.0(8)
Ni2 N1B C4B 128.1(9)
C1B N1B C4B 103.8(10)
Ni2 N2B C6B 124.0(10)
Ni2 N2B C9B 127.1(8)
C6B N2B C9B 108.9(11)
C20 C1B N1B 124.2(10)
C20 C1B C2B 123.5(11)
N1B C1B C2B 112.0(11)
C1B C2B H2B 127.4
C1B C2B C3B 105.1(12)
H2B C2B C3B 127.4
C2B C3B H3B 125.4
C2B C3B C4B 109.2(12)
H3B C3B C4B 125.4
N1B C4B C3B 109.1(12)
N1B C4B C5B 120.7(13)
C3B C4B C5B 128.1(14)
C4B C5B C6B 122.9(15)
C4B C5B C43B 112.1(13)
C6B C5B C43B 123.3(15)
N2B C6B C5B 126.2(15)
N2B C6B C7B 109.8(13)
C5B C6B C7B 122.8(14)
C6B C7B H7B 126.4
C6B C7B C8B 107.2(13)
H7B C7B C8B 126.4
C7B C8B H8B 127.2
C7B C8B C9B 105.5(13)
H8B C8B C9B 127.2
C10 C9B N2B 127.5(11)
C10 C9B C8B 125.2(12)
N2B C9B C8B 107.3(11)
C5B C43B H43B 105.1
C5B C43B S1B 114.2(12)
C5B C43B S2B 123.4(16)
H43B C43B S1B 105.1
H43B C43B S2B 105.1
S1B C43B S2B 102.3(11)
H44C C44B H44D 108.2
H44C C44B C45B 109.7
H44C C44B S1B 109.7
H44D C44B C45B 109.7
H44D C44B S1B 109.7
C45B C44B S1B 109.6(12)
C44B C45B H45C 109.4
C44B C45B H45D 109.4
C44B C45B S2B 111.0(11)
H45C C45B H45D 108.0
H45C C45B S2B 109.4
H45D C45B S2B 109.4
C43B S1B C44B 105.4(10)
C43B S2B C45B 106.2(10)
C52 C53B H53D 109.5
C52 C53B H53E 109.5
C52 C53B H53F 109.5
H53D C53B H53E 109.5
H53D C53B H53F 109.5
H53E C53B H53F 109.5
C52 C54B H54D 109.5
C52 C54B H54E 109.5
C52 C54B H54F 109.5
H54D C54B H54E 109.5
H54D C54B H54F 109.5
H54E C54B H54F 109.5
C52 C55B H55D 109.5
C52 C55B H55E 109.5
C52 C55B H55F 109.5
H55D C55B H55E 109.5
H55D C55B H55F 109.5
H55E C55B H55F 109.5
C66 C67B H67D 109.5
C66 C67B H67E 109.5
C66 C67B H67F 109.5
H67D C67B H67E 109.5
H67D C67B H67F 109.5
H67E C67B H67F 109.5
C66 C68B H68D 109.5
C66 C68B H68E 109.5
C66 C68B H68F 109.5
H68D C68B H68E 109.5
H68D C68B H68F 109.5
H68E C68B H68F 109.5
C66 C69B H69D 109.5
C66 C69B H69E 109.5
C66 C69B H69F 109.5
H69D C69B H69E 109.5
H69D C69B H69F 109.5
H69E C69B H69F 109.5
C80 C81B H81D 109.5
C80 C81B H81E 109.5
C80 C81B H81F 109.5
H81D C81B H81E 109.5
H81D C81B H81F 109.5
H81E C81B H81F 109.5
C80 C82B H82D 109.5
C80 C82B H82E 109.5
C80 C82B H82F 109.5
H82D C82B H82E 109.5
H82D C82B H82F 109.5
H82E C82B H82F 109.5
C80 C83B H83D 109.5
C80 C83B H83E 109.5
C80 C83B H83F 109.5
H83D C83B H83E 109.5
H83D C83B H83F 109.5
H83E C83B H83F 109.5
C94 C95B H95D 109.5
C94 C95B H95E 109.5
C94 C95B H95F 109.5
H95D C95B H95E 109.5
H95D C95B H95F 109.5
H95E C95B H95F 109.5
C94 C96B H96D 109.5
C94 C96B H96E 109.5
C94 C96B H96F 109.5
H96D C96B H96E 109.5
H96D C96B H96F 109.5
H96E C96B H96F 109.5
C94 C97B H97D 109.5
C94 C97B H97E 109.5
C94 C97B H97F 109.5
H97D C97B H97E 109.5
H97D C97B H97F 109.5
H97E C97B H97F 109.5
C98 C99B H99D 109.5
C98 C99B H99E 109.5
C98 C99B H99F 109.5
H99D C99B H99E 109.5
H99D C99B H99F 109.5
H99E C99B H99F 109.5
C98 C10A H10J 109.5
C98 C10A H10K 109.5
C98 C10A H10L 109.5
H10J C10A H10K 109.5
H10J C10A H10L 109.5
H10K C10A H10L 109.5
C98 C10B H10M 109.5
C98 C10B H10N 109.5
C98 C10B H10O 109.5
H10M C10B H10N 109.5
H10M C10B H10O 109.5
H10N C10B H10O 109.5
loop_
_geom_bond_atom_site_label_1
_geom_bond_atom_site_label_2
_geom_bond_distance
Ni1 N1A 1.946(8)
Ni1 N2A 1.915(9)
Ni1 N3 1.945(6)
Ni1 N4 1.968(7)
N1A C1A 1.370(12)
N1A C4A 1.400(13)
N2A C6A 1.383(14)
N2A C9A 1.402(14)
N3 C11 1.399(9)
N3 C14 1.366(9)
N3 Ni2 1.968(7)
N4 C16 1.388(9)
N4 C19 1.396(8)
N4 Ni2 1.893(7)
C1A C2A 1.459(14)
C1A C20 1.392(13)
C2A H2A 0.950
C2A C3A 1.312(15)
C3A H3A 0.950
C3A C4A 1.448(15)
C4A C5A 1.414(17)
C5A C6A 1.420(19)
C5A C43A 1.497(18)
C6A C7A 1.381(16)
C7A H7A 0.950
C7A C8A 1.466(19)
C8A H8A 0.950
C8A C9A 1.435(15)
C9A C10 1.329(13)
C10 C11 1.340(11)
C10 C46 1.529(12)
C10 C9B 1.367(14)
C11 C12 1.415(10)
C12 H12 0.950
C12 C13 1.352(11)
C13 H13 0.950
C13 C14 1.428(9)
C14 C15 1.384(10)
C15 C16 1.383(8)
C15 C41 1.413(10)
C16 C17 1.430(9)
C17 H17 0.950
C17 C18 1.349(9)
C18 H18 0.950
C18 C19 1.399(10)
C19 C20 1.386(10)
C20 C60 1.511(10)
C20 C1B 1.382(14)
Zn N5 2.050(5)
Zn N6 2.054(6)
Zn N7 2.069(6)
Zn N8 2.042(5)
Zn O1 2.172(7)
N5 C21 1.357(8)
N5 C24 1.386(7)
N6 C26 1.381(8)
N6 C29 1.364(10)
N7 C31 1.348(10)
N7 C34 1.392(9)
N8 C36 1.412(8)
N8 C39 1.343(8)
C21 C22 1.442(9)
C21 C40 1.421(8)
C22 H22 0.950
C22 C23 1.335(8)
C23 H23 0.950
C23 C24 1.429(9)
C24 C25 1.404(9)
C25 C26 1.384(10)
C25 C74 1.510(8)
C26 C27 1.450(10)
C27 H27 0.950
C27 C28 1.324(11)
C28 H28 0.950
C28 C29 1.427(11)
C29 C30 1.413(12)
C30 C31 1.395(11)
C30 C102 1.462(15)
C31 C32 1.400(11)
C32 H32 0.950
C32 C33 1.355(11)
C33 H33 0.950
C33 C34 1.424(11)
C34 C35 1.391(10)
C35 C36 1.386(10)
C35 C88 1.513(9)
C36 C37 1.415(9)
C37 H37 0.950
C37 C38 1.360(9)
C38 H38 0.950
C38 C39 1.442(8)
C39 C40 1.410(9)
C40 C42 1.433(10)
C41 C42 1.202(9)
C43A H43A 1.000
C43A S1A 1.668(12)
C43A S2A 1.667(12)
C44A H44A 0.990
C44A H44B 0.990
C44A C45A 1.36(3)
C44A S1A 1.671(14)
C45A H45A 0.990
C45A H45B 0.990
C45A S2A 1.669(14)
C46 C47 1.385(10)
C46 C51 1.407(12)
C47 H47 0.950
C47 C48 1.389(11)
C48 C49 1.400(12)
C48 C52 1.549(10)
C49 H49 0.950
C49 C50 1.399(11)
C50 C51 1.378(13)
C50 C56 1.522(14)
C51 H51 0.950
C52 C53 1.538(12)
C52 C54 1.530(12)
C52 C55 1.549(12)
C52 C53B 1.536(12)
C52 C54B 1.516(12)
C52 C55B 1.530(12)
C53 H53A 0.980
C53 H53B 0.980
C53 H53C 0.980
C54 H54A 0.980
C54 H54B 0.980
C54 H54C 0.980
C55 H55A 0.980
C55 H55B 0.980
C55 H55C 0.980
C56 C57 1.506(11)
C56 C58 1.551(11)
C56 C59 1.526(10)
C57 H57A 0.980
C57 H57B 0.980
C57 H57C 0.980
C58 H58A 0.980
C58 H58B 0.980
C58 H58C 0.980
C59 H59A 0.980
C59 H59B 0.980
C59 H59C 0.980
C60 C61 1.382(10)
C60 C65 1.372(10)
C61 H61 0.950
C61 C62 1.391(12)
C62 C63 1.368(11)
C62 C66 1.531(10)
C63 H63 0.950
C63 C64 1.399(9)
C64 C65 1.400(9)
C64 C70 1.504(10)
C65 H65 0.950
C66 C67 1.560(14)
C66 C68 1.497(13)
C66 C69 1.526(13)
C66 C67B 1.482(11)
C66 C68B 1.481(10)
C66 C69B 1.586(11)
C67 H67A 0.980
C67 H67B 0.980
C67 H67C 0.980
C68 H68A 0.980
C68 H68B 0.980
C68 H68C 0.980
C69 H69A 0.980
C69 H69B 0.980
C69 H69C 0.980
C70 C71 1.532(9)
C70 C72 1.528(9)
C70 C73 1.536(9)
C71 H71A 0.980
C71 H71B 0.980
C71 H71C 0.980
C72 H72A 0.980
C72 H72B 0.980
C72 H72C 0.980
C73 H73A 0.980
C73 H73B 0.980
C73 H73C 0.980
C74 C75 1.371(9)
C74 C79 1.380(8)
C75 H75 0.950
C75 C76 1.405(8)
C76 C77 1.386(9)
C76 C80 1.517(9)
C77 H77 0.950
C77 C78 1.378(10)
C78 C79 1.396(9)
C78 C84 1.555(10)
C79 H79 0.950
C80 C81 1.519(12)
C80 C82 1.506(12)
C80 C83 1.526(12)
C80 C81B 1.529(10)
C80 C82B 1.530(10)
C80 C83B 1.544(10)
C81 H81A 0.980
C81 H81B 0.980
C81 H81C 0.980
C82 H82A 0.980
C82 H82B 0.980
C82 H82C 0.980
C83 H83A 0.980
C83 H83B 0.980
C83 H83C 0.980
C84 C85 1.528(9)
C84 C86 1.523(10)
C84 C87 1.544(9)
C85 H85A 0.980
C85 H85B 0.980
C85 H85C 0.980
C86 H86A 0.980
C86 H86B 0.980
C86 H86C 0.980
C87 H87A 0.980
C87 H87B 0.980
C87 H87C 0.980
C88 C89 1.385(9)
C88 C93 1.360(9)
C89 H89 0.950
C89 C90 1.404(9)
C90 C91 1.371(10)
C90 C98 1.542(10)
C91 H91 0.950
C91 C92 1.410(9)
C92 C93 1.402(9)
C92 C94 1.516(10)
C93 H93 0.950
C94 C95 1.529(15)
C94 C96 1.530(15)
C94 C97 1.529(15)
C94 C95B 1.540(9)
C94 C96B 1.506(9)
C94 C97B 1.543(9)
C95 H95A 0.980
C95 H95B 0.980
C95 H95C 0.980
C96 H96A 0.980
C96 H96B 0.980
C96 H96C 0.980
C97 H97A 0.980
C97 H97B 0.980
C97 H97C 0.980
C98 C99 1.537(10)
C98 C100 1.522(10)
C98 C101 1.519(10)
C98 C99B 1.534(14)
C98 C10A 1.527(14)
C98 C10B 1.548(14)
C99 H99A 0.980
C99 H99B 0.980
C99 H99C 0.980
C100 H10A 0.980
C100 H10B 0.980
C100 H10C 0.980
C101 H10D 0.980
C101 H10E 0.980
C101 H10F 0.980
N9 C102 1.095(13)
O1 H1 0.950
O1 C103 1.298(19)
C103 H10G 0.980
C103 H10H 0.980
C103 H10I 0.980
Ni2 N1B 1.939(9)
Ni2 N2B 1.917(10)
N1B C1B 1.365(13)
N1B C4B 1.388(14)
N2B C6B 1.387(14)
N2B C9B 1.416(14)
C1B C2B 1.456(14)
C2B H2B 0.950
C2B C3B 1.309(16)
C3B H3B 0.950
C3B C4B 1.448(16)
C4B C5B 1.412(18)
C5B C6B 1.42(2)
C5B C43B 1.499(19)
C6B C7B 1.377(17)
C7B H7B 0.950
C7B C8B 1.471(19)
C8B H8B 0.950
C8B C9B 1.438(16)
C43B H43B 1.000
C43B S1B 1.650(13)
C43B S2B 1.652(13)
C44B H44C 0.990
C44B H44D 0.990
C44B C45B 1.36(3)
C44B S1B 1.669(15)
C45B H45C 0.990
C45B H45D 0.990
C45B S2B 1.666(15)
C53B H53D 0.980
C53B H53E 0.980
C53B H53F 0.980
C54B H54D 0.980
C54B H54E 0.980
C54B H54F 0.980
C55B H55D 0.980
C55B H55E 0.980
C55B H55F 0.980
C67B H67D 0.980
C67B H67E 0.980
C67B H67F 0.980
C68B H68D 0.980
C68B H68E 0.980
C68B H68F 0.980
C69B H69D 0.980
C69B H69E 0.980
C69B H69F 0.980
C81B H81D 0.980
C81B H81E 0.980
C81B H81F 0.980
C82B H82D 0.980
C82B H82E 0.980
C82B H82F 0.980
C83B H83D 0.980
C83B H83E 0.980
C83B H83F 0.980
C95B H95D 0.980
C95B H95E 0.980
C95B H95F 0.980
C96B H96D 0.980
C96B H96E 0.980
C96B H96F 0.980
C97B H97D 0.980
C97B H97E 0.980
C97B H97F 0.980
C99B H99D 0.980
C99B H99E 0.980
C99B H99F 0.980
C10A H10J 0.980
C10A H10K 0.980
C10A H10L 0.980
C10B H10M 0.980
C10B H10N 0.980
C10B H10O 0.980
loop_
_geom_torsion_atom_site_label_1
_geom_torsion_atom_site_label_2
_geom_torsion_atom_site_label_3
_geom_torsion_atom_site_label_4
_geom_torsion
Ni1 N1A C1A C2A 173.0(14)
Ni1 N1A C1A C20 -12(3)
C4A N1A C1A C2A -9(2)
C4A N1A C1A C20 166(2)
N1A C1A C2A C3A 8(2)
C20 C1A C2A C3A -167(2)
C1A C2A C3A C4A -3(3)
Ni1 N1A C4A C3A -175.0(15)
Ni1 N1A C4A C5A -1(3)
C1A N1A C4A C3A 7(2)
C1A N1A C4A C5A -180(2)
C2A C3A C4A N1A -2(3)
C2A C3A C4A C5A -176(2)
N1A C4A C5A C6A -18(4)
N1A C4A C5A C43A 178(2)
C3A C4A C5A C6A 155(2)
C3A C4A C5A C43A -9(4)
Ni1 N2A C6A C5A -6(4)
Ni1 N2A C6A C7A -172.9(18)
C9A N2A C6A C5A 173(2)
C9A N2A C6A C7A 7(3)
C4A C5A C6A N2A 21(3)
C4A C5A C6A C7A -173(2)
C43A C5A C6A N2A -173.9(19)
C43A C5A C6A C7A -8(3)
N2A C6A C7A C8A -16(3)
C5A C6A C7A C8A 177(2)
C6A C7A C8A C9A 18(2)
Ni1 N2A C9A C8A -174.5(17)
Ni1 N2A C9A C10 6(4)
C6A N2A C9A C8A 6(3)
C6A N2A C9A C10 -174(2)
C7A C8A C9A N2A -15(3)
C7A C8A C9A C10 164(2)
N2A C9A C10 C11 2(3)
N2A C9A C10 C46 -173.1(19)
C8A C9A C10 C11 -177.1(17)
C8A C9A C10 C46 8(3)
C9A C10 C11 N3 2(2)
C9A C10 C11 C12 172.1(17)
C46 C10 C11 N3 177.5(7)
C46 C10 C11 C12 -12.5(12)
C9B C10 C11 N3 -14(3)
C9B C10 C11 C12 156(2)
Ni1 N3 C11 C10 -14.0(11)
Ni1 N3 C11 C12 174.7(5)
C14 N3 C11 C10 172.3(8)
C14 N3 C11 C12 1.0(8)
Ni2 N3 C11 C10 -2.0(12)
Ni2 N3 C11 C12 -173.3(5)
N3 C11 C12 C13 -0.1(8)
C10 C11 C12 C13 -171.5(8)
C11 C12 C13 C14 -0.8(8)
Ni1 N3 C14 C13 -174.7(5)
Ni1 N3 C14 C15 0.4(11)
C11 N3 C14 C13 -1.5(8)
C11 N3 C14 C15 173.5(7)
Ni2 N3 C14 C13 173.0(5)
Ni2 N3 C14 C15 -11.9(10)
C12 C13 C14 N3 1.5(8)
C12 C13 C14 C15 -173.7(7)
N3 C14 C15 C16 -6.8(11)
N3 C14 C15 C41 179.0(6)
C13 C14 C15 C16 167.6(6)
C13 C14 C15 C41 -6.5(10)
C14 C15 C16 N4 7.0(10)
C14 C15 C16 C17 -168.7(7)
C41 C15 C16 N4 -178.9(6)
C41 C15 C16 C17 5.4(10)
Ni1 N4 C16 C15 -1.0(10)
Ni1 N4 C16 C17 175.1(5)
C19 N4 C16 C15 -176.1(7)
C19 N4 C16 C17 0.1(8)
Ni2 N4 C16 C15 12.4(10)
Ni2 N4 C16 C17 -171.5(5)
N4 C16 C17 C18 0.2(8)
C15 C16 C17 C18 176.4(7)
C16 C17 C18 C19 -0.4(8)
Ni1 N4 C19 C18 -175.5(5)
Ni1 N4 C19 C20 10.9(12)
C16 N4 C19 C18 -0.3(8)
C16 N4 C19 C20 -173.9(8)
Ni2 N4 C19 C18 171.1(5)
Ni2 N4 C19 C20 -2.5(12)
C17 C18 C19 N4 0.5(9)
C17 C18 C19 C20 173.9(8)
N4 C19 C20 C1A -3.0(17)
N4 C19 C20 C60 176.7(7)
N4 C19 C20 C1B 24(2)
C18 C19 C20 C1A -175.7(13)
C18 C19 C20 C60 4.0(12)
C18 C19 C20 C1B -148.9(19)
N1A C1A C20 C19 4(3)
N1A C1A C20 C60 -176.0(16)
C2A C1A C20 C19 177.8(15)
C2A C1A C20 C60 -2(3)
Zn N5 C21 C22 165.8(4)
Zn N5 C21 C40 -16.6(8)
C24 N5 C21 C22 -3.4(6)
C24 N5 C21 C40 174.2(5)
N5 C21 C22 C23 2.8(7)
C40 C21 C22 C23 -174.8(5)
C21 C22 C23 C24 -0.9(7)
Zn N5 C24 C23 -166.5(4)
Zn N5 C24 C25 15.4(8)
C21 N5 C24 C23 2.8(6)
C21 N5 C24 C25 -175.4(5)
C22 C23 C24 N5 -1.1(7)
C22 C23 C24 C25 177.0(6)
N5 C24 C25 C26 -9.6(10)
N5 C24 C25 C74 170.0(5)
C23 C24 C25 C26 172.6(6)
C23 C24 C25 C74 -7.8(9)
Zn N6 C26 C25 1.8(10)
Zn N6 C26 C27 179.0(5)
C29 N6 C26 C25 -177.8(7)
C29 N6 C26 C27 -0.6(8)
C24 C25 C26 N6 0.5(11)
C24 C25 C26 C27 -176.2(6)
C74 C25 C26 N6 -179.1(6)
C74 C25 C26 C27 4.1(10)
N6 C26 C27 C28 -0.9(9)
C25 C26 C27 C28 176.3(7)
C26 C27 C28 C29 1.9(10)
Zn N6 C29 C28 -177.8(5)
Zn N6 C29 C30 2.3(12)
C26 N6 C29 C28 1.8(9)
C26 N6 C29 C30 -178.1(8)
C27 C28 C29 N6 -2.4(11)
C27 C28 C29 C30 177.5(9)
N6 C29 C30 C31 8.1(16)
N6 C29 C30 C102 -170.5(10)
C28 C29 C30 C31 -171.7(10)
C28 C29 C30 C102 9.7(16)
Zn N7 C31 C30 -12.7(12)
Zn N7 C31 C32 173.0(5)
C34 N7 C31 C30 175.4(8)
C34 N7 C31 C32 1.2(9)
C29 C30 C31 N7 -2.5(16)
C29 C30 C31 C32 170.8(10)
C102 C30 C31 N7 176.1(10)
C102 C30 C31 C32 -10.6(15)
N7 C31 C32 C33 -0.2(10)
C30 C31 C32 C33 -174.3(9)
C31 C32 C33 C34 -0.8(10)
Zn N7 C34 C33 -173.6(5)
Zn N7 C34 C35 8.9(10)
C31 N7 C34 C33 -1.6(8)
C31 N7 C34 C35 -179.0(7)
C32 C33 C34 N7 1.5(9)
C32 C33 C34 C35 178.8(8)
N7 C34 C35 C36 -1.7(11)
N7 C34 C35 C88 176.4(6)
C33 C34 C35 C36 -178.6(7)
C33 C34 C35 C88 -0.6(11)
C34 C35 C36 N8 -2.8(11)
C34 C35 C36 C37 -179.6(6)
C88 C35 C36 N8 179.1(5)
C88 C35 C36 C37 2.3(9)
Zn N8 C36 C35 -0.7(8)
Zn N8 C36 C37 176.5(4)
C39 N8 C36 C35 -177.5(6)
C39 N8 C36 C37 -0.3(6)
N8 C36 C37 C38 0.6(7)
C35 C36 C37 C38 177.8(6)
C36 C37 C38 C39 -0.6(6)
Zn N8 C39 C38 -176.8(4)
Zn N8 C39 C40 2.8(8)
C36 N8 C39 C38 -0.1(6)
C36 N8 C39 C40 179.4(5)
C37 C38 C39 N8 0.5(7)
C37 C38 C39 C40 -179.1(5)
N8 C39 C40 C21 6.1(9)
N8 C39 C40 C42 -177.4(5)
C38 C39 C40 C21 -174.4(5)
C38 C39 C40 C42 2.1(8)
N5 C21 C40 C39 1.3(9)
N5 C21 C40 C42 -175.2(5)
C22 C21 C40 C39 178.5(6)
C22 C21 C40 C42 2.1(8)
C4A C5A C43A S1A -128(2)
C4A C5A C43A S2A 104(2)
C6A C5A C43A S1A 68(2)
C6A C5A C43A S2A -60(2)
S1A C44A C45A S2A -24(3)
C5A C43A S1A C44A -153.2(17)
S2A C43A S1A C44A -16.4(16)
C45A C44A S1A C43A 26(3)
C5A C43A S2A C45A 138.5(16)
S1A C43A S2A C45A 4.5(16)
C44A C45A S2A C43A 12(3)
C9A C10 C46 C47 -77.4(17)
C9A C10 C46 C51 109.7(17)
C11 C10 C46 C47 106.7(10)
C11 C10 C46 C51 -66.1(12)
C9B C10 C46 C47 -61(3)
C9B C10 C46 C51 126(3)
C10 C46 C47 C48 -172.3(9)
C51 C46 C47 C48 0.6(14)
C46 C47 C48 C49 -0.9(15)
C46 C47 C48 C52 177.0(9)
C47 C48 C49 C50 0.9(16)
C52 C48 C49 C50 -177.0(9)
C48 C49 C50 C51 -0.5(16)
C48 C49 C50 C56 175.7(10)
C49 C50 C51 C46 0.1(16)
C56 C50 C51 C46 -176.1(9)
C10 C46 C51 C50 172.7(9)
C47 C46 C51 C50 -0.2(16)
C47 C48 C52 C53 -118.2(13)
C47 C48 C52 C54 2.5(16)
C47 C48 C52 C55 125.4(13)
C47 C48 C52 C53B -56.5(15)
C47 C48 C52 C54B 59.9(14)
C47 C48 C52 C55B -177.4(14)
C49 C48 C52 C53 59.7(14)
C49 C48 C52 C54 -179.6(13)
C49 C48 C52 C55 -56.7(15)
C49 C48 C52 C53B 121.4(13)
C49 C48 C52 C54B -122.2(13)
C49 C48 C52 C55B 0.5(16)
C49 C50 C56 C57 61.7(14)
C49 C50 C56 C58 -58.6(14)
C49 C50 C56 C59 -176.5(10)
C51 C50 C56 C57 -122.2(12)
C51 C50 C56 C58 117.5(12)
C51 C50 C56 C59 -0.4(15)
C1A C20 C60 C61 76.6(15)
C1A C20 C60 C65 -107.5(14)
C19 C20 C60 C61 -103.2(9)
C19 C20 C60 C65 72.7(11)
C1B C20 C60 C61 50(2)
C1B C20 C60 C65 -134(2)
C20 C60 C61 C62 172.9(8)
C65 C60 C61 C62 -3.1(13)
C60 C61 C62 C63 1.8(13)
C60 C61 C62 C66 -179.0(8)
C61 C62 C63 C64 -0.3(13)
C66 C62 C63 C64 -179.5(7)
C62 C63 C64 C65 0.1(12)
C62 C63 C64 C70 -178.9(8)
C20 C60 C65 C64 -172.9(8)
C61 C60 C65 C64 2.9(12)
C63 C64 C65 C60 -1.4(11)
C70 C64 C65 C60 177.6(7)
C61 C62 C66 C67 163.9(15)
C61 C62 C66 C68 -81.7(19)
C61 C62 C66 C69 50(2)
C61 C62 C66 C67B 105.9(12)
C61 C62 C66 C68B -123.2(10)
C61 C62 C66 C69B -8.2(12)
C63 C62 C66 C67 -17.0(16)
C63 C62 C66 C68 97.4(19)
C63 C62 C66 C69 -131(2)
C63 C62 C66 C67B -74.9(12)
C63 C62 C66 C68B 56.0(13)
C63 C62 C66 C69B 170.9(9)
C63 C64 C70 C71 -122.3(9)
C63 C64 C70 C72 119.0(8)
C63 C64 C70 C73 0.0(11)
C65 C64 C70 C71 58.6(10)
C65 C64 C70 C72 -60.1(9)
C65 C64 C70 C73 -179.1(8)
C24 C25 C74 C75 -82.0(8)
C24 C25 C74 C79 97.0(8)
C26 C25 C74 C75 97.7(8)
C26 C25 C74 C79 -83.4(8)
C25 C74 C75 C76 177.8(6)
C79 C74 C75 C76 -1.2(11)
C74 C75 C76 C77 0.0(10)
C74 C75 C76 C80 179.0(6)
C75 C76 C77 C78 0.6(11)
C80 C76 C77 C78 -178.4(7)
C76 C77 C78 C79 -0.1(12)
C76 C77 C78 C84 -178.4(7)
C25 C74 C79 C78 -177.3(7)
C75 C74 C79 C78 1.7(11)
C77 C78 C79 C74 -1.1(11)
C84 C78 C79 C74 177.3(7)
C75 C76 C80 C81 54.9(13)
C75 C76 C80 C82 177.3(12)
C75 C76 C80 C83 -63.3(12)
C75 C76 C80 C81B 2.3(11)
C75 C76 C80 C82B 124.0(9)
C75 C76 C80 C83B -117.6(8)
C77 C76 C80 C81 -126.2(12)
C77 C76 C80 C82 -3.7(14)
C77 C76 C80 C83 115.6(11)
C77 C76 C80 C81B -178.8(8)
C77 C76 C80 C82B -57.0(10)
C77 C76 C80 C83B 61.4(10)
C77 C78 C84 C85 -3.3(11)
C77 C78 C84 C86 -123.2(9)
C77 C78 C84 C87 117.3(9)
C79 C78 C84 C85 178.3(8)
C79 C78 C84 C86 58.5(9)
C79 C78 C84 C87 -61.0(10)
C34 C35 C88 C89 83.7(9)
C34 C35 C88 C93 -98.8(9)
C36 C35 C88 C89 -98.0(8)
C36 C35 C88 C93 79.5(9)
C35 C88 C89 C90 177.7(8)
C93 C88 C89 C90 0.1(12)
C88 C89 C90 C91 -1.4(13)
C88 C89 C90 C98 -178.8(8)
C89 C90 C91 C92 1.4(13)
C98 C90 C91 C92 178.7(8)
C90 C91 C92 C93 -0.2(12)
C90 C91 C92 C94 179.8(8)
C35 C88 C93 C92 -176.2(7)
C89 C88 C93 C92 1.3(13)
C91 C92 C93 C88 -1.3(12)
C94 C92 C93 C88 178.7(8)
C91 C92 C94 C95 105(4)
C91 C92 C94 C96 -14(4)
C91 C92 C94 C97 -139(4)
C91 C92 C94 C95B -176.5(8)
C91 C92 C94 C96B 63.8(10)
C91 C92 C94 C97B -57.3(10)
C93 C92 C94 C95 -75(4)
C93 C92 C94 C96 166(4)
C93 C92 C94 C97 41(4)
C93 C92 C94 C95B 3.5(12)
C93 C92 C94 C96B -116.2(9)
C93 C92 C94 C97B 122.7(9)
C89 C90 C98 C99 55.6(11)
C89 C90 C98 C100 -58.9(11)
C89 C90 C98 C101 177.0(10)
C89 C90 C98 C99B 115(2)
C89 C90 C98 C10A -9(3)
C89 C90 C98 C10B -134(2)
C91 C90 C98 C99 -121.7(10)
C91 C90 C98 C100 123.8(10)
C91 C90 C98 C101 -0.2(14)
C91 C90 C98 C99B -63(2)
C91 C90 C98 C10A 174(2)
C91 C90 C98 C10B 49(2)
C16 N4 Ni2 N3 -22.2(7)
C16 N4 Ni2 N1B 156.7(10)
C19 N4 Ni2 N3 168.3(7)
C19 N4 Ni2 N1B -12.8(10)
Ni2 N1B C1B C20 2(5)
Ni2 N1B C1B C2B 176(2)
C4B N1B C1B C20 178(3)
C4B N1B C1B C2B -8(4)
C19 C20 C1B N1B -24(4)
C19 C20 C1B C2B 163(3)
C60 C20 C1B N1B -176(2)
C60 C20 C1B C2B 11(4)
C20 C1B C2B C3B 178(3)
N1B C1B C2B C3B 5(4)
C1B C2B C3B C4B 1(4)
Ni2 N1B C4B C3B -176(2)
Ni2 N1B C4B C5B -11(5)
C1B N1B C4B C3B 9(4)
C1B N1B C4B C5B 174(3)
C2B C3B C4B N1B -7(4)
C2B C3B C4B C5B -170(4)
N1B C4B C5B C6B -14(5)
N1B C4B C5B C43B -180(3)
C3B C4B C5B C6B 148(4)
C3B C4B C5B C43B -18(5)
Ni2 N2B C6B C5B -3(5)
Ni2 N2B C6B C7B -172(2)
C9B N2B C6B C5B 174(3)
C9B N2B C6B C7B 6(4)
C4B C5B C6B N2B 22(5)
C4B C5B C6B C7B -172(3)
C43B C5B C6B N2B -174(3)
C43B C5B C6B C7B -7(5)
N2B C6B C7B C8B -10(4)
C5B C6B C7B C8B -179(3)
C6B C7B C8B C9B 11(4)
C11 C10 C9B N2B 15(5)
C11 C10 C9B C8B -162(3)
C46 C10 C9B N2B -177(3)
C46 C10 C9B C8B 5(5)
Ni2 N2B C9B C10 1(6)
Ni2 N2B C9B C8B 179(2)
C6B N2B C9B C10 -176(4)
C6B N2B C9B C8B 2(4)
C7B C8B C9B C10 170(4)
C7B C8B C9B N2B -8(4)
C4B C5B C43B S1B -163(2)
C4B C5B C43B S2B 72(3)
C6B C5B C43B S1B 31(4)
C6B C5B C43B S2B -94(3)
S1B C44B C45B S2B -19(5)
C5B C43B S1B C44B -154(3)
S2B C43B S1B C44B -19(2)
C45B C44B S1B C43B 25(4)
C5B C43B S2B C45B 139(3)
S1B C43B S2B C45B 9(3)
C44B C45B S2B C43B 7(5)
