#------------------------------------------------------------------------------
#$Date: 2016-04-05 18:21:04 +0300 (Tue, 05 Apr 2016) $
#$Revision: 181598 $
#$URL: svn://www.crystallography.net/cod/cif/7/22/42/7224244.cif $
#------------------------------------------------------------------------------
#
# This file is available in the Crystallography Open Database (COD),
# http://www.crystallography.net/
#
# All data on this site have been placed in the public domain by the
# contributors.
#
data_7224244
loop_
_publ_author_name
'Cui, Hao'
'Wang, Yingxia'
'Wang, Yanhu'
'Fan, Yan-Zhong'
'Zhang, Li'
'Su, Cheng-Yong'
_publ_section_title
;
 A stable and porous iridium(iii)-porphyrin metal--organic framework:
 synthesis, structure and catalysis
;
_journal_issue                   12
_journal_name_full               CrystEngComm
_journal_page_first              2203
_journal_paper_doi               10.1039/C6CE00358C
_journal_volume                  18
_journal_year                    2016
_chemical_formula_sum            'C144 H72 Cl3 Ir3 N12 O64 Zr12'
_chemical_formula_weight         4771.72
_chemical_name_systematic        Ir-POF-1
_space_group_crystal_system      cubic
_space_group_IT_number           229
_space_group_name_Hall           '-I 4 2 3'
_space_group_name_H-M_alt        'I m -3 m'
_symmetry_space_group_name_Hall  '-I 4 2 3'
_symmetry_space_group_name_H-M   'I m -3 m'
_atom_sites_solution_hydrogens   geom
_audit_creation_method           SHELXL-2014/7
_audit_update_record
;
2015-11-11 deposited with the CCDC.
2016-02-11 downloaded from the CCDC.
;
_cell_angle_alpha                90
_cell_angle_beta                 90
_cell_angle_gamma                90
_cell_formula_units_Z            4
_cell_length_a                   38.3937(2)
_cell_length_b                   38.3937(2)
_cell_length_c                   38.3937(2)
_cell_measurement_reflns_used    5091
_cell_measurement_temperature    150(2)
_cell_measurement_theta_max      64.6490
_cell_measurement_theta_min      3.6410
_cell_volume                     56595.2(5)
_computing_structure_refinement  'SHELXL-2014/7 (Sheldrick, 2014)'
_diffrn_ambient_temperature      150(2)
_diffrn_detector_area_resol_mean 10.6525
_diffrn_measured_fraction_theta_full 0.982
_diffrn_measured_fraction_theta_max 0.980
_diffrn_measurement_device_type  'SuperNova, Dual, Cu at zero, Atlas'
_diffrn_radiation_monochromator  mirror
_diffrn_radiation_source         'SuperNova (Cu) X-ray Source'
_diffrn_radiation_wavelength     1.54178
_diffrn_reflns_av_R_equivalents  0.0440
_diffrn_reflns_av_unetI/netI     0.0317
_diffrn_reflns_Laue_measured_fraction_full 0.982
_diffrn_reflns_Laue_measured_fraction_max 0.980
_diffrn_reflns_limit_h_max       5
_diffrn_reflns_limit_h_min       -44
_diffrn_reflns_limit_k_max       27
_diffrn_reflns_limit_k_min       -13
_diffrn_reflns_limit_l_max       31
_diffrn_reflns_limit_l_min       -40
_diffrn_reflns_number            18180
_diffrn_reflns_point_group_measured_fraction_full 0.982
_diffrn_reflns_point_group_measured_fraction_max 0.980
_diffrn_reflns_theta_full        64.657
_diffrn_reflns_theta_max         64.657
_diffrn_reflns_theta_min         3.640
_exptl_absorpt_coefficient_mu    3.421
_exptl_absorpt_correction_T_max  1.00000
_exptl_absorpt_correction_T_min  0.64151
_exptl_absorpt_correction_type   multi-scan
_exptl_absorpt_process_details
;
CrysAlisPro, Agilent Technologies,
Version 1.171.36.32 (release 02-08-2013 CrysAlis171 .NET)
(compiled Aug  2 2013,16:46:58)
Empirical absorption correction using spherical harmonics,
 implemented in SCALE3 ABSPACK scaling algorithm.
;
_exptl_crystal_colour            red
_exptl_crystal_density_diffrn    0.560
_exptl_crystal_description       block
_exptl_crystal_F_000             9176
_exptl_crystal_size_max          0.100
_exptl_crystal_size_mid          0.100
_exptl_crystal_size_min          0.100
_refine_diff_density_max         1.276
_refine_diff_density_min         -0.962
_refine_diff_density_rms         0.094
_refine_ls_extinction_coef       0.0000081(19)
_refine_ls_extinction_expression Fc^*^=kFc[1+0.001xFc^2^\l^3^/sin(2\q)]^-1/4^
_refine_ls_extinction_method     'SHELXL-2014/7 (Sheldrick 2014'
_refine_ls_goodness_of_fit_ref   1.063
_refine_ls_hydrogen_treatment    constr
_refine_ls_matrix_type           full
_refine_ls_number_parameters     103
_refine_ls_number_reflns         4393
_refine_ls_number_restraints     155
_refine_ls_restrained_S_all      1.346
_refine_ls_R_factor_all          0.0919
_refine_ls_R_factor_gt           0.0763
_refine_ls_shift/su_max          0.008
_refine_ls_shift/su_mean         0.000
_refine_ls_structure_factor_coef Fsqd
_refine_ls_weighting_details
'w=1/[\s^2^(Fo^2^)+(0.1790P)^2^+38.0617P] where P=(Fo^2^+2Fc^2^)/3'
_refine_ls_weighting_scheme      calc
_refine_ls_wR_factor_gt          0.2396
_refine_ls_wR_factor_ref         0.2559
_reflns_Friedel_coverage         0.000
_reflns_number_gt                3298
_reflns_number_total             4393
_reflns_threshold_expression     'I > 2\s(I)'
_cod_data_source_file            c6ce00358c2.cif
_cod_data_source_block           L1-Zr-Ir
_cod_depositor_comments          'Adding full bibliography for 7224244.cif.'
_cod_original_cell_volume        56595.2(9)
_cod_database_code               7224244
_shelx_shelxl_version_number     2014/7
_shelx_space_group_comment
;
The symmetry employed for this shelxl refinement is uniquely defined
by the following loop, which should always be used as a source of
symmetry information in preference to the above space-group names.
They are only intended as comments.
;
_shelx_estimated_absorpt_t_min   0.726
_shelx_estimated_absorpt_t_max   0.726
_shelx_res_file
;

    shelx.res created by SHELXL-2014/7


TITL 1 in Im-3m
CELL 1.54178  38.3937  38.3937  38.3937  90.000  90.000  90.000
ZERR   4.00   0.0002   0.0002   0.0002   0.000   0.000   0.000
LATT  2
SYMM  -X,-Y,+Z
SYMM  -X,+Y,-Z
SYMM  +X,-Y,-Z
SYMM  +Z,+X,+Y
SYMM  +Z,-X,-Y
SYMM  -Z,-X,+Y
SYMM  -Z,+X,-Y
SYMM  +Y,+Z,+X
SYMM  -Y,+Z,-X
SYMM  +Y,-Z,-X
SYMM  -Y,-Z,+X
SYMM  +Y,+X,-Z
SYMM  -Y,-X,-Z
SYMM  +Y,-X,+Z
SYMM  -Y,+X,+Z
SYMM  +X,+Z,-Y
SYMM  -X,+Z,+Y
SYMM  -X,-Z,-Y
SYMM  +X,-Z,+Y
SYMM  +Z,+Y,-X
SYMM  +Z,-Y,+X
SYMM  -Z,+Y,+X
SYMM  -Z,-Y,-X
SFAC C H N O Zr Ir CL
UNIT 576 288 48 256 48 12 12
ACTA
SIZE 0.1 0.1 0.1
TEMP -123
L.S. 20 0   23
PLAN 6
BOND $H
FMAP 2
DFIX 1.50 0.02 C1 C2 C5 C6
DFIX 1.35 0.02 C2 C3
DFIX 1.35 0.01 C4 C5
DFIX 1.40 0.02 C3 C4
ISOr 0.01 0.005 ir1 zr1
simu 0.01 0.005 ir1 zr1
ISOR 0.02 0.01 N1 > C8
SIMU 0.02 0.01 N1 > C8
damp 1000
ABIN
WGHT    0.179000   38.061718
EXTI    0.000008
FVAR       0.22972
IR1   6    0.500000    1.000000    0.250000    10.12500    0.01880    0.01880 =
         0.46370    0.00000    0.00000    0.00000
ZR1   5    0.706944    0.771356    0.293056    10.50000    0.15069    0.14538 =
         0.15069   -0.12083   -0.10731    0.12083
N1    3    0.500000    0.946955    0.249701    10.50000    0.03704    0.03568 =
         0.33505   -0.00789    0.00000    0.00000
O1    4    0.672143    0.814070    0.278503    11.00000    0.13944    0.11932 =
         0.17982   -0.07212   -0.06289    0.09009
O2    4    0.742717    0.807824    0.257283    10.50000    0.11595    0.35017 =
         0.11595   -0.11238   -0.04770    0.11238
O3    4    0.717135    0.717135    0.282865    10.16667    0.08839    0.08839 =
         0.08839   -0.04880   -0.04880    0.04880
O4    4    0.652585    0.749580    0.299859    11.00000    0.14678    0.19365 =
         0.24881   -0.03180   -0.04843    0.07963
CL1   7    0.500000    1.000000    0.189879    10.12500    0.26528    0.26673 =
         0.28414    0.00000    0.00000    0.00000
C1    1    0.669310    0.830690    0.250000    10.50000    0.10907    0.10907 =
         0.17515   -0.04899   -0.04899    0.05155
C2    1    0.641008    0.858992    0.250000    10.50000    0.08723    0.08723 =
         0.19282   -0.03115   -0.03115    0.04018
C3    1    0.633319    0.876168    0.220245    11.00000    0.10507    0.12350 =
         0.22224   -0.00532   -0.02660    0.06309
AFIX  43
H3    2    0.644965    0.870300    0.199217    11.00000   -1.20000
AFIX   0
C4    1    0.608394    0.902399    0.220399    11.00000    0.10184    0.11146 =
         0.24082    0.00419   -0.00458    0.04694
AFIX  43
H4    2    0.603929    0.915316    0.199773    11.00000   -1.20000
AFIX   0
C5    1    0.590393    0.909607    0.250000    10.50000    0.06415    0.06415 =
         0.26600   -0.00039   -0.00039    0.01721
C6    1    0.562777    0.937223    0.250000    10.50000    0.05198    0.05198 =
         0.29213   -0.00683   -0.00683    0.02025
C7    1    0.528817    0.926615    0.248495    11.00000    0.04825    0.04133 =
         0.33367   -0.01295   -0.00294    0.01042
C8    1    0.517435    0.890681    0.247824    11.00000    0.06430    0.03917 =
         0.36595   -0.01190   -0.00088    0.00948
AFIX  43
H8    2    0.532054    0.870722    0.247451    11.00000   -1.20000

AFIX   0
HKLF4

REM  1 in Im-3m
REM R1 =  0.0763 for    3298 Fo > 4sig(Fo)  and  0.0919 for all    4393 data
REM    103 parameters refined using    155 restraints

END

WGHT      0.1943     15.6178

REM Highest difference peak  1.276,  deepest hole -0.962,  1-sigma level  0.094
Q1    1   0.7208  0.7796  0.2792  10.50000  0.05    1.28
Q2    1   0.7366  0.7849  0.2634  10.50000  0.05    0.96
Q3    1   0.6394  0.7221  0.2779  10.50000  0.05    0.82
Q4    1   0.6997  0.7627  0.3003  10.50000  0.05    0.72
Q5    1   0.7349  0.7349  0.2651  10.16667  0.05    0.59
Q6    1   0.6641  0.7625  0.2849  11.00000  0.05    0.55
;
_shelx_res_checksum              45355
_shelx_fab_file
;
    2    2    2   -503.95      0.00
    0    1    3    174.27      0.00
    1    2    3   -157.81      0.00
    0    3    3    372.27      0.00
    2    3    3   -140.92      0.00
    0    0    4    409.00      0.00
    1    1    4    413.42      0.00
    0    2    4    -53.81      0.00
    2    2    4   -372.36      0.00
    1    3    4    123.11      0.00
    3    3    4     17.39      0.00
    0    4    4    130.17      0.00
    2    4    4    355.02      0.00
    4    4    4    284.68      0.00
    0    1    5    -22.18      0.00
    1    2    5   -160.47      0.00
    0    3    5     76.64      0.00
    2    3    5    -97.75      0.00
    1    4    5     30.49      0.00
    3    4    5     75.86      0.00
    0    5    5    219.87      0.00
    2    5    5    -13.56      0.00
    4    5    5   -107.46      0.00
    0    0    6    235.89      0.00
    1    1    6   -195.71      0.00
    0    2    6    181.23      0.00
    2    2    6   -227.05      0.00
    1    3    6   -114.22      0.00
    3    3    6    -14.74      0.00
    0    4    6   -112.76      0.00
    2    4    6      3.76      0.00
    4    4    6     75.84      0.00
    1    5    6    -89.65      0.00
    3    5    6     47.41      0.00
    5    5    6     -1.86      0.00
    0    6    6    -35.92      0.00
    2    6    6    -64.31      0.00
    4    6    6     -0.61      0.00
    6    6    6   -120.30      0.00
    0    1    7    101.67      0.00
    1    2    7    -54.51      0.00
    0    3    7     94.05      0.00
    2    3    7     36.55      0.00
    1    4    7    123.52      0.00
    3    4    7     62.85      0.00
    0    5    7    -85.49      0.00
    2    5    7    -50.06      0.00
    4    5    7     -9.29      0.00
    1    6    7    -40.72      0.00
    3    6    7    -18.79      0.00
    5    6    7     61.31      0.00
    0    7    7     75.68      0.00
    2    7    7     35.38      0.00
    4    7    7    -64.84      0.00
    6    7    7    -37.86      0.00
    0    0    8    202.10      0.00
    1    1    8    -74.60      0.00
    0    2    8     72.40      0.00
    2    2    8     17.09      0.00
    1    3    8     93.83      0.00
    3    3    8     32.08      0.00
    0    4    8    -18.55      0.00
    2    4    8     22.02      0.00
    4    4    8    -59.77      0.00
    1    5    8     37.07      0.00
    3    5    8     48.26      0.00
    5    5    8    -32.67      0.00
    0    6    8    -96.47      0.00
    2    6    8     35.98      0.00
    4    6    8    -36.42      0.00
    6    6    8    -61.11      0.00
    1    7    8    -13.75      0.00
    3    7    8      0.12      0.00
    5    7    8    -17.35      0.00
    7    7    8     37.86      0.00
    0    8    8    206.19      0.00
    2    8    8     -0.69      0.00
    4    8    8    120.95      0.00
    6    8    8      7.65      0.00
    8    8    8     78.54      0.00
    0    1    9     53.83      0.00
    1    2    9    -32.09      0.00
    0    3    9    -86.03      0.00
    2    3    9    -60.32      0.00
    1    4    9    -23.39      0.00
    3    4    9     39.90      0.00
    0    5    9      4.23      0.00
    2    5    9    -11.41      0.00
    4    5    9     47.28      0.00
    1    6    9      0.14      0.00
    3    6    9     -7.03      0.00
    5    6    9    -52.39      0.00
    0    7    9      5.20      0.00
    2    7    9    -17.21      0.00
    4    7    9     15.45      0.00
    6    7    9     -9.90      0.00
    1    8    9    -30.41      0.00
    3    8    9    -10.14      0.00
    5    8    9    -11.45      0.00
    7    8    9      7.93      0.00
    0    9    9     31.90      0.00
    2    9    9    -42.13      0.00
    4    9    9    -22.49      0.00
    6    9    9    -56.17      0.00
    8    9    9    -13.02      0.00
    0    0   10    129.22      0.00
    1    1   10     38.65      0.00
    0    2   10    -98.90      0.00
    2    2   10   -141.19      0.00
    1    3   10     23.06      0.00
    3    3   10    -29.88      0.00
    0    4   10     70.32      0.00
    2    4   10    -18.88      0.00
    4    4   10    106.95      0.00
    1    5   10    -21.37      0.00
    3    5   10    -40.30      0.00
    5    5   10    -23.84      0.00
    0    6   10   -100.02      0.00
    2    6   10     23.18      0.00
    4    6   10    -48.75      0.00
    6    6   10     -5.19      0.00
    1    7   10     28.97      0.00
    3    7   10     22.43      0.00
    5    7   10     -7.99      0.00
    7    7   10      0.14      0.00
    0    8   10     14.55      0.00
    2    8   10    -18.02      0.00
    4    8   10      3.56      0.00
    6    8   10     21.15      0.00
    8    8   10      5.64      0.00
    1    9   10    -18.32      0.00
    3    9   10      3.17      0.00
    5    9   10    -13.52      0.00
    7    9   10      2.06      0.00
    9    9   10     20.62      0.00
    0   10   10     22.78      0.00
    2   10   10      5.26      0.00
    4   10   10    -47.11      0.00
    6   10   10     -0.51      0.00
    8   10   10     -6.43      0.00
   10   10   10    -35.45      0.00
    0    1   11     70.43      0.00
    1    2   11    -40.06      0.00
    0    3   11     51.31      0.00
    2    3   11     10.99      0.00
    1    4   11     77.17      0.00
    3    4   11     13.09      0.00
    0    5   11     16.64      0.00
    2    5   11     -1.76      0.00
    4    5   11      4.15      0.00
    1    6   11    -32.11      0.00
    3    6   11     -4.69      0.00
    5    6   11      9.35      0.00
    0    7   11     38.21      0.00
    2    7   11     26.23      0.00
    4    7   11    -13.87      0.00
    6    7   11     41.36      0.00
    1    8   11     59.70      0.00
    3    8   11     15.63      0.00
    5    8   11    -14.23      0.00
    7    8   11     14.10      0.00
    0    9   11     15.18      0.00
    2    9   11    -21.67      0.00
    4    9   11     44.62      0.00
    6    9   11      2.39      0.00
    8    9   11     -2.55      0.00
    1   10   11    -11.01      0.00
    3   10   11      5.19      0.00
    5   10   11    -14.28      0.00
    7   10   11     19.00      0.00
    9   10   11    -22.00      0.00
    0   11   11     72.72      0.00
    2   11   11     -6.23      0.00
    4   11   11     10.26      0.00
    6   11   11      0.91      0.00
    8   11   11     41.32      0.00
   10   11   11     11.38      0.00
    0    0   12    -48.83      0.00
    1    1   12     -1.48      0.00
    0    2   12     49.69      0.00
    2    2   12      3.41      0.00
    1    3   12     -7.87      0.00
    3    3   12    -20.56      0.00
    0    4   12     57.61      0.00
    2    4   12      2.33      0.00
    4    4   12     -0.40      0.00
    1    5   12      4.74      0.00
    3    5   12    -14.40      0.00
    5    5   12    -27.48      0.00
    0    6   12     38.45      0.00
    2    6   12    -26.99      0.00
    4    6   12     38.18      0.00
    6    6   12    -40.78      0.00
    1    7   12    -16.26      0.00
    3    7   12     23.85      0.00
    5    7   12     13.24      0.00
    7    7   12     28.48      0.00
    0    8   12     29.28      0.00
    2    8   12    -13.01      0.00
    4    8   12      5.81      0.00
    6    8   12    -11.24      0.00
    8    8   12     22.41      0.00
    1    9   12     13.14      0.00
    3    9   12     22.73      0.00
    5    9   12    -13.57      0.00
    7    9   12      7.63      0.00
    9    9   12    -25.42      0.00
    0   10   12      1.04      0.00
    2   10   12    -54.01      0.00
    4   10   12     23.29      0.00
    6   10   12    -29.65      0.00
    8   10   12      7.15      0.00
   10   10   12    -14.69      0.00
    1   11   12     13.32      0.00
    3   11   12    -15.06      0.00
    5   11   12     39.76      0.00
    7   11   12     12.60      0.00
    9   11   12     25.99      0.00
   11   11   12      4.96      0.00
    0   12   12     58.97      0.00
    2   12   12      2.01      0.00
    4   12   12     -3.09      0.00
    6   12   12    -16.04      0.00
    8   12   12      9.06      0.00
   10   12   12      2.22      0.00
   12   12   12    -23.78      0.00
    0    1   13     14.70      0.00
    1    2   13    -32.01      0.00
    0    3   13     -6.63      0.00
    2    3   13    -80.52      0.00
    1    4   13    -40.42      0.00
    3    4   13      5.05      0.00
    0    5   13     25.58      0.00
    2    5   13    -34.48      0.00
    4    5   13      6.40      0.00
    1    6   13     -0.57      0.00
    3    6   13      2.93      0.00
    5    6   13    -48.96      0.00
    0    7   13     11.96      0.00
    2    7   13    -11.90      0.00
    4    7   13     13.90      0.00
    6    7   13    -11.85      0.00
    1    8   13    -11.51      0.00
    3    8   13    -40.55      0.00
    5    8   13     29.59      0.00
    7    8   13      1.13      0.00
    0    9   13    -12.40      0.00
    2    9   13    -23.26      0.00
    4    9   13    -18.67      0.00
    6    9   13    -15.66      0.00
    8    9   13     12.21      0.00
    1   10   13    -11.80      0.00
    3   10   13      0.93      0.00
    5   10   13    -12.19      0.00
    7   10   13    -19.57      0.00
    9   10   13    -24.65      0.00
    0   11   13    -18.94      0.00
    2   11   13     -6.51      0.00
    4   11   13     20.18      0.00
    6   11   13      0.79      0.00
    8   11   13     -5.25      0.00
   10   11   13     -3.46      0.00
    1   12   13     -8.24      0.00
    3   12   13     -4.38      0.00
    5   12   13     -3.27      0.00
    7   12   13     -2.34      0.00
    9   12   13     -8.86      0.00
   11   12   13     -2.90      0.00
    2   13   13    -50.07      0.00
    4   13   13    -24.83      0.00
    6   13   13    -28.18      0.00
    8   13   13     -8.83      0.00
   10   13   13    -11.30      0.00
   12   13   13     -9.16      0.00
    0    0   14     40.76      0.00
    1    1   14    -24.91      0.00
    0    2   14     30.02      0.00
    2    2   14    -89.14      0.00
    1    3   14    -10.21      0.00
    3    3   14     26.72      0.00
    0    4   14     -5.84      0.00
    2    4   14     59.26      0.00
    4    4   14    -20.98      0.00
    1    5   14      9.23      0.00
    3    5   14      5.26      0.00
    5    5   14     -1.83      0.00
    0    6   14     -6.00      0.00
    2    6   14    -54.20      0.00
    4    6   14     12.51      0.00
    6    6   14    -33.86      0.00
    1    7   14     10.57      0.00
    3    7   14     -6.57      0.00
    5    7   14      7.82      0.00
    7    7   14     -3.20      0.00
    0    8   14     16.63      0.00
    2    8   14     33.37      0.00
    4    8   14     23.44      0.00
    6    8   14     30.74      0.00
    8    8   14      1.04      0.00
    1    9   14    -33.73      0.00
    3    9   14    -18.22      0.00
    5    9   14    -11.35      0.00
    7    9   14      8.14      0.00
    9    9   14    -12.76      0.00
    0   10   14     17.76      0.00
    2   10   14    -19.98      0.00
    4   10   14     12.93      0.00
    6   10   14    -12.88      0.00
    8   10   14      7.07      0.00
   10   10   14      7.32      0.00
    1   11   14     25.62      0.00
    3   11   14      3.35      0.00
    5   11   14      4.75      0.00
    7   11   14    -20.79      0.00
    9   11   14     -3.85      0.00
   11   11   14      1.00      0.00
    0   12   14    -14.35      0.00
    2   12   14     -6.16      0.00
    4   12   14      2.82      0.00
    6   12   14      7.29      0.00
    8   12   14     -8.93      0.00
   10   12   14     -6.55      0.00
   12   12   14     13.52      0.00
    1   13   14    -31.60      0.00
    3   13   14     -6.39      0.00
    5   13   14    -23.75      0.00
    7   13   14     15.80      0.00
    9   13   14    -21.64      0.00
   11   13   14     12.01      0.00
   13   13   14    -13.20      0.00
    2   14   14      7.70      0.00
    4   14   14      6.07      0.00
    6   14   14     14.27      0.00
    8   14   14      2.26      0.00
   10   14   14      0.80      0.00
   12   14   14     -2.02      0.00
   14   14   14    -16.58      0.00
    0    1   15     51.87      0.00
    1    2   15      8.92      0.00
    0    3   15     50.55      0.00
    2    3   15     -7.03      0.00
    1    4   15     37.93      0.00
    3    4   15     20.12      0.00
    0    5   15     -7.01      0.00
    2    5   15     30.23      0.00
    4    5   15    -24.35      0.00
    1    6   15     -1.04      0.00
    3    6   15     16.35      0.00
    5    6   15      2.04      0.00
    0    7   15     66.03      0.00
    2    7   15    -28.68      0.00
    4    7   15     39.04      0.00
    6    7   15      1.48      0.00
    1    8   15     24.55      0.00
    3    8   15     19.92      0.00
    5    8   15      7.65      0.00
    7    8   15     -2.14      0.00
    0    9   15     20.34      0.00
    2    9   15    -16.97      0.00
    4    9   15     19.98      0.00
    6    9   15     -6.07      0.00
    8    9   15     -8.76      0.00
    1   10   15    -18.21      0.00
    3   10   15      1.25      0.00
    5   10   15     -6.19      0.00
    7   10   15     35.23      0.00
    9   10   15     -5.69      0.00
    0   11   15     43.38      0.00
    2   11   15     18.17      0.00
    4   11   15     16.86      0.00
    6   11   15     10.28      0.00
    8   11   15     30.22      0.00
   10   11   15      5.07      0.00
    1   12   15     28.10      0.00
    3   12   15     19.66      0.00
    5   12   15     17.82      0.00
    7   12   15     -1.58      0.00
    9   12   15     12.99      0.00
   11   12   15     10.79      0.00
    0   13   15     -6.57      0.00
    2   13   15     -2.17      0.00
    4   13   15     15.46      0.00
    6   13   15     -0.79      0.00
    8   13   15     -3.73      0.00
   10   13   15    -12.49      0.00
   12   13   15      5.20      0.00
    3   14   15      8.39      0.00
    5   14   15     -2.32      0.00
    7   14   15     16.29      0.00
    9   14   15      5.84      0.00
   11   14   15     11.95      0.00
   13   14   15     -4.02      0.00
    0   15   15     23.44      0.00
    2   15   15     16.07      0.00
    4   15   15      0.22      0.00
    6   15   15     -1.34      0.00
    8   15   15     16.76      0.00
   10   15   15     14.04      0.00
   12   15   15     15.48      0.00
   14   15   15     14.50      0.00
    0    0   16     24.40      0.00
    1    1   16      3.92      0.00
    0    2   16     22.81      0.00
    2    2   16    -39.47      0.00
    1    3   16     -1.89      0.00
    3    3   16     14.87      0.00
    0    4   16     16.61      0.00
    2    4   16     -8.34      0.00
    4    4   16     33.40      0.00
    1    5   16     12.18      0.00
    3    5   16    -12.60      0.00
    5    5   16    -12.83      0.00
    0    6   16     12.99      0.00
    2    6   16    -42.43      0.00
    4    6   16     -9.86      0.00
    6    6   16    -15.30      0.00
    1    7   16     11.98      0.00
    3    7   16     15.44      0.00
    5    7   16     -4.17      0.00
    7    7   16     29.21      0.00
    0    8   16      2.21      0.00
    2    8   16     -7.94      0.00
    4    8   16      7.33      0.00
    6    8   16    -13.00      0.00
    8    8   16     -0.60      0.00
    1    9   16     -5.76      0.00
    3    9   16      3.05      0.00
    5    9   16    -24.00      0.00
    7    9   16    -15.37      0.00
    9    9   16      5.19      0.00
    0   10   16     10.66      0.00
    2   10   16      9.72      0.00
    4   10   16     12.87      0.00
    6   10   16      4.84      0.00
    8   10   16      6.74      0.00
   10   10   16     -3.45      0.00
    1   11   16    -11.51      0.00
    3   11   16     17.58      0.00
    5   11   16     -4.21      0.00
    7   11   16     14.35      0.00
    9   11   16     -8.77      0.00
   11   11   16     17.51      0.00
    0   12   16      8.73      0.00
    2   12   16    -11.73      0.00
    4   12   16      2.79      0.00
    6   12   16    -11.68      0.00
    8   12   16     10.57      0.00
   10   12   16     -2.97      0.00
   12   12   16      6.93      0.00
    1   13   16      4.58      0.00
    3   13   16      6.18      0.00
    5   13   16    -28.40      0.00
    7   13   16    -11.61      0.00
    9   13   16     -9.95      0.00
   11   13   16     -7.72      0.00
   13   13   16    -21.10      0.00
    0   14   16     17.94      0.00
    2   14   16    -25.41      0.00
    4   14   16     15.21      0.00
    6   14   16     -7.28      0.00
    8   14   16     -5.63      0.00
   10   14   16     -1.71      0.00
   12   14   16     -1.28      0.00
   14   14   16     12.89      0.00
    1   15   16      2.87      0.00
    3   15   16      8.81      0.00
    5   15   16      2.36      0.00
    7   15   16     18.84      0.00
    9   15   16      0.88      0.00
   11   15   16      9.86      0.00
   13   15   16      0.73      0.00
   15   15   16      8.30      0.00
    0   16   16      8.45      0.00
    2   16   16      0.22      0.00
    4   16   16      7.06      0.00
    6   16   16     -2.50      0.00
    8   16   16      8.59      0.00
   10   16   16      1.74      0.00
   12   16   16     13.67      0.00
   14   16   16     -3.56      0.00
   16   16   16     12.44      0.00
    0    1   17    -11.68      0.00
    1    2   17    -38.67      0.00
    0    3   17     53.71      0.00
    2    3   17    -46.64      0.00
    1    4   17      2.64      0.00
    3    4   17     38.04      0.00
    0    5   17    -25.46      0.00
    2    5   17    -23.67      0.00
    4    5   17    -12.44      0.00
    1    6   17    -14.29      0.00
    3    6   17     10.48      0.00
    5    6   17    -12.88      0.00
    0    7   17     -0.66      0.00
    2    7   17    -25.78      0.00
    4    7   17     -0.55      0.00
    6    7   17     -0.47      0.00
    1    8   17    -11.53      0.00
    3    8   17     19.63      0.00
    5    8   17    -14.12      0.00
    7    8   17      6.75      0.00
    0    9   17    -21.22      0.00
    2    9   17     -2.98      0.00
    4    9   17    -33.39      0.00
    6    9   17     -3.59      0.00
    8    9   17     -7.08      0.00
    1   10   17    -12.74      0.00
    3   10   17    -10.80      0.00
    5   10   17    -26.32      0.00
    7   10   17    -11.07      0.00
    9   10   17    -25.18      0.00
    0   11   17     18.56      0.00
    2   11   17     -4.04      0.00
    4   11   17     10.11      0.00
    6   11   17     -4.15      0.00
    8   11   17     -2.29      0.00
   10   11   17     -3.67      0.00
    1   12   17     -8.14      0.00
    3   12   17     -2.54      0.00
    5   12   17     -4.50      0.00
    7   12   17      9.80      0.00
    9   12   17     -3.80      0.00
   11   12   17      7.86      0.00
    0   13   17     -1.37      0.00
    2   13   17    -28.70      0.00
    4   13   17     -4.71      0.00
    6   13   17    -24.40      0.00
    8   13   17      6.95      0.00
   10   13   17      0.28      0.00
   12   13   17    -14.52      0.00
    1   14   17     -7.54      0.00
    3   14   17     -1.49      0.00
    5   14   17    -12.83      0.00
    7   14   17     15.03      0.00
    9   14   17    -26.16      0.00
   11   14   17      2.20      0.00
   13   14   17     -7.87      0.00
    0   15   17     -1.00      0.00
    2   15   17    -14.44      0.00
    4   15   17     20.82      0.00
    6   15   17     -6.49      0.00
    8   15   17      0.92      0.00
   10   15   17     -6.64      0.00
   12   15   17      1.62      0.00
   14   15   17     10.93      0.00
    1   16   17    -11.79      0.00
    3   16   17    -10.51      0.00
    5   16   17    -22.38      0.00
    7   16   17     -4.50      0.00
    9   16   17    -18.85      0.00
   11   16   17     -7.30      0.00
   13   16   17    -16.14      0.00
   15   16   17      0.16      0.00
    0   17   17     -1.04      0.00
    2   17   17    -17.23      0.00
    4   17   17    -12.25      0.00
    6   17   17    -25.73      0.00
    8   17   17      4.22      0.00
   10   17   17    -10.04      0.00
   12   17   17     -7.62      0.00
   14   17   17    -24.82      0.00
   16   17   17    -11.02      0.00
    0    0   18     63.18      0.00
    1    1   18      5.50      0.00
    0    2   18    -38.33      0.00
    2    2   18      5.08      0.00
    1    3   18      0.06      0.00
    3    3   18     12.02      0.00
    0    4   18     45.46      0.00
    2    4   18    -16.36      0.00
    4    4   18     38.72      0.00
    1    5   18      1.51      0.00
    3    5   18      3.58      0.00
    5    5   18     -4.63      0.00
    0    6   18    -18.33      0.00
    2    6   18      7.28      0.00
    4    6   18    -12.39      0.00
    6    6   18      2.67      0.00
    1    7   18     -2.65      0.00
    3    7   18     21.28      0.00
    5    7   18    -23.71      0.00
    7    7   18     43.76      0.00
    0    8   18     48.08      0.00
    2    8   18    -16.34      0.00
    4    8   18     33.18      0.00
    6    8   18    -18.65      0.00
    8    8   18     27.93      0.00
    1    9   18    -17.14      0.00
    3    9   18     -1.93      0.00
    5    9   18     -3.44      0.00
    7    9   18     -8.08      0.00
    9    9   18     -4.06      0.00
    0   10   18     -3.63      0.00
    2   10   18    -24.68      0.00
    4   10   18      6.68      0.00
    6   10   18    -14.32      0.00
    8   10   18     -0.08      0.00
   10   10   18      2.58      0.00
    1   11   18     14.95      0.00
    3   11   18     16.45      0.00
    5   11   18      7.58      0.00
    7   11   18     17.06      0.00
    9   11   18      1.22      0.00
   11   11   18     30.14      0.00
    0   12   18     17.76      0.00
    2   12   18     -0.60      0.00
    4   12   18      3.15      0.00
    6   12   18     -2.53      0.00
    8   12   18      5.67      0.00
   10   12   18     -6.87      0.00
   12   12   18      5.62      0.00
    1   13   18    -14.64      0.00
    3   13   18    -13.35      0.00
    5   13   18      8.13      0.00
    7   13   18      0.44      0.00
    9   13   18      2.80      0.00
   11   13   18     -9.55      0.00
   13   13   18     -3.60      0.00
    0   14   18     13.18      0.00
    2   14   18    -14.14      0.00
    4   14   18     -3.72      0.00
    6   14   18      0.49      0.00
    8   14   18      0.03      0.00
   10   14   18     -3.21      0.00
   12   14   18     -0.51      0.00
   14   14   18     -4.69      0.00
    1   15   18     17.95      0.00
    3   15   18     20.77      0.00
    5   15   18     -2.01      0.00
    7   15   18      8.74      0.00
    9   15   18    -12.29      0.00
   11   15   18     23.46      0.00
   13   15   18     -8.78      0.00
   15   15   18     28.14      0.00
    0   16   18     -7.82      0.00
    2   16   18    -10.66      0.00
    4   16   18      6.88      0.00
    6   16   18     -2.24      0.00
    8   16   18      2.36      0.00
   10   16   18      0.10      0.00
   12   16   18     10.14      0.00
   14   16   18     -7.84      0.00
   16   16   18      8.32      0.00
    1   17   18    -11.31      0.00
    3   17   18      5.22      0.00
    5   17   18    -13.44      0.00
    7   17   18      8.04      0.00
    9   17   18     -6.00      0.00
   11   17   18      5.02      0.00
   13   17   18    -13.02      0.00
   15   17   18      5.42      0.00
   17   17   18    -19.70      0.00
    0   18   18     40.36      0.00
    2   18   18    -22.78      0.00
    4   18   18     12.58      0.00
    6   18   18    -13.69      0.00
    8   18   18     13.37      0.00
   10   18   18     -4.41      0.00
   12   18   18     -0.39      0.00
   14   18   18      0.41      0.00
   16   18   18      6.27      0.00
   18   18   18      3.44      0.00
    0    1   19     21.24      0.00
    1    2   19     -2.02      0.00
    0    3   19     14.81      0.00
    2    3   19      9.23      0.00
    1    4   19      4.91      0.00
    3    4   19     11.84      0.00
    0    5   19     32.20      0.00
    2    5   19    -25.39      0.00
    4    5   19      4.83      0.00
    1    6   19     -1.21      0.00
    3    6   19      6.66      0.00
    5    6   19    -12.16      0.00
    0    7   19     31.39      0.00
    2    7   19     -1.76      0.00
    4    7   19     27.08      0.00
    6    7   19     -5.05      0.00
    1    8   19      3.68      0.00
    3    8   19     13.12      0.00
    5    8   19      7.11      0.00
    7    8   19     25.63      0.00
    0    9   19     21.84      0.00
    2    9   19    -21.15      0.00
    4    9   19     15.32      0.00
    6    9   19    -13.78      0.00
    8    9   19     13.87      0.00
    1   10   19      2.13      0.00
    3   10   19     -4.24      0.00
    5   10   19     -0.07      0.00
    7   10   19      2.53      0.00
    9   10   19    -15.67      0.00
    0   11   19      7.45      0.00
    2   11   19     -3.65      0.00
    4   11   19     21.29      0.00
    6   11   19      1.16      0.00
    8   11   19     18.47      0.00
   10   11   19      9.19      0.00
    1   12   19      9.45      0.00
    3   12   19     17.14      0.00
    5   12   19      7.71      0.00
    7   12   19     14.65      0.00
    9   12   19     -4.55      0.00
   11   12   19     11.33      0.00
    0   13   19     -6.56      0.00
    2   13   19     -5.51      0.00
    4   13   19      7.70      0.00
    6   13   19    -13.73      0.00
    8   13   19      0.40      0.00
   10   13   19     -5.41      0.00
   12   13   19      4.55      0.00
    1   14   19      3.82      0.00
    3   14   19      8.51      0.00
    5   14   19     -5.52      0.00
    7   14   19     15.37      0.00
    9   14   19      2.80      0.00
   11   14   19      2.80      0.00
   13   14   19      2.23      0.00
    0   15   19     23.85      0.00
    2   15   19      8.49      0.00
    4   15   19     16.83      0.00
    6   15   19      0.72      0.00
    8   15   19     23.92      0.00
   10   15   19     10.47      0.00
   12   15   19      7.39      0.00
   14   15   19      1.40      0.00
    1   16   19      3.01      0.00
    3   16   19      1.08      0.00
    5   16   19    -11.89      0.00
    7   16   19     12.31      0.00
    9   16   19      0.01      0.00
   11   16   19     11.08      0.00
   13   16   19     -3.73      0.00
   15   16   19     17.10      0.00
    0   17   19     10.96      0.00
    2   17   19    -10.96      0.00
    4   17   19     15.52      0.00
    6   17   19     -3.86      0.00
    8   17   19      4.14      0.00
   10   17   19     -9.24      0.00
   12   17   19     -2.38      0.00
   14   17   19      0.09      0.00
   16   17   19      3.77      0.00
    1   18   19      9.54      0.00
    3   18   19     18.51      0.00
    5   18   19     -2.97      0.00
    7   18   19     16.71      0.00
    9   18   19     -0.88      0.00
   11   18   19      2.10      0.00
   13   18   19     -3.45      0.00
   15   18   19     13.20      0.00
   17   18   19     -1.39      0.00
    0   19   19     33.97      0.00
    2   19   19    -10.85      0.00
    4   19   19     17.95      0.00
    6   19   19     -7.55      0.00
    8   19   19     14.75      0.00
   10   19   19      9.57      0.00
   12   19   19      8.54      0.00
   14   19   19      3.93      0.00
   16   19   19      5.05      0.00
   18   19   19     14.93      0.00
    0    0   20     74.59      0.00
    1    1   20    -12.58      0.00
    0    2   20    -23.97      0.00
    2    2   20     -6.29      0.00
    1    3   20     -9.16      0.00
    3    3   20     26.05      0.00
    0    4   20     51.61      0.00
    2    4   20    -28.26      0.00
    4    4   20     51.76      0.00
    1    5   20    -18.89      0.00
    3    5   20    -14.66      0.00
    5    5   20     -5.55      0.00
    0    6   20      8.15      0.00
    2    6   20    -27.48      0.00
    4    6   20     -8.64      0.00
    6    6   20    -17.53      0.00
    1    7   20      3.59      0.00
    3    7   20      8.77      0.00
    5    7   20      8.15      0.00
    7    7   20    -11.23      0.00
    0    8   20      1.24      0.00
    2    8   20      0.50      0.00
    4    8   20     14.02      0.00
    6    8   20      4.14      0.00
    8    8   20    -16.00      0.00
    1    9   20     -7.38      0.00
    3    9   20    -17.67      0.00
    5    9   20    -10.67      0.00
    7    9   20     -0.14      0.00
    9    9   20    -16.84      0.00
    0   10   20      2.82      0.00
    2   10   20     -2.52      0.00
    4   10   20     -6.26      0.00
    6   10   20     -8.31      0.00
    8   10   20      0.70      0.00
   10   10   20     -2.87      0.00
    1   11   20      0.92      0.00
    3   11   20     10.78      0.00
    5   11   20      2.74      0.00
    7   11   20     10.82      0.00
    9   11   20     -1.68      0.00
   11   11   20     15.62      0.00
    0   12   20      7.38      0.00
    2   12   20    -14.76      0.00
    4   12   20      2.39      0.00
    6   12   20     -2.12      0.00
    8   12   20      7.31      0.00
   10   12   20      7.00      0.00
   12   12   20      3.61      0.00
    1   13   20     -5.14      0.00
    3   13   20     -1.37      0.00
    5   13   20    -24.22      0.00
    7   13   20      2.64      0.00
    9   13   20    -18.49      0.00
   11   13   20     -5.94      0.00
   13   13   20    -14.16      0.00
    0   14   20     42.78      0.00
    2   14   20     -9.43      0.00
    4   14   20     14.05      0.00
    6   14   20    -12.31      0.00
    8   14   20      4.33      0.00
   10   14   20    -13.25      0.00
   12   14   20     -1.83      0.00
   14   14   20    -18.99      0.00
    1   15   20     -4.80      0.00
    3   15   20     -2.49      0.00
    5   15   20     -9.16      0.00
    7   15   20      4.41      0.00
    9   15   20     -4.85      0.00
   11   15   20     17.86      0.00
   13   15   20      5.49      0.00
   15   15   20     15.30      0.00
    0   16   20     19.21      0.00
    2   16   20     -9.55      0.00
    4   16   20      3.52      0.00
    6   16   20     -4.70      0.00
    8   16   20      7.46      0.00
   10   16   20     -4.61      0.00
   12   16   20      6.39      0.00
   14   16   20     -4.97      0.00
   16   16   20      0.04      0.00
    1   17   20     -4.62      0.00
    3   17   20      3.83      0.00
    5   17   20      3.77      0.00
    7   17   20     -3.71      0.00
    9   17   20     -9.58      0.00
   11   17   20     -4.92      0.00
   13   17   20     -8.50      0.00
   15   17   20     -3.93      0.00
   17   17   20     -4.29      0.00
    0   18   20      8.18      0.00
    2   18   20    -14.83      0.00
    4   18   20      6.80      0.00
    6   18   20     -3.31      0.00
    8   18   20     -2.87      0.00
   10   18   20     -2.79      0.00
   12   18   20      0.16      0.00
   14   18   20     -5.88      0.00
   16   18   20     -3.53      0.00
   18   18   20     -7.76      0.00
    1   19   20     -3.84      0.00
    3   19   20     15.46      0.00
    5   19   20     -2.04      0.00
    7   19   20      7.19      0.00
    9   19   20     -3.93      0.00
   11   19   20      7.98      0.00
   13   19   20      6.28      0.00
   15   19   20     10.81      0.00
   17   19   20     -0.34      0.00
   19   19   20    -10.10      0.00
    0   20   20     29.26      0.00
    2   20   20     -5.20      0.00
    4   20   20      8.38      0.00
    6   20   20    -12.66      0.00
    8   20   20      7.02      0.00
   10   20   20     -2.64      0.00
   12   20   20    -16.20      0.00
   14   20   20    -12.94      0.00
   16   20   20     -3.86      0.00
   18   20   20     -2.79      0.00
   20   20   20    -17.00      0.00
    0    1   21      3.52      0.00
    1    2   21    -32.18      0.00
    0    3   21    -10.73      0.00
    2    3   21      5.09      0.00
    1    4   21     20.58      0.00
    3    4   21     -2.33      0.00
    0    5   21     28.07      0.00
    2    5   21    -36.50      0.00
    4    5   21     10.15      0.00
    1    6   21    -19.88      0.00
    3    6   21    -12.59      0.00
    5    6   21    -13.56      0.00
    0    7   21     -7.22      0.00
    2    7   21     13.31      0.00
    4    7   21      6.71      0.00
    6    7   21      5.27      0.00
    1    8   21      0.34      0.00
    3    8   21     13.84      0.00
    5    8   21     -4.93      0.00
    7    8   21      7.53      0.00
    0    9   21     -0.11      0.00
    2    9   21    -18.54      0.00
    4    9   21      2.23      0.00
    6    9   21    -13.74      0.00
    8    9   21    -13.24      0.00
    1   10   21    -14.99      0.00
    3   10   21    -13.28      0.00
    5   10   21    -19.58      0.00
    7   10   21      1.98      0.00
    9   10   21    -15.15      0.00
    0   11   21      7.46      0.00
    2   11   21      0.62      0.00
    4   11   21     11.20      0.00
    6   11   21    -10.78      0.00
    8   11   21     -0.57      0.00
   10   11   21     -7.06      0.00
    1   12   21      0.71      0.00
    3   12   21      4.61      0.00
    5   12   21     -2.24      0.00
    7   12   21     -4.01      0.00
    9   12   21     -8.03      0.00
   11   12   21      4.56      0.00
    0   13   21     -7.03      0.00
    2   13   21    -19.42      0.00
    4   13   21      9.07      0.00
    6   13   21     -9.67      0.00
    8   13   21      2.26      0.00
   10   13   21     -7.70      0.00
   12   13   21     -9.37      0.00
    1   14   21     -4.25      0.00
    3   14   21     -3.49      0.00
    5   14   21     -2.40      0.00
    7   14   21      7.45      0.00
    9   14   21    -10.32      0.00
   11   14   21      5.88      0.00
   13   14   21     -9.55      0.00
    0   15   21      8.06      0.00
    2   15   21    -10.19      0.00
    4   15   21     12.74      0.00
    6   15   21    -12.84      0.00
    8   15   21      6.36      0.00
   10   15   21    -11.88      0.00
   12   15   21      7.63      0.00
   14   15   21     11.68      0.00
    1   16   21     -7.56      0.00
    3   16   21    -15.38      0.00
    5   16   21    -12.28      0.00
    7   16   21      5.48      0.00
    9   16   21     -9.83      0.00
   11   16   21      5.45      0.00
   13   16   21    -13.05      0.00
   15   16   21      0.91      0.00
    0   17   21     -3.01      0.00
    2   17   21    -21.93      0.00
    4   17   21     -0.20      0.00
    6   17   21    -14.86      0.00
    8   17   21     -7.06      0.00
   10   17   21    -14.13      0.00
   12   17   21     -8.31      0.00
   14   17   21     -5.24      0.00
   16   17   21     -6.81      0.00
    1   18   21      2.84      0.00
    3   18   21     -4.59      0.00
    5   18   21     -5.83      0.00
    7   18   21    -10.10      0.00
    9   18   21     -8.57      0.00
   11   18   21      1.90      0.00
   13   18   21     -6.93      0.00
   15   18   21      3.51      0.00
   17   18   21     -2.60      0.00
    0   19   21      2.29      0.00
    2   19   21     -9.99      0.00
    4   19   21      7.38      0.00
    6   19   21     -7.68      0.00
    8   19   21     -0.03      0.00
   10   19   21      0.19      0.00
   12   19   21      1.72      0.00
   14   19   21    -11.52      0.00
   16   19   21      4.10      0.00
   18   19   21      1.37      0.00
    1   20   21     -8.04      0.00
    3   20   21      1.41      0.00
    5   20   21    -11.75      0.00
    7   20   21     -0.99      0.00
    9   20   21     -4.82      0.00
   11   20   21      0.46      0.00
   13   20   21     -4.44      0.00
   15   20   21      0.98      0.00
   17   20   21      1.26      0.00
   19   20   21     -4.88      0.00
    0   21   21      7.52      0.00
    2   21   21    -14.41      0.00
    4   21   21      4.15      0.00
    6   21   21    -14.73      0.00
    8   21   21     -3.30      0.00
   10   21   21     -5.08      0.00
   12   21   21     -4.48      0.00
   14   21   21     -7.96      0.00
   16   21   21     -2.99      0.00
   18   21   21    -10.72      0.00
   20   21   21     -7.59      0.00
    0    0   22     31.40      0.00
    1    1   22      2.81      0.00
    0    2   22     -4.09      0.00
    2    2   22     -3.94      0.00
    1    3   22      0.41      0.00
    3    3   22     -2.14      0.00
    0    4   22     14.28      0.00
    2    4   22      7.55      0.00
    4    4   22     -2.30      0.00
    1    5   22      4.54      0.00
    3    5   22      7.18      0.00
    5    5   22     -6.01      0.00
    0    6   22     17.57      0.00
    2    6   22    -17.66      0.00
    4    6   22     22.83      0.00
    6    6   22    -13.47      0.00
    1    7   22      2.80      0.00
    3    7   22     10.62      0.00
    5    7   22     -2.62      0.00
    7    7   22     21.87      0.00
    0    8   22     16.24      0.00
    2    8   22     -7.51      0.00
    4    8   22      4.18      0.00
    6    8   22      6.83      0.00
    8    8   22      3.80      0.00
    1    9   22     -3.69      0.00
    3    9   22     16.12      0.00
    5    9   22    -16.92      0.00
    7    9   22     10.73      0.00
    9    9   22    -27.65      0.00
    0   10   22     20.08      0.00
    2   10   22    -30.36      0.00
    4   10   22     29.98      0.00
    6   10   22    -16.37      0.00
    8   10   22      7.79      0.00
   10   10   22    -24.71      0.00
    1   11   22      5.15      0.00
    3   11   22      2.58      0.00
    5   11   22     11.87      0.00
    7   11   22     -0.48      0.00
    9   11   22      9.58      0.00
   11   11   22     -9.58      0.00
    0   12   22     23.71      0.00
    2   12   22      2.52      0.00
    4   12   22      5.80      0.00
    6   12   22     10.28      0.00
    8   12   22      5.35      0.00
   10   12   22      5.02      0.00
   12   12   22      7.64      0.00
    1   13   22     -3.61      0.00
    3   13   22     -7.15      0.00
    5   13   22    -11.07      0.00
    7   13   22     10.12      0.00
    9   13   22    -12.39      0.00
   11   13   22      5.34      0.00
   13   13   22     -8.05      0.00
    0   14   22      7.77      0.00
    2   14   22    -13.48      0.00
    4   14   22     -2.17      0.00
    6   14   22     -1.31      0.00
    8   14   22     -0.88      0.00
   10   14   22     -6.12      0.00
   12   14   22      0.56      0.00
   14   14   22     -7.75      0.00
    1   15   22      7.41      0.00
    3   15   22     12.37      0.00
    5   15   22      7.66      0.00
    7   15   22     12.98      0.00
    9   15   22      1.04      0.00
   11   15   22      9.47      0.00
   13   15   22     -5.20      0.00
   15   15   22      7.50      0.00
    0   16   22     16.63      0.00
    2   16   22     -8.99      0.00
    4   16   22     14.82      0.00
    6   16   22     -6.81      0.00
    8   16   22      9.58      0.00
   10   16   22      6.30      0.00
   12   16   22      5.74      0.00
   14   16   22      8.83      0.00
   16   16   22      2.31      0.00
    1   17   22    -13.53      0.00
    3   17   22      2.93      0.00
    5   17   22     -9.09      0.00
    7   17   22      2.03      0.00
    9   17   22     -4.36      0.00
   11   17   22     11.21      0.00
   13   17   22    -14.34      0.00
   15   17   22      7.70      0.00
   17   17   22     -8.35      0.00
    0   18   22      8.20      0.00
    2   18   22     -5.69      0.00
    4   18   22      9.39      0.00
    6   18   22      0.58      0.00
    8   18   22     12.36      0.00
   10   18   22      1.52      0.00
   12   18   22      2.31      0.00
   14   18   22      7.49      0.00
   16   18   22      8.35      0.00
   18   18   22     -2.10      0.00
    1   19   22    -12.03      0.00
    3   19   22      1.42      0.00
    5   19   22      0.45      0.00
    7   19   22      3.79      0.00
    9   19   22      1.47      0.00
   11   19   22      0.77      0.00
   13   19   22     -6.88      0.00
   15   19   22      1.86      0.00
   17   19   22     -9.95      0.00
   19   19   22      2.64      0.00
    0   20   22      7.10      0.00
    2   20   22    -14.14      0.00
    4   20   22      4.73      0.00
    6   20   22    -12.24      0.00
    8   20   22      9.93      0.00
   10   20   22     -3.20      0.00
   12   20   22     -0.25      0.00
   14   20   22     -9.66      0.00
   16   20   22     -2.20      0.00
   18   20   22      3.66      0.00
   20   20   22      5.01      0.00
    1   21   22    -12.21      0.00
    3   21   22     -3.68      0.00
    5   21   22     -2.09      0.00
    7   21   22      1.32      0.00
    9   21   22      0.52      0.00
   11   21   22     -5.24      0.00
   13   21   22     -1.19      0.00
   15   21   22      5.24      0.00
   17   21   22     -8.96      0.00
   19   21   22      0.18      0.00
   21   21   22     -4.00      0.00
    0   22   22     15.90      0.00
    2   22   22      3.91      0.00
    4   22   22      0.63      0.00
    6   22   22      6.52      0.00
    8   22   22      5.05      0.00
   10   22   22      9.63      0.00
   12   22   22     -6.30      0.00
   14   22   22      3.88      0.00
   16   22   22     17.84      0.00
   18   22   22      6.78      0.00
   20   22   22      2.09      0.00
   22   22   22      8.70      0.00
    0    1   23     20.65      0.00
    1    2   23     -0.59      0.00
    0    3   23     13.38      0.00
    2    3   23      4.09      0.00
    1    4   23      6.94      0.00
    3    4   23      5.11      0.00
    0    5   23     20.83      0.00
    2    5   23    -23.61      0.00
    4    5   23      9.35      0.00
    1    6   23     -1.04      0.00
    3    6   23     -3.01      0.00
    5    6   23    -13.05      0.00
    0    7   23      3.12      0.00
    2    7   23      1.48      0.00
    4    7   23      8.49      0.00
    6    7   23     -0.92      0.00
    1    8   23      5.47      0.00
    3    8   23      7.20      0.00
    5    8   23     10.21      0.00
    7    8   23     28.92      0.00
    0    9   23     14.75      0.00
    2    9   23     -6.65      0.00
    4    9   23     -2.62      0.00
    6    9   23    -11.48      0.00
    8    9   23      3.76      0.00
    1   10   23      5.90      0.00
    3   10   23     -0.09      0.00
    5   10   23     -7.13      0.00
    7   10   23    -12.34      0.00
    9   10   23     -7.38      0.00
    0   11   23     17.25      0.00
    2   11   23     -6.67      0.00
    4   11   23     21.37      0.00
    6   11   23     -1.59      0.00
    8   11   23     15.87      0.00
   10   11   23      2.19      0.00
    1   12   23     -4.22      0.00
    3   12   23      3.54      0.00
    5   12   23     -1.78      0.00
    7   12   23      8.68      0.00
    9   12   23      1.07      0.00
   11   12   23     13.70      0.00
    0   13   23     14.21      0.00
    2   13   23     -3.27      0.00
    4   13   23      0.99      0.00
    6   13   23     -5.42      0.00
    8   13   23     -0.56      0.00
   10   13   23      9.90      0.00
   12   13   23      1.05      0.00
    1   14   23      7.49      0.00
    3   14   23     11.49      0.00
    5   14   23      0.31      0.00
    7   14   23     20.08      0.00
    9   14   23     -6.90      0.00
   11   14   23      8.58      0.00
   13   14   23    -14.12      0.00
    0   15   23     14.52      0.00
    2   15   23     -7.23      0.00
    4   15   23     24.80      0.00
    6   15   23      3.41      0.00
    8   15   23      7.50      0.00
   10   15   23      5.78      0.00
   12   15   23      2.55      0.00
   14   15   23      4.16      0.00
    1   16   23     11.50      0.00
    3   16   23      0.51      0.00
    5   16   23     -2.20      0.00
    7   16   23     10.03      0.00
    9   16   23      0.62      0.00
   11   16   23     -2.56      0.00
   13   16   23      6.82      0.00
   15   16   23      4.89      0.00
    0   17   23     19.41      0.00
    2   17   23     -7.38      0.00
    4   17   23     11.63      0.00
    6   17   23     -3.11      0.00
    8   17   23     -3.82      0.00
   10   17   23     -2.07      0.00
   12   17   23     -3.24      0.00
   14   17   23     -0.31      0.00
   16   17   23      1.29      0.00
    1   18   23      4.01      0.00
    3   18   23     -1.34      0.00
    5   18   23     -0.93      0.00
    7   18   23      6.60      0.00
    9   18   23     -2.75      0.00
   11   18   23      7.46      0.00
   13   18   23    -18.06      0.00
   15   18   23      2.96      0.00
   17   18   23     -4.77      0.00
    0   19   23      9.34      0.00
    2   19   23      2.23      0.00
    4   19   23     18.88      0.00
    6   19   23      4.60      0.00
    8   19   23      8.83      0.00
   10   19   23      7.44      0.00
   12   19   23     11.00      0.00
   14   19   23      3.08      0.00
   16   19   23      4.66      0.00
   18   19   23      6.00      0.00
    1   20   23      7.51      0.00
    3   20   23     10.48      0.00
    5   20   23     -1.94      0.00
    7   20   23      7.03      0.00
    9   20   23      4.10      0.00
   11   20   23      6.27      0.00
   13   20   23     -9.78      0.00
   15   20   23     -2.72      0.00
   17   20   23      8.84      0.00
   19   20   23      0.64      0.00
    0   21   23     13.98      0.00
    2   21   23     -7.52      0.00
    4   21   23      9.07      0.00
    6   21   23     -6.43      0.00
    8   21   23     -0.16      0.00
   10   21   23     -1.34      0.00
   12   21   23      1.70      0.00
   14   21   23     -5.32      0.00
   16   21   23      0.44      0.00
   18   21   23      6.34      0.00
   20   21   23     -0.47      0.00
    1   22   23      4.74      0.00
    3   22   23      1.53      0.00
    5   22   23     -6.94      0.00
    7   22   23     12.67      0.00
    9   22   23     17.18      0.00
   11   22   23     10.03      0.00
   13   22   23     -0.27      0.00
   15   22   23      8.73      0.00
   17   22   23      3.87      0.00
   19   22   23     10.08      0.00
   21   22   23      3.68      0.00
    0   23   23     12.31      0.00
    2   23   23     -2.96      0.00
    4   23   23      2.24      0.00
    6   23   23     -0.25      0.00
    8   23   23     -4.80      0.00
   10   23   23      6.50      0.00
   12   23   23      4.48      0.00
   14   23   23     -1.66      0.00
   16   23   23      5.38      0.00
   18   23   23      3.48      0.00
   20   23   23     -5.17      0.00
   22   23   23      9.04      0.00
    0    0   24     12.79      0.00
    1    1   24     -0.02      0.00
    0    2   24      7.17      0.00
    2    2   24    -28.90      0.00
    1    3   24      4.76      0.00
    3    3   24     13.59      0.00
    0    4   24     10.73      0.00
    2    4   24     -5.00      0.00
    4    4   24     24.17      0.00
    1    5   24     -2.55      0.00
    3    5   24     -5.21      0.00
    5    5   24    -11.32      0.00
    0    6   24      8.59      0.00
    2    6   24    -27.20      0.00
    4    6   24     -2.68      0.00
    6    6   24    -25.03      0.00
    1    7   24      1.53      0.00
    3    7   24      3.59      0.00
    5    7   24      2.29      0.00
    7    7   24      4.99      0.00
    0    8   24      2.07      0.00
    2    8   24      9.47      0.00
    4    8   24      4.18      0.00
    6    8   24      8.08      0.00
    8    8   24    -12.90      0.00
    1    9   24     -6.77      0.00
    3    9   24     -6.14      0.00
    5    9   24     -7.89      0.00
    7    9   24     -4.85      0.00
    9    9   24     -8.23      0.00
    0   10   24     11.15      0.00
    2   10   24    -12.89      0.00
    4   10   24    -10.29      0.00
    6   10   24     -2.89      0.00
    8   10   24      2.59      0.00
   10   10   24     -5.10      0.00
    1   11   24      9.77      0.00
    3   11   24      1.71      0.00
    5   11   24      6.78      0.00
    7   11   24     11.26      0.00
    9   11   24      3.01      0.00
   11   11   24     19.46      0.00
    0   12   24      7.79      0.00
    2   12   24     -3.88      0.00
    4   12   24     10.26      0.00
    6   12   24     10.55      0.00
    8   12   24     -0.93      0.00
   10   12   24     -8.14      0.00
   12   12   24      8.82      0.00
    1   13   24    -10.27      0.00
    3   13   24     -5.17      0.00
    5   13   24     -9.24      0.00
    7   13   24     15.24      0.00
    9   13   24     -3.74      0.00
   11   13   24      4.09      0.00
   13   13   24    -15.29      0.00
    0   14   24      6.69      0.00
    2   14   24     -9.18      0.00
    4   14   24      2.30      0.00
    6   14   24    -18.65      0.00
    8   14   24     -1.22      0.00
   10   14   24     -7.78      0.00
   12   14   24      0.66      0.00
   14   14   24    -17.48      0.00
    1   15   24     -0.11      0.00
    3   15   24     11.10      0.00
    5   15   24      2.04      0.00
    7   15   24      0.52      0.00
    9   15   24     -1.62      0.00
   11   15   24      2.08      0.00
   13   15   24     -2.50      0.00
   15   15   24     -3.91      0.00
    0   16   24      0.25      0.00
    2   16   24    -14.05      0.00
    4   16   24      1.59      0.00
    6   16   24     -3.36      0.00
    8   16   24      4.72      0.00
   10   16   24     -9.02      0.00
   12   16   24      0.66      0.00
   14   16   24     -2.28      0.00
   16   16   24      3.59      0.00
    1   17   24      7.46      0.00
    3   17   24      0.26      0.00
    5   17   24     -5.58      0.00
    7   17   24     -3.15      0.00
    9   17   24     -7.19      0.00
   11   17   24      0.54      0.00
   13   17   24    -11.47      0.00
   15   17   24     -8.39      0.00
   17   17   24      1.12      0.00
    0   18   24     11.10      0.00
    2   18   24      0.13      0.00
    4   18   24      1.99      0.00
    6   18   24     -0.31      0.00
    8   18   24     -0.59      0.00
   10   18   24     -8.27      0.00
   12   18   24      1.23      0.00
   14   18   24     13.52      0.00
   16   18   24      4.41      0.00
   18   18   24     -6.15      0.00
    1   19   24     -2.78      0.00
    3   19   24      1.70      0.00
    5   19   24      1.88      0.00
    7   19   24      3.77      0.00
    9   19   24     -1.55      0.00
   11   19   24      1.86      0.00
   13   19   24      1.68      0.00
   15   19   24      9.97      0.00
   17   19   24     -4.95      0.00
   19   19   24      1.01      0.00
    0   20   24      5.73      0.00
    2   20   24     -9.67      0.00
    4   20   24      1.50      0.00
    6   20   24     -9.26      0.00
    8   20   24      2.17      0.00
   10   20   24     -7.33      0.00
   12   20   24     -5.75      0.00
   14   20   24     -2.36      0.00
   16   20   24     -4.38      0.00
   18   20   24      3.71      0.00
   20   20   24     -0.26      0.00
    1   21   24      0.26      0.00
    3   21   24      5.62      0.00
    5   21   24     -9.82      0.00
    7   21   24      3.45      0.00
    9   21   24     -9.43      0.00
   11   21   24      2.06      0.00
   13   21   24    -18.01      0.00
   15   21   24     -0.84      0.00
   17   21   24     -1.28      0.00
   19   21   24     -4.40      0.00
   21   21   24     -5.38      0.00
    0   22   24     10.99      0.00
    2   22   24    -13.21      0.00
    4   22   24      9.87      0.00
    6   22   24     -1.29      0.00
    8   22   24     -3.14      0.00
   10   22   24      3.80      0.00
   12   22   24      4.91      0.00
   14   22   24      2.01      0.00
   16   22   24     10.73      0.00
   18   22   24      4.72      0.00
   20   22   24     -1.14      0.00
   22   22   24      2.48      0.00
    1   23   24      4.90      0.00
    3   23   24     16.80      0.00
    5   23   24    -11.65      0.00
    7   23   24      0.34      0.00
    9   23   24      6.75      0.00
   11   23   24      0.19      0.00
   13   23   24     -7.89      0.00
   15   23   24      1.94      0.00
   17   23   24      5.58      0.00
   19   23   24      9.82      0.00
   21   23   24    -13.15      0.00
   23   23   24      3.08      0.00
    0   24   24     24.55      0.00
    2   24   24      0.66      0.00
    4   24   24      8.27      0.00
    6   24   24     -9.67      0.00
    8   24   24     -6.83      0.00
   10   24   24     -2.93      0.00
   12   24   24     -1.92      0.00
   14   24   24     -6.14      0.00
   16   24   24      4.08      0.00
   18   24   24     -1.62      0.00
   20   24   24     -5.79      0.00
   22   24   24    -11.66      0.00
    0    1   25     -0.84      0.00
    1    2   25    -12.86      0.00
    0    3   25      6.89      0.00
    2    3   25     -7.73      0.00
    1    4   25      4.97      0.00
    3    4   25      7.37      0.00
    0    5   25      4.64      0.00
    2    5   25    -10.79      0.00
    4    5   25      0.33      0.00
    1    6   25     -7.70      0.00
    3    6   25    -12.33      0.00
    5    6   25     -1.33      0.00
    0    7   25     19.79      0.00
    2    7   25     -7.02      0.00
    4    7   25     15.10      0.00
    6    7   25     -6.24      0.00
    1    8   25      2.93      0.00
    3    8   25     11.19      0.00
    5    8   25      3.41      0.00
    7    8   25     13.49      0.00
    0    9   25     -1.91      0.00
    2    9   25     -8.66      0.00
    4    9   25     -0.65      0.00
    6    9   25     -9.88      0.00
    8    9   25     -8.45      0.00
    1   10   25      0.27      0.00
    3   10   25    -11.34      0.00
    5   10   25    -10.52      0.00
    7   10   25     -2.09      0.00
    9   10   25     -2.97      0.00
    0   11   25     15.89      0.00
    2   11   25     -3.85      0.00
    4   11   25      7.27      0.00
    6   11   25     -6.97      0.00
    8   11   25     13.98      0.00
   10   11   25      2.82      0.00
    1   12   25     -4.01      0.00
    3   12   25      2.65      0.00
    5   12   25     -4.62      0.00
    7   12   25      1.36      0.00
    9   12   25     -7.81      0.00
   11   12   25     -0.16      0.00
    0   13   25    -13.40      0.00
    2   13   25    -10.51      0.00
    4   13   25     -4.80      0.00
    6   13   25    -10.94      0.00
    8   13   25     -8.94      0.00
   10   13   25     -1.18      0.00
   12   13   25     -3.14      0.00
    1   14   25     -4.60      0.00
    3   14   25     -3.63      0.00
    5   14   25     -2.24      0.00
    7   14   25      8.53      0.00
    9   14   25      3.81      0.00
   11   14   25     -8.16      0.00
   13   14   25     -4.37      0.00
    0   15   25      5.07      0.00
    2   15   25     -8.24      0.00
    4   15   25      4.19      0.00
    6   15   25     -8.85      0.00
    8   15   25      3.66      0.00
   10   15   25     -0.26      0.00
   12   15   25      8.94      0.00
   14   15   25      3.44      0.00
    1   16   25      4.93      0.00
    3   16   25     -2.12      0.00
    5   16   25     -6.42      0.00
    7   16   25      9.47      0.00
    9   16   25     -4.93      0.00
   11   16   25      1.51      0.00
   13   16   25     11.02      0.00
   15   16   25     -1.45      0.00
    0   17   25     -2.29      0.00
    2   17   25    -21.72      0.00
    4   17   25     -4.91      0.00
    6   17   25     -0.23      0.00
    8   17   25     -7.05      0.00
   10   17   25     -3.31      0.00
   12   17   25      7.38      0.00
   14   17   25    -20.36      0.00
   16   17   25     -3.70      0.00
    1   18   25      0.11      0.00
    3   18   25     -2.11      0.00
    5   18   25    -11.51      0.00
    7   18   25     -5.89      0.00
    9   18   25    -11.43      0.00
   11   18   25     10.07      0.00
   13   18   25    -10.83      0.00
   15   18   25     14.06      0.00
   17   18   25     -3.30      0.00
    0   19   25      9.02      0.00
    2   19   25     -6.67      0.00
    4   19   25      0.69      0.00
    6   19   25      0.22      0.00
    8   19   25      6.41      0.00
   10   19   25      3.54      0.00
   12   19   25      4.33      0.00
   14   19   25     -3.32      0.00
   16   19   25      2.24      0.00
   18   19   25      1.49      0.00
    1   20   25     -5.38      0.00
    3   20   25     -3.44      0.00
    5   20   25     -3.53      0.00
    7   20   25     -1.99      0.00
    9   20   25      5.68      0.00
   11   20   25      0.11      0.00
   13   20   25     -4.93      0.00
   15   20   25     -4.27      0.00
   17   20   25    -13.09      0.00
   19   20   25     -8.11      0.00
    0   21   25      5.09      0.00
    2   21   25     -9.93      0.00
    4   21   25     -2.49      0.00
    6   21   25     -3.38      0.00
    8   21   25     -3.46      0.00
   10   21   25    -11.51      0.00
   12   21   25      4.76      0.00
   14   21   25      6.89      0.00
   16   21   25      5.85      0.00
   18   21   25     -6.41      0.00
   20   21   25    -14.04      0.00
    1   22   25      5.56      0.00
    3   22   25     -0.72      0.00
    5   22   25     -0.37      0.00
    7   22   25      8.23      0.00
    9   22   25    -11.78      0.00
   11   22   25     -1.25      0.00
   13   22   25      6.56      0.00
   15   22   25     18.90      0.00
   17   22   25     -4.72      0.00
   19   22   25      4.78      0.00
   21   22   25      2.86      0.00
    0   23   25      8.68      0.00
    2   23   25     -9.49      0.00
    4   23   25     -0.61      0.00
    6   23   25      2.62      0.00
    8   23   25      5.69      0.00
   10   23   25     -0.94      0.00
   12   23   25      1.32      0.00
   14   23   25      2.55      0.00
   16   23   25      5.59      0.00
   18   23   25      2.41      0.00
   20   23   25     -1.27      0.00
   22   23   25      9.21      0.00
    1   24   25      3.43      0.00
    3   24   25     -0.04      0.00
    5   24   25    -17.30      0.00
    7   24   25      3.63      0.00
    9   24   25     -5.23      0.00
   11   24   25     -4.28      0.00
   13   24   25      6.24      0.00
   15   24   25      7.13      0.00
   17   24   25     -9.39      0.00
   19   24   25      0.45      0.00
   21   24   25      0.35      0.00
   23   24   25     -0.94      0.00
    0   25   25     12.71      0.00
    2   25   25     -6.91      0.00
    4   25   25      1.30      0.00
    6   25   25     12.64      0.00
    8   25   25      4.46      0.00
   10   25   25     -8.07      0.00
   12   25   25      1.00      0.00
   14   25   25     15.99      0.00
   16   25   25      8.39      0.00
   18   25   25    -11.21      0.00
   20   25   25     -3.90      0.00
   22   25   25      3.62      0.00
    0    0   26     45.01      0.00
    1    1   26     -2.59      0.00
    0    2   26     12.12      0.00
    2    2   26    -18.70      0.00
    1    3   26     -1.90      0.00
    3    3   26      6.18      0.00
    0    4   26     17.70      0.00
    2    4   26    -11.14      0.00
    4    4   26     10.14      0.00
    1    5   26     -3.25      0.00
    3    5   26     -3.15      0.00
    5    5   26     -1.45      0.00
    0    6   26     13.55      0.00
    2    6   26     -8.92      0.00
    4    6   26      1.30      0.00
    6    6   26     -2.69      0.00
    1    7   26      7.44      0.00
    3    7   26      7.40      0.00
    5    7   26     -0.34      0.00
    7    7   26     18.36      0.00
    0    8   26     20.92      0.00
    2    8   26    -15.22      0.00
    4    8   26     14.18      0.00
    6    8   26    -17.01      0.00
    8    8   26     13.00      0.00
    1    9   26     -7.16      0.00
    3    9   26      1.77      0.00
    5    9   26     -5.61      0.00
    7    9   26     -4.50      0.00
    9    9   26    -11.33      0.00
    0   10   26     -5.03      0.00
    2   10   26     -5.06      0.00
    4   10   26      0.58      0.00
    6   10   26     -2.08      0.00
    8   10   26     -2.26      0.00
   10   10   26    -10.90      0.00
    1   11   26      4.07      0.00
    3   11   26      2.37      0.00
    5   11   26     -7.32      0.00
    7   11   26     11.03      0.00
    9   11   26     -5.69      0.00
   11   11   26     19.09      0.00
    0   12   26     20.53      0.00
    2   12   26    -10.11      0.00
    4   12   26      2.40      0.00
    6   12   26     -1.98      0.00
    8   12   26      5.87      0.00
   10   12   26      7.41      0.00
   12   12   26     23.74      0.00
    1   13   26      3.31      0.00
    3   13   26    -16.65      0.00
    5   13   26    -12.18      0.00
    7   13   26      4.28      0.00
    9   13   26     -1.35      0.00
   11   13   26     -4.43      0.00
   13   13   26     11.68      0.00
    0   14   26      7.30      0.00
    2   14   26     -4.10      0.00
    4   14   26     -6.07      0.00
    6   14   26     -1.77      0.00
    8   14   26     -1.63      0.00
   10   14   26     -4.08      0.00
   12   14   26      0.74      0.00
   14   14   26      0.52      0.00
    1   15   26      9.49      0.00
    3   15   26      8.76      0.00
    5   15   26     -4.23      0.00
    7   15   26     14.31      0.00
    9   15   26     -6.08      0.00
   11   15   26     -3.06      0.00
   13   15   26     -0.71      0.00
   15   15   26      3.42      0.00
    0   16   26     10.90      0.00
    2   16   26      0.28      0.00
    4   16   26      3.45      0.00
    6   16   26     -0.18      0.00
    8   16   26      8.74      0.00
   10   16   26      4.39      0.00
   12   16   26      4.19      0.00
   14   16   26      4.99      0.00
   16   16   26     -0.93      0.00
    1   17   26     -4.59      0.00
    3   17   26      3.69      0.00
    5   17   26     -5.82      0.00
    7   17   26      2.12      0.00
    9   17   26    -16.54      0.00
   11   17   26     11.98      0.00
   13   17   26      1.95      0.00
   15   17   26     -2.07      0.00
   17   17   26      9.11      0.00
    0   18   26      4.83      0.00
    2   18   26     -7.93      0.00
    4   18   26     12.10      0.00
    6   18   26     -4.04      0.00
    8   18   26      9.63      0.00
   10   18   26     -4.58      0.00
   12   18   26     11.14      0.00
   14   18   26      3.92      0.00
   16   18   26     -2.21      0.00
   18   18   26    -10.89      0.00
    1   19   26      5.01      0.00
    3   19   26      8.00      0.00
    5   19   26      3.45      0.00
    7   19   26     14.53      0.00
    9   19   26      6.34      0.00
   11   19   26     17.57      0.00
   13   19   26     12.72      0.00
   15   19   26     13.56      0.00
   17   19   26     -0.17      0.00
   19   19   26      7.80      0.00
    0   20   26     -2.33      0.00
    2   20   26      0.76      0.00
    4   20   26     -0.20      0.00
    6   20   26     -6.93      0.00
    8   20   26      3.04      0.00
   10   20   26     -3.34      0.00
   12   20   26      1.20      0.00
   14   20   26     -0.86      0.00
   16   20   26    -13.98      0.00
   18   20   26     -1.84      0.00
   20   20   26     -8.63      0.00
    1   21   26     -3.88      0.00
    3   21   26      2.54      0.00
    5   21   26     -3.08      0.00
    7   21   26     -6.14      0.00
    9   21   26     -1.77      0.00
   11   21   26     -8.99      0.00
   13   21   26    -11.77      0.00
   15   21   26      7.30      0.00
   17   21   26     10.85      0.00
   19   21   26     -3.81      0.00
   21   21   26      0.65      0.00
    0   22   26      1.63      0.00
    2   22   26     -3.22      0.00
    4   22   26      4.69      0.00
    6   22   26     -2.46      0.00
    8   22   26      5.43      0.00
   10   22   26      2.64      0.00
   12   22   26      2.07      0.00
   14   22   26     -3.96      0.00
   16   22   26      3.19      0.00
   18   22   26      6.32      0.00
   20   22   26     -2.34      0.00
   22   22   26      4.73      0.00
    1   23   26     -1.87      0.00
    3   23   26      8.50      0.00
    5   23   26     -1.78      0.00
    7   23   26     -4.47      0.00
    9   23   26     12.82      0.00
   11   23   26      3.21      0.00
   13   23   26    -11.81      0.00
   15   23   26      1.55      0.00
   17   23   26     11.29      0.00
   19   23   26     10.04      0.00
   21   23   26     -8.66      0.00
   23   23   26      1.52      0.00
    0   24   26     -3.14      0.00
    2   24   26     -3.09      0.00
    4   24   26     -0.54      0.00
    6   24   26     -1.61      0.00
    8   24   26     -3.38      0.00
   10   24   26      7.43      0.00
   12   24   26     -1.05      0.00
   14   24   26     -4.01      0.00
   16   24   26      3.12      0.00
   18   24   26      3.39      0.00
   20   24   26     -5.72      0.00
   22   24   26      8.30      0.00
    1   25   26      0.62      0.00
    3   25   26     12.08      0.00
    5   25   26      5.60      0.00
    7   25   26      7.31      0.00
    9   25   26     -4.17      0.00
   11   25   26     17.70      0.00
   13   25   26     -4.65      0.00
   15   25   26      9.78      0.00
   17   25   26     -4.85      0.00
   19   25   26      3.14      0.00
   21   25   26      5.53      0.00
    0   26   26      3.46      0.00
    2   26   26    -11.71      0.00
    4   26   26      9.82      0.00
    6   26   26     -3.79      0.00
    8   26   26     -4.46      0.00
   10   26   26      6.17      0.00
   12   26   26     -1.01      0.00
   14   26   26     -7.83      0.00
   16   26   26      9.13      0.00
   18   26   26      0.37      0.00
   20   26   26      7.56      0.00
   22   26   26      8.03      0.00
    0    1   27      4.40      0.00
    1    2   27     -7.00      0.00
    0    3   27     25.20      0.00
    2    3   27    -12.40      0.00
    1    4   27     12.72      0.00
    3    4   27     16.33      0.00
    0    5   27     -2.14      0.00
    2    5   27    -15.17      0.00
    4    5   27      6.13      0.00
    1    6   27     -9.49      0.00
    3    6   27     -1.93      0.00
    5    6   27    -14.98      0.00
    0    7   27      3.07      0.00
    2    7   27     -0.87      0.00
    4    7   27      8.37      0.00
    6    7   27     -4.01      0.00
    1    8   27      9.24      0.00
    3    8   27      9.69      0.00
    5    8   27      2.00      0.00
    7    8   27     13.79      0.00
    0    9   27      1.06      0.00
    2    9   27    -10.20      0.00
    4    9   27     -4.86      0.00
    6    9   27     -6.48      0.00
    8    9   27      3.68      0.00
    1   10   27     -2.14      0.00
    3   10   27     -4.53      0.00
    5   10   27     -3.72      0.00
    7   10   27     -2.11      0.00
    9   10   27     -2.79      0.00
    0   11   27     -2.03      0.00
    2   11   27      5.42      0.00
    4   11   27     11.92      0.00
    6   11   27      2.55      0.00
    8   11   27     -1.00      0.00
   10   11   27     -3.36      0.00
    1   12   27     -1.65      0.00
    3   12   27      6.70      0.00
    5   12   27     -8.54      0.00
    7   12   27      8.10      0.00
    9   12   27      0.90      0.00
   11   12   27     16.13      0.00
    0   13   27     11.88      0.00
    2   13   27    -16.71      0.00
    4   13   27      2.94      0.00
    6   13   27     -6.60      0.00
    8   13   27     -3.49      0.00
   10   13   27     -8.04      0.00
   12   13   27     -6.68      0.00
    1   14   27     -1.15      0.00
    3   14   27     -4.34      0.00
    5   14   27     13.57      0.00
    7   14   27      1.78      0.00
    9   14   27     -6.07      0.00
   11   14   27     -7.26      0.00
   13   14   27    -10.39      0.00
    0   15   27     17.26      0.00
    2   15   27      6.53      0.00
    4   15   27      7.93      0.00
    6   15   27      6.96      0.00
    8   15   27      0.06      0.00
   10   15   27      5.25      0.00
   12   15   27     15.89      0.00
   14   15   27     11.98      0.00
    1   16   27     17.31      0.00
    3   16   27      3.92      0.00
    5   16   27     -2.77      0.00
    7   16   27      8.69      0.00
    9   16   27    -17.32      0.00
   11   16   27      6.18      0.00
   13   16   27     -1.69      0.00
   15   16   27      9.23      0.00
    0   17   27     14.25      0.00
    2   17   27    -13.22      0.00
    4   17   27     -5.16      0.00
    6   17   27      1.51      0.00
    8   17   27     -3.58      0.00
   10   17   27     -7.84      0.00
   12   17   27     -5.24      0.00
   14   17   27     -8.55      0.00
   16   17   27     -1.59      0.00
    1   18   27      2.37      0.00
    3   18   27     -0.42      0.00
    5   18   27     -2.35      0.00
    7   18   27      0.07      0.00
    9   18   27     -7.72      0.00
   11   18   27      6.85      0.00
   13   18   27      9.07      0.00
   15   18   27     -0.68      0.00
   17   18   27     -0.84      0.00
    0   19   27     12.77      0.00
    2   19   27     -2.89      0.00
    4   19   27      9.34      0.00
    6   19   27      3.71      0.00
    8   19   27     -1.74      0.00
   10   19   27     -6.90      0.00
   12   19   27      4.04      0.00
   14   19   27      0.94      0.00
   16   19   27     -6.95      0.00
   18   19   27     -6.40      0.00
    1   20   27     -9.17      0.00
    3   20   27      8.42      0.00
    5   20   27      1.71      0.00
    7   20   27      4.48      0.00
    9   20   27    -10.82      0.00
   11   20   27     -1.54      0.00
   13   20   27     -3.28      0.00
   15   20   27      0.57      0.00
   17   20   27     -0.79      0.00
   19   20   27     -8.07      0.00
    0   21   27      3.68      0.00
    2   21   27     -5.00      0.00
    4   21   27     -1.97      0.00
    6   21   27     -9.49      0.00
    8   21   27     -2.58      0.00
   10   21   27     -3.18      0.00
   12   21   27     -1.46      0.00
   14   21   27     -1.86      0.00
   16   21   27     -1.74      0.00
   18   21   27      7.99      0.00
   20   21   27     -4.08      0.00
    1   22   27     -8.03      0.00
    3   22   27      1.08      0.00
    5   22   27      0.95      0.00
    7   22   27      9.26      0.00
    9   22   27     -6.27      0.00
   11   22   27     -2.82      0.00
   13   22   27      2.23      0.00
   15   22   27     -0.72      0.00
   17   22   27    -16.06      0.00
   19   22   27     -0.57      0.00
   21   22   27      3.30      0.00
    0   23   27     10.25      0.00
    2   23   27     -2.96      0.00
    4   23   27      3.89      0.00
    6   23   27      4.20      0.00
    8   23   27      7.85      0.00
   10   23   27    -11.92      0.00
   12   23   27     -0.32      0.00
   14   23   27      0.36      0.00
   16   23   27     -7.54      0.00
   18   23   27     -0.21      0.00
   20   23   27      3.12      0.00
   22   23   27      9.31      0.00
    1   24   27      5.44      0.00
    3   24   27     -0.84      0.00
    5   24   27    -10.85      0.00
    7   24   27      4.45      0.00
    9   24   27     -4.73      0.00
   11   24   27     -8.72      0.00
   13   24   27      1.73      0.00
   15   24   27      2.57      0.00
   17   24   27    -11.43      0.00
   19   24   27     -7.74      0.00
   21   24   27     -5.84      0.00
   23   24   27      7.10      0.00
    0   25   27      6.78      0.00
    2   25   27     -4.10      0.00
    4   25   27     -3.78      0.00
    6   25   27     -3.30      0.00
    8   25   27     -2.82      0.00
   10   25   27     -3.18      0.00
   12   25   27      5.80      0.00
   14   25   27     -3.50      0.00
   16   25   27     -9.75      0.00
   18   25   27     -4.35      0.00
   20   25   27     -5.37      0.00
   22   25   27     -5.89      0.00
    1   26   27      0.19      0.00
    3   26   27      4.03      0.00
    5   26   27     -3.52      0.00
    7   26   27     -0.64      0.00
    9   26   27     -9.83      0.00
   11   26   27      3.05      0.00
   13   26   27    -11.34      0.00
   15   26   27      7.90      0.00
   17   26   27     -9.06      0.00
   19   26   27      6.59      0.00
   21   26   27     -5.43      0.00
    0   27   27      8.36      0.00
    2   27   27     -7.88      0.00
    4   27   27      4.21      0.00
    6   27   27     -4.59      0.00
    8   27   27     -4.28      0.00
   10   27   27     -9.14      0.00
   12   27   27     -0.23      0.00
   14   27   27     -3.78      0.00
   16   27   27      1.77      0.00
   18   27   27      5.59      0.00
   20   27   27     -5.77      0.00
    0    0   28     12.68      0.00
    1    1   28      1.96      0.00
    0    2   28      5.80      0.00
    2    2   28    -33.38      0.00
    1    3   28     -1.53      0.00
    3    3   28      5.54      0.00
    0    4   28     14.78      0.00
    2    4   28     -3.08      0.00
    4    4   28     12.17      0.00
    1    5   28    -12.31      0.00
    3    5   28      0.91      0.00
    5    5   28    -13.41      0.00
    0    6   28      9.24      0.00
    2    6   28    -11.41      0.00
    4    6   28     -3.27      0.00
    6    6   28      6.08      0.00
    1    7   28      3.97      0.00
    3    7   28      7.59      0.00
    5    7   28     -0.59      0.00
    7    7   28      7.90      0.00
    0    8   28     22.22      0.00
    2    8   28     -3.32      0.00
    4    8   28     16.91      0.00
    6    8   28     10.16      0.00
    8    8   28     10.92      0.00
    1    9   28     -6.78      0.00
    3    9   28     -1.37      0.00
    5    9   28     -4.73      0.00
    7    9   28     -4.44      0.00
    9    9   28     -7.40      0.00
    0   10   28     -7.27      0.00
    2   10   28     -9.22      0.00
    4   10   28    -11.97      0.00
    6   10   28      0.63      0.00
    8   10   28     -1.98      0.00
   10   10   28     -4.59      0.00
    1   11   28      3.97      0.00
    3   11   28      5.94      0.00
    5   11   28      7.97      0.00
    7   11   28      3.96      0.00
    9   11   28     -5.18      0.00
   11   11   28      2.39      0.00
    0   12   28     16.27      0.00
    2   12   28     -1.14      0.00
    4   12   28     13.36      0.00
    6   12   28      4.29      0.00
    8   12   28     13.18      0.00
   10   12   28     -5.56      0.00
   12   12   28     15.38      0.00
    1   13   28      1.58      0.00
    3   13   28    -12.83      0.00
    5   13   28     -4.80      0.00
    7   13   28      0.10      0.00
    9   13   28    -13.68      0.00
   11   13   28      0.01      0.00
   13   13   28     -9.16      0.00
    0   14   28     -3.66      0.00
    2   14   28     -7.40      0.00
    4   14   28     -5.92      0.00
    6   14   28     -4.00      0.00
    8   14   28      1.25      0.00
   10   14   28     -5.25      0.00
   12   14   28      1.58      0.00
   14   14   28    -19.53      0.00
    1   15   28      6.55      0.00
    3   15   28      5.90      0.00
    5   15   28      4.68      0.00
    7   15   28     -0.29      0.00
    9   15   28     -4.95      0.00
   11   15   28      2.80      0.00
   13   15   28     -5.57      0.00
   15   15   28     13.35      0.00
    0   16   28     -0.48      0.00
    2   16   28     -3.72      0.00
    4   16   28      2.38      0.00
    6   16   28    -10.26      0.00
    8   16   28      4.75      0.00
   10   16   28      1.52      0.00
   12   16   28     -7.27      0.00
   14   16   28     -1.53      0.00
   16   16   28     -4.84      0.00
    1   17   28     -9.95      0.00
    3   17   28     -8.95      0.00
    5   17   28     -7.06      0.00
    7   17   28     -2.43      0.00
    9   17   28     -7.02      0.00
   11   17   28     -2.69      0.00
   13   17   28     -6.94      0.00
   15   17   28     -0.61      0.00
   17   17   28    -12.95      0.00
    0   18   28      3.53      0.00
    2   18   28     -3.75      0.00
    4   18   28     -2.15      0.00
    6   18   28     -1.93      0.00
    8   18   28      9.39      0.00
   10   18   28     -0.91      0.00
   12   18   28      2.55      0.00
   14   18   28      2.15      0.00
   16   18   28     -8.23      0.00
   18   18   28     -7.02      0.00
    1   19   28      3.34      0.00
    3   19   28      1.70      0.00
    5   19   28      6.44      0.00
    7   19   28      4.04      0.00
    9   19   28     -2.56      0.00
   11   19   28     10.67      0.00
   13   19   28      3.28      0.00
   15   19   28      8.60      0.00
   17   19   28    -10.37      0.00
   19   19   28      4.22      0.00
    0   20   28      4.34      0.00
    2   20   28     -5.86      0.00
    4   20   28     -1.29      0.00
    6   20   28     -2.21      0.00
    8   20   28      0.47      0.00
   10   20   28     -2.20      0.00
   12   20   28     -4.52      0.00
   14   20   28     -2.00      0.00
   16   20   28     -5.35      0.00
   18   20   28      8.62      0.00
   20   20   28      1.93      0.00
    1   21   28    -12.86      0.00
    3   21   28     -6.03      0.00
    5   21   28     -5.98      0.00
    7   21   28     -2.53      0.00
    9   21   28     -2.16      0.00
   11   21   28     -2.56      0.00
   13   21   28    -19.71      0.00
   15   21   28      8.40      0.00
   17   21   28     -6.56      0.00
   19   21   28      5.50      0.00
   21   21   28      0.87      0.00
    0   22   28      0.84      0.00
    2   22   28     -5.26      0.00
    4   22   28      9.35      0.00
    6   22   28     -5.17      0.00
    8   22   28      8.85      0.00
   10   22   28     -5.14      0.00
   12   22   28     -0.39      0.00
   14   22   28     -3.45      0.00
   16   22   28      0.75      0.00
   18   22   28     -5.13      0.00
   20   22   28     -6.49      0.00
   22   22   28     -2.29      0.00
    1   23   28     -4.94      0.00
    3   23   28     -2.48      0.00
    5   23   28     -0.44      0.00
    7   23   28      7.07      0.00
    9   23   28     -4.78      0.00
   11   23   28     -0.64      0.00
   13   23   28    -15.12      0.00
   15   23   28     -0.88      0.00
   17   23   28    -21.28      0.00
   19   23   28     -4.12      0.00
   21   23   28     -3.83      0.00
   23   23   28     -0.16      0.00
    0   24   28      5.66      0.00
    2   24   28     -0.13      0.00
    4   24   28      1.63      0.00
    6   24   28     -4.97      0.00
    8   24   28      9.35      0.00
   10   24   28     -1.77      0.00
   12   24   28     -2.23      0.00
   14   24   28     -6.77      0.00
   16   24   28      5.92      0.00
   18   24   28      1.15      0.00
   20   24   28     -8.09      0.00
   22   24   28      5.25      0.00
    1   25   28      1.58      0.00
    3   25   28     -2.85      0.00
    5   25   28     -3.49      0.00
    7   25   28     -0.86      0.00
    9   25   28     -7.41      0.00
   11   25   28      9.01      0.00
   13   25   28      4.66      0.00
   15   25   28      1.81      0.00
   17   25   28     -9.49      0.00
   19   25   28     -2.23      0.00
   21   25   28      5.78      0.00
    0   26   28      2.44      0.00
    2   26   28     -6.14      0.00
    4   26   28      0.85      0.00
    6   26   28      0.16      0.00
    8   26   28      8.50      0.00
   10   26   28     -7.10      0.00
   12   26   28      3.91      0.00
   14   26   28      3.48      0.00
   16   26   28     -0.34      0.00
   18   26   28     -8.47      0.00
   20   26   28     -3.88      0.00
    1   27   28     -2.64      0.00
    3   27   28     -1.85      0.00
    5   27   28     -1.30      0.00
    7   27   28     14.01      0.00
    9   27   28     -2.10      0.00
   11   27   28     -8.96      0.00
   13   27   28     -1.41      0.00
   15   27   28      0.27      0.00
   17   27   28     -2.60      0.00
   19   27   28     14.53      0.00
    0   28   28     10.41      0.00
    2   28   28     -5.03      0.00
    4   28   28      0.33      0.00
    6   28   28      3.05      0.00
    8   28   28     -3.91      0.00
   10   28   28    -10.97      0.00
   12   28   28      0.62      0.00
   14   28   28      8.50      0.00
   16   28   28      1.76      0.00
   18   28   28      2.47      0.00
    0    1   29      7.39      0.00
    1    2   29    -11.39      0.00
    0    3   29      3.81      0.00
    2    3   29     -5.58      0.00
    1    4   29      2.26      0.00
    3    4   29      3.59      0.00
    0    5   29      1.57      0.00
    2    5   29     -5.61      0.00
    4    5   29      5.95      0.00
    1    6   29     -5.53      0.00
    3    6   29     -2.44      0.00
    5    6   29    -14.15      0.00
    0    7   29      6.03      0.00
    2    7   29     -0.22      0.00
    4    7   29      5.66      0.00
    6    7   29      2.11      0.00
    1    8   29      3.92      0.00
    3    8   29      7.25      0.00
    5    8   29      6.64      0.00
    7    8   29      6.50      0.00
    0    9   29     13.77      0.00
    2    9   29    -16.86      0.00
    4    9   29      8.41      0.00
    6    9   29    -15.16      0.00
    8    9   29     -0.38      0.00
    1   10   29     -0.36      0.00
    3   10   29     -0.37      0.00
    5   10   29     -3.27      0.00
    7   10   29     -2.65      0.00
    9   10   29     -7.61      0.00
    0   11   29      0.25      0.00
    2   11   29      6.06      0.00
    4   11   29      3.17      0.00
    6   11   29      9.72      0.00
    8   11   29      8.78      0.00
   10   11   29      0.54      0.00
    1   12   29     -4.02      0.00
    3   12   29      6.03      0.00
    5   12   29     -3.19      0.00
    7   12   29      3.81      0.00
    9   12   29      2.21      0.00
   11   12   29      4.61      0.00
    0   13   29     -0.50      0.00
    2   13   29    -14.16      0.00
    4   13   29     -2.31      0.00
    6   13   29    -17.92      0.00
    8   13   29      6.52      0.00
   10   13   29     -5.56      0.00
   12   13   29     13.22      0.00
    1   14   29     -0.32      0.00
    3   14   29     -9.25      0.00
    5   14   29     -3.25      0.00
    7   14   29     -7.34      0.00
    9   14   29      0.22      0.00
   11   14   29     -2.25      0.00
   13   14   29      2.48      0.00
    0   15   29     21.06      0.00
    2   15   29      4.36      0.00
    4   15   29     -3.06      0.00
    6   15   29     10.11      0.00
    8   15   29      5.80      0.00
   10   15   29      1.35      0.00
   12   15   29      3.03      0.00
   14   15   29     -2.40      0.00
    1   16   29      1.66      0.00
    3   16   29     -1.93      0.00
    5   16   29     -1.27      0.00
    7   16   29      7.62      0.00
    9   16   29    -16.39      0.00
   11   16   29      9.99      0.00
   13   16   29      0.56      0.00
   15   16   29     12.02      0.00
    0   17   29      6.25      0.00
    2   17   29    -23.09      0.00
    4   17   29      3.81      0.00
    6   17   29     -1.27      0.00
    8   17   29     -6.59      0.00
   10   17   29    -15.29      0.00
   12   17   29      1.29      0.00
   14   17   29     -2.70      0.00
   16   17   29     -5.57      0.00
    1   18   29     -3.62      0.00
    3   18   29     -9.08      0.00
    5   18   29     -4.66      0.00
    7   18   29      8.12      0.00
    9   18   29      5.41      0.00
   11   18   29      2.49      0.00
   13   18   29     -3.21      0.00
   15   18   29      0.51      0.00
   17   18   29     -1.74      0.00
    0   19   29      9.00      0.00
    2   19   29      1.72      0.00
    4   19   29      7.54      0.00
    6   19   29      1.24      0.00
    8   19   29      2.10      0.00
   10   19   29      6.32      0.00
   12   19   29     15.27      0.00
   14   19   29     -6.21      0.00
   16   19   29      2.66      0.00
   18   19   29      9.09      0.00
    1   20   29     -5.68      0.00
    3   20   29     -3.46      0.00
    5   20   29      1.72      0.00
    7   20   29      6.56      0.00
    9   20   29     -1.82      0.00
   11   20   29     14.59      0.00
   13   20   29    -11.28      0.00
   15   20   29     11.14      0.00
   17   20   29     -8.26      0.00
   19   20   29     -0.29      0.00
    0   21   29     -0.11      0.00
    2   21   29     -4.89      0.00
    4   21   29      5.85      0.00
    6   21   29     -7.67      0.00
    8   21   29     -6.23      0.00
   10   21   29      1.31      0.00
   12   21   29     10.93      0.00
   14   21   29     -4.25      0.00
   16   21   29      6.99      0.00
   18   21   29      9.02      0.00
   20   21   29     -0.10      0.00
    1   22   29     -2.57      0.00
    3   22   29      5.42      0.00
    5   22   29      2.43      0.00
    7   22   29      1.69      0.00
    9   22   29      1.73      0.00
   11   22   29     -0.40      0.00
   13   22   29      0.03      0.00
   15   22   29      7.42      0.00
   17   22   29      4.25      0.00
   19   22   29     -6.22      0.00
   21   22   29      2.38      0.00
    0   23   29     -4.79      0.00
    2   23   29     -3.35      0.00
    4   23   29      2.20      0.00
    6   23   29     -4.10      0.00
    8   23   29      2.40      0.00
   10   23   29      0.15      0.00
   12   23   29     10.08      0.00
   14   23   29    -10.07      0.00
   16   23   29     -1.45      0.00
   18   23   29     10.50      0.00
   20   23   29     12.37      0.00
   22   23   29     15.32      0.00
    1   24   29     -4.50      0.00
    3   24   29     -2.16      0.00
    5   24   29      0.40      0.00
    7   24   29     -0.02      0.00
    9   24   29     -4.80      0.00
   11   24   29     -1.29      0.00
   13   24   29     -8.10      0.00
   15   24   29      5.43      0.00
   17   24   29      9.29      0.00
   19   24   29      3.03      0.00
   21   24   29     -6.79      0.00
    0   25   29     -4.67      0.00
    2   25   29     -3.21      0.00
    4   25   29      9.81      0.00
    6   25   29     -0.54      0.00
    8   25   29     -1.57      0.00
   10   25   29     -6.60      0.00
   12   25   29      5.33      0.00
   14   25   29     -0.38      0.00
   16   25   29      0.22      0.00
   18   25   29      0.73      0.00
   20   25   29     -8.29      0.00
    1   26   29     -4.10      0.00
    3   26   29     -7.35      0.00
    5   26   29      4.33      0.00
    7   26   29     10.70      0.00
    9   26   29      0.39      0.00
   11   26   29     -0.29      0.00
   13   26   29    -12.65      0.00
   15   26   29      0.73      0.00
   17   26   29     -2.23      0.00
   19   26   29    -11.74      0.00
    0   27   29      7.17      0.00
    2   27   29     -4.19      0.00
    4   27   29      4.22      0.00
    6   27   29     -5.28      0.00
    8   27   29      2.57      0.00
   10   27   29      5.34      0.00
   12   27   29     11.13      0.00
   14   27   29     -9.41      0.00
   16   27   29     -0.60      0.00
   18   27   29      5.75      0.00
    1   28   29      0.41      0.00
    3   28   29      2.66      0.00
    5   28   29     -6.06      0.00
    7   28   29     13.87      0.00
    9   28   29     -6.57      0.00
   11   28   29      8.17      0.00
   13   28   29     -2.06      0.00
   15   28   29      5.33      0.00
   17   28   29      4.49      0.00
    0   29   29      2.11      0.00
    2   29   29     -5.12      0.00
    4   29   29      9.29      0.00
    6   29   29      5.06      0.00
    8   29   29     -5.04      0.00
   10   29   29      4.29      0.00
   12   29   29     -4.36      0.00
   14   29   29     -6.89      0.00
   16   29   29      4.00      0.00
    0    0   30     15.50      0.00
    1    1   30     14.29      0.00
    0    2   30     14.21      0.00
    2    2   30    -15.49      0.00
    1    3   30     -7.30      0.00
    3    3   30     -3.83      0.00
    0    4   30      9.63      0.00
    2    4   30     10.46      0.00
    4    4   30      0.97      0.00
    1    5   30      8.16      0.00
    3    5   30      2.21      0.00
    5    5   30     -1.91      0.00
    0    6   30     13.75      0.00
    2    6   30    -16.39      0.00
    4    6   30     -0.71      0.00
    6    6   30     -6.80      0.00
    1    7   30      3.43      0.00
    3    7   30      9.32      0.00
    5    7   30      1.76      0.00
    7    7   30     -3.12      0.00
    0    8   30      1.36      0.00
    2    8   30      5.57      0.00
    4    8   30      6.88      0.00
    6    8   30      5.15      0.00
    8    8   30      8.81      0.00
    1    9   30    -11.66      0.00
    3    9   30      7.38      0.00
    5    9   30    -14.47      0.00
    7    9   30     -3.82      0.00
    9    9   30     -0.88      0.00
    0   10   30      2.53      0.00
    2   10   30     -7.94      0.00
    4   10   30      4.56      0.00
    6   10   30     -9.70      0.00
    8   10   30      0.23      0.00
   10   10   30    -12.83      0.00
    1   11   30      9.73      0.00
    3   11   30     12.19      0.00
    5   11   30      4.51      0.00
    7   11   30      2.90      0.00
    9   11   30      8.81      0.00
   11   11   30      3.65      0.00
    0   12   30      5.25      0.00
    2   12   30      1.55      0.00
    4   12   30      2.36      0.00
    6   12   30     -0.18      0.00
    8   12   30      1.77      0.00
   10   12   30    -18.52      0.00
   12   12   30      1.79      0.00
    1   13   30    -11.02      0.00
    3   13   30      1.94      0.00
    5   13   30     -7.13      0.00
    7   13   30     -3.49      0.00
    9   13   30     -4.92      0.00
   11   13   30      6.87      0.00
   13   13   30     -7.12      0.00
    0   14   30      9.89      0.00
    2   14   30     -2.41      0.00
    4   14   30      6.75      0.00
    6   14   30      1.47      0.00
    8   14   30      4.05      0.00
   10   14   30     -6.49      0.00
   12   14   30      0.54      0.00
   14   14   30      2.41      0.00
    1   15   30      7.34      0.00
    3   15   30      5.41      0.00
    5   15   30      7.08      0.00
    7   15   30      5.40      0.00
    9   15   30     13.51      0.00
   11   15   30      0.05      0.00
   13   15   30      5.34      0.00
   15   15   30     10.94      0.00
    0   16   30     10.44      0.00
    2   16   30     -5.26      0.00
    4   16   30      9.94      0.00
    6   16   30     -0.95      0.00
    8   16   30      9.18      0.00
   10   16   30     -8.87      0.00
   12   16   30     -0.58      0.00
   14   16   30      2.02      0.00
   16   16   30      2.40      0.00
    1   17   30     -1.16      0.00
    3   17   30      6.16      0.00
    5   17   30     -7.11      0.00
    7   17   30     -0.02      0.00
    9   17   30    -13.66      0.00
   11   17   30      2.85      0.00
   13   17   30     -7.56      0.00
   15   17   30      0.35      0.00
   17   17   30     -3.09      0.00
    0   18   30      6.81      0.00
    2   18   30      2.14      0.00
    4   18   30      4.83      0.00
    6   18   30     -8.24      0.00
    8   18   30      8.68      0.00
   10   18   30     -7.40      0.00
   12   18   30      0.31      0.00
   14   18   30      6.26      0.00
   16   18   30      2.30      0.00
   18   18   30      5.19      0.00
    1   19   30      2.64      0.00
    3   19   30      7.34      0.00
    5   19   30     -1.33      0.00
    7   19   30      1.07      0.00
    9   19   30     -0.60      0.00
   11   19   30     12.63      0.00
   13   19   30     -2.22      0.00
   15   19   30      1.96      0.00
   17   19   30      0.53      0.00
   19   19   30     -3.75      0.00
    0   20   30     15.75      0.00
    2   20   30     -5.14      0.00
    4   20   30      8.97      0.00
    6   20   30     -0.10      0.00
    8   20   30      7.45      0.00
   10   20   30    -16.01      0.00
   12   20   30      6.13      0.00
   14   20   30      8.34      0.00
   16   20   30      7.57      0.00
   18   20   30      1.62      0.00
   20   20   30      8.74      0.00
    1   21   30     -4.05      0.00
    3   21   30     -1.75      0.00
    5   21   30     -5.89      0.00
    7   21   30      1.25      0.00
    9   21   30     -8.02      0.00
   11   21   30     -5.63      0.00
   13   21   30      6.28      0.00
   15   21   30      0.07      0.00
   17   21   30     -1.46      0.00
   19   21   30      2.97      0.00
   21   21   30     13.90      0.00
    0   22   30     -6.38      0.00
    2   22   30     -3.32      0.00
    4   22   30      1.87      0.00
    6   22   30      2.95      0.00
    8   22   30      1.78      0.00
   10   22   30     -5.79      0.00
   12   22   30      1.54      0.00
   14   22   30     -1.80      0.00
   16   22   30     -2.52      0.00
   18   22   30     11.28      0.00
   20   22   30     -2.57      0.00
   22   22   30     15.02      0.00
    1   23   30      9.79      0.00
    3   23   30      1.76      0.00
    5   23   30     -0.65      0.00
    7   23   30      0.05      0.00
    9   23   30     -4.80      0.00
   11   23   30      5.45      0.00
   13   23   30      6.11      0.00
   15   23   30     -1.76      0.00
   17   23   30      4.23      0.00
   19   23   30      4.12      0.00
   21   23   30      2.81      0.00
    0   24   30      2.52      0.00
    2   24   30     -2.47      0.00
    4   24   30     10.34      0.00
    6   24   30     -1.03      0.00
    8   24   30      1.52      0.00
   10   24   30      8.48      0.00
   12   24   30      2.28      0.00
   14   24   30     -3.50      0.00
   16   24   30      8.05      0.00
   18   24   30     13.70      0.00
   20   24   30     -1.68      0.00
    1   25   30     -0.39      0.00
    3   25   30     -6.46      0.00
    5   25   30      1.44      0.00
    7   25   30     -4.71      0.00
    9   25   30     -0.54      0.00
   11   25   30     -2.01      0.00
   13   25   30     -4.17      0.00
   15   25   30      7.50      0.00
   17   25   30    -11.96      0.00
   19   25   30     -6.62      0.00
    0   26   30      1.56      0.00
    2   26   30     -2.52      0.00
    4   26   30      4.59      0.00
    6   26   30     -1.52      0.00
    8   26   30      8.78      0.00
   10   26   30     -2.08      0.00
   12   26   30     -1.28      0.00
   14   26   30     -1.74      0.00
   16   26   30     -0.92      0.00
   18   26   30    -10.43      0.00
    1   27   30     -1.75      0.00
    3   27   30     -3.00      0.00
    5   27   30     -4.78      0.00
    7   27   30      0.48      0.00
    9   27   30     -2.35      0.00
   11   27   30      0.92      0.00
   13   27   30      0.84      0.00
   15   27   30      8.55      0.00
   17   27   30    -12.66      0.00
    0   28   30     11.02      0.00
    2   28   30     -5.65      0.00
    4   28   30      5.52      0.00
    6   28   30     -2.70      0.00
    8   28   30      3.68      0.00
   10   28   30     -2.56      0.00
   12   28   30     -2.34      0.00
   14   28   30     -3.14      0.00
   16   28   30      1.49      0.00
    1   29   30      4.98      0.00
    3   29   30     -5.62      0.00
    5   29   30      6.61      0.00
    7   29   30     17.34      0.00
    9   29   30    -12.82      0.00
   11   29   30      4.81      0.00
   13   29   30      2.85      0.00
   15   29   30     10.77      0.00
    0   30   30      9.36      0.00
    2   30   30      2.34      0.00
    4   30   30      5.40      0.00
    6   30   30     12.90      0.00
    8   30   30      4.90      0.00
   10   30   30      1.69      0.00
   12   30   30     -3.16      0.00
   14   30   30     -2.76      0.00
    0    1   31      7.86      0.00
    1    2   31      0.64      0.00
    0    3   31      9.40      0.00
    2    3   31     -7.22      0.00
    1    4   31      9.69      0.00
    3    4   31      8.37      0.00
    0    5   31     -0.37      0.00
    2    5   31     -8.18      0.00
    4    5   31      7.01      0.00
    1    6   31     -5.31      0.00
    3    6   31     -7.38      0.00
    5    6   31     -4.87      0.00
    0    7   31      2.93      0.00
    2    7   31      1.41      0.00
    4    7   31      6.95      0.00
    6    7   31      2.03      0.00
    1    8   31      1.59      0.00
    3    8   31      0.98      0.00
    5    8   31     -1.97      0.00
    7    8   31     -0.27      0.00
    0    9   31     -0.42      0.00
    2    9   31      0.85      0.00
    4    9   31     -3.79      0.00
    6    9   31     -4.27      0.00
    8    9   31      0.41      0.00
    1   10   31     -6.05      0.00
    3   10   31     -2.52      0.00
    5   10   31      1.87      0.00
    7   10   31      5.32      0.00
    9   10   31    -14.94      0.00
    0   11   31     18.46      0.00
    2   11   31      1.49      0.00
    4   11   31      8.32      0.00
    6   11   31      3.29      0.00
    8   11   31     -3.40      0.00
   10   11   31      9.50      0.00
    1   12   31      6.14      0.00
    3   12   31      0.35      0.00
    5   12   31      9.37      0.00
    7   12   31      8.88      0.00
    9   12   31    -15.31      0.00
   11   12   31     -3.39      0.00
    0   13   31     -0.06      0.00
    2   13   31     -9.22      0.00
    4   13   31      4.67      0.00
    6   13   31     -5.43      0.00
    8   13   31      4.91      0.00
   10   13   31     -4.76      0.00
   12   13   31     -2.17      0.00
    1   14   31     -3.02      0.00
    3   14   31     -2.60      0.00
    5   14   31      3.01      0.00
    7   14   31      4.38      0.00
    9   14   31    -16.23      0.00
   11   14   31      1.02      0.00
   13   14   31     -8.94      0.00
    0   15   31     23.84      0.00
    2   15   31     -3.41      0.00
    4   15   31      9.74      0.00
    6   15   31      6.37      0.00
    8   15   31     -2.41      0.00
   10   15   31      2.61      0.00
   12   15   31     -0.79      0.00
   14   15   31      0.61      0.00
    1   16   31     10.83      0.00
    3   16   31     -1.95      0.00
    5   16   31     -0.67      0.00
    7   16   31      7.01      0.00
    9   16   31     -0.83      0.00
   11   16   31      3.88      0.00
   13   16   31      4.05      0.00
   15   16   31      8.50      0.00
    0   17   31      1.26      0.00
    2   17   31    -18.48      0.00
    4   17   31     -1.13      0.00
    6   17   31     -6.26      0.00
    8   17   31     -0.08      0.00
   10   17   31     -7.60      0.00
   12   17   31     -0.43      0.00
   14   17   31    -16.55      0.00
   16   17   31     -0.69      0.00
    1   18   31     -1.15      0.00
    3   18   31      4.70      0.00
    5   18   31    -10.06      0.00
    7   18   31      4.65      0.00
    9   18   31     -4.76      0.00
   11   18   31    -14.28      0.00
   13   18   31      1.49      0.00
   15   18   31     -1.16      0.00
   17   18   31     -1.13      0.00
    0   19   31      7.20      0.00
    2   19   31      5.73      0.00
    4   19   31     14.65      0.00
    6   19   31     -2.19      0.00
    8   19   31      0.57      0.00
   10   19   31     -3.72      0.00
   12   19   31      4.20      0.00
   14   19   31      1.28      0.00
   16   19   31      0.12      0.00
   18   19   31     -1.66      0.00
    1   20   31     10.36      0.00
    3   20   31      2.39      0.00
    5   20   31      1.10      0.00
    7   20   31     -0.12      0.00
    9   20   31     -1.60      0.00
   11   20   31     -6.12      0.00
   13   20   31     -9.86      0.00
   15   20   31      2.40      0.00
   17   20   31     -4.32      0.00
   19   20   31    -10.80      0.00
    0   21   31     10.84      0.00
    2   21   31     -8.92      0.00
    4   21   31     11.25      0.00
    6   21   31     -6.58      0.00
    8   21   31      5.69      0.00
   10   21   31     -1.17      0.00
   12   21   31      0.67      0.00
   14   21   31     -1.88      0.00
   16   21   31     -2.30      0.00
   18   21   31      1.66      0.00
   20   21   31     -1.38      0.00
    1   22   31      4.07      0.00
    3   22   31      7.56      0.00
    5   22   31     -6.81      0.00
    7   22   31     -0.01      0.00
    9   22   31      2.26      0.00
   11   22   31      4.48      0.00
   13   22   31     10.58      0.00
   15   22   31      3.10      0.00
   17   22   31     10.36      0.00
   19   22   31     -1.25      0.00
   21   22   31    -17.12      0.00
    0   23   31      4.45      0.00
    2   23   31     -3.83      0.00
    4   23   31      0.84      0.00
    6   23   31     -0.54      0.00
    8   23   31      6.01      0.00
   10   23   31      3.86      0.00
   12   23   31     -2.01      0.00
   14   23   31      2.65      0.00
   16   23   31    -10.06      0.00
   18   23   31     13.18      0.00
   20   23   31      2.13      0.00
    1   24   31      2.19      0.00
    3   24   31     -8.22      0.00
    5   24   31     -4.94      0.00
    7   24   31      4.94      0.00
    9   24   31     -2.81      0.00
   11   24   31      2.65      0.00
   13   24   31     -7.22      0.00
   15   24   31      2.12      0.00
   17   24   31      1.68      0.00
   19   24   31     19.40      0.00
    0   25   31      6.31      0.00
    2   25   31     -5.21      0.00
    4   25   31      1.53      0.00
    6   25   31     -4.49      0.00
    8   25   31      5.26      0.00
   10   25   31      5.60      0.00
   12   25   31      2.74      0.00
   14   25   31     10.94      0.00
   16   25   31     -4.61      0.00
   18   25   31     -9.72      0.00
    1   26   31      0.44      0.00
    3   26   31     -2.27      0.00
    5   26   31      9.86      0.00
    7   26   31      3.12      0.00
    9   26   31     -1.88      0.00
   11   26   31      0.02      0.00
   13   26   31     -5.38      0.00
   15   26   31     -4.19      0.00
   17   26   31     -3.67      0.00
    0   27   31    -11.90      0.00
    2   27   31     -3.14      0.00
    4   27   31     19.16      0.00
    6   27   31     -1.35      0.00
    8   27   31     -1.50      0.00
   10   27   31     -0.13      0.00
   12   27   31      2.38      0.00
   14   27   31     -2.09      0.00
   16   27   31      7.94      0.00
    1   28   31      0.81      0.00
    3   28   31      1.69      0.00
    5   28   31     -9.87      0.00
    7   28   31     -1.09      0.00
    9   28   31      2.72      0.00
   11   28   31      1.89      0.00
   13   28   31      5.19      0.00
   15   28   31      3.82      0.00
    0   29   31      0.24      0.00
    2   29   31      2.14      0.00
    4   29   31      8.21      0.00
    6   29   31     -8.07      0.00
    8   29   31     -1.14      0.00
   10   29   31      4.13      0.00
   12   29   31     -0.12      0.00
   14   29   31     -1.88      0.00
    1   30   31      7.68      0.00
    3   30   31    -19.63      0.00
    5   30   31      2.91      0.00
    7   30   31      1.80      0.00
    9   30   31     -3.80      0.00
   11   30   31     -2.10      0.00
    0   31   31      8.31      0.00
    2   31   31      0.54      0.00
    4   31   31     -6.68      0.00
    6   31   31    -12.37      0.00
    8   31   31      3.57      0.00
   10   31   31     -4.85      0.00
    0    0   32     10.01      0.00
    1    1   32      1.47      0.00
    0    2   32     -1.17      0.00
    2    2   32     -5.87      0.00
    1    3   32     -1.61      0.00
    3    3   32     -1.18      0.00
    0    4   32     -1.79      0.00
    2    4   32     -2.47      0.00
    4    4   32      8.59      0.00
    1    5   32     -6.99      0.00
    3    5   32     -4.78      0.00
    5    5   32      1.22      0.00
    0    6   32     -8.90      0.00
    2    6   32     -9.31      0.00
    4    6   32      0.20      0.00
    6    6   32    -18.87      0.00
    1    7   32      4.48      0.00
    3    7   32      6.36      0.00
    5    7   32     -5.26      0.00
    7    7   32     -2.14      0.00
    0    8   32      0.60      0.00
    2    8   32      8.04      0.00
    4    8   32     -0.28      0.00
    6    8   32     -4.59      0.00
    8    8   32      2.73      0.00
    1    9   32     -9.58      0.00
    3    9   32     -6.30      0.00
    5    9   32     -5.55      0.00
    7    9   32      1.76      0.00
    9    9   32      3.09      0.00
    0   10   32     -4.53      0.00
    2   10   32    -11.15      0.00
    4   10   32      8.81      0.00
    6   10   32    -10.21      0.00
    8   10   32      1.48      0.00
   10   10   32     -4.53      0.00
    1   11   32      3.99      0.00
    3   11   32      3.50      0.00
    5   11   32     -5.47      0.00
    7   11   32      2.13      0.00
    9   11   32      8.30      0.00
   11   11   32     17.72      0.00
    0   12   32      3.05      0.00
    2   12   32      0.90      0.00
    4   12   32      1.81      0.00
    6   12   32      4.68      0.00
    8   12   32     -0.28      0.00
   10   12   32     -2.88      0.00
   12   12   32     16.34      0.00
    1   13   32    -10.86      0.00
    3   13   32      2.66      0.00
    5   13   32    -10.14      0.00
    7   13   32      1.84      0.00
    9   13   32     -4.49      0.00
   11   13   32      8.15      0.00
   13   13   32    -18.30      0.00
    0   14   32     11.35      0.00
    2   14   32    -12.76      0.00
    4   14   32      4.46      0.00
    6   14   32     -6.12      0.00
    8   14   32     -4.72      0.00
   10   14   32     -5.23      0.00
   12   14   32      7.55      0.00
   14   14   32      3.00      0.00
    1   15   32     -1.55      0.00
    3   15   32     11.86      0.00
    5   15   32     -3.89      0.00
    7   15   32      3.90      0.00
    9   15   32      4.44      0.00
   11   15   32      2.20      0.00
   13   15   32     -1.40      0.00
   15   15   32      2.10      0.00
    0   16   32      4.38      0.00
    2   16   32    -15.85      0.00
    4   16   32     -2.93      0.00
    6   16   32     -3.28      0.00
    8   16   32      6.30      0.00
   10   16   32      1.51      0.00
   12   16   32      3.62      0.00
   14   16   32     -4.85      0.00
   16   16   32      3.36      0.00
    1   17   32     -9.90      0.00
    3   17   32     -1.69      0.00
    5   17   32    -14.89      0.00
    7   17   32      0.92      0.00
    9   17   32     -2.41      0.00
   11   17   32      4.07      0.00
   13   17   32     -6.02      0.00
   15   17   32     -0.60      0.00
   17   17   32     -3.99      0.00
    0   18   32      6.68      0.00
    2   18   32    -11.60      0.00
    4   18   32      2.07      0.00
    6   18   32      0.19      0.00
    8   18   32      5.55      0.00
   10   18   32     -1.54      0.00
   12   18   32     -3.69      0.00
   14   18   32      7.92      0.00
   16   18   32     -4.89      0.00
   18   18   32    -12.04      0.00
    1   19   32     -1.24      0.00
    3   19   32      1.53      0.00
    5   19   32      2.69      0.00
    7   19   32     -1.11      0.00
    9   19   32     10.01      0.00
   11   19   32      2.59      0.00
   13   19   32     -5.52      0.00
   15   19   32     -0.57      0.00
   17   19   32      1.87      0.00
   19   19   32     11.96      0.00
    0   20   32     20.41      0.00
    2   20   32     -4.68      0.00
    4   20   32      1.45      0.00
    6   20   32    -11.01      0.00
    8   20   32      0.15      0.00
   10   20   32     -3.35      0.00
   12   20   32      3.77      0.00
   14   20   32     -3.14      0.00
   16   20   32      2.63      0.00
   18   20   32     -8.72      0.00
   20   20   32      4.77      0.00
    1   21   32      6.61      0.00
    3   21   32     -0.20      0.00
    5   21   32      0.81      0.00
    7   21   32     -7.43      0.00
    9   21   32      9.98      0.00
   11   21   32      5.40      0.00
   13   21   32      1.34      0.00
   15   21   32      0.25      0.00
   17   21   32     -2.54      0.00
   19   21   32      4.61      0.00
   21   21   32    -19.03      0.00
    0   22   32      7.58      0.00
    2   22   32     -3.34      0.00
    4   22   32      6.66      0.00
    6   22   32     -4.53      0.00
    8   22   32     -0.01      0.00
   10   22   32      2.76      0.00
   12   22   32     -8.31      0.00
   14   22   32     -9.24      0.00
   16   22   32     -2.75      0.00
   18   22   32      5.97      0.00
   20   22   32     -8.46      0.00
    1   23   32     10.59      0.00
    3   23   32      5.43      0.00
    5   23   32      2.06      0.00
    7   23   32     -4.33      0.00
    9   23   32     -4.36      0.00
   11   23   32      1.92      0.00
   13   23   32     -5.66      0.00
   15   23   32      7.53      0.00
   17   23   32      5.75      0.00
   19   23   32     17.94      0.00
    0   24   32      1.36      0.00
    2   24   32     -6.43      0.00
    4   24   32      4.65      0.00
    6   24   32     -9.60      0.00
    8   24   32     -5.56      0.00
   10   24   32      1.79      0.00
   12   24   32     -5.54      0.00
   14   24   32     -6.81      0.00
   16   24   32      3.14      0.00
   18   24   32      3.29      0.00
    1   25   32     -4.31      0.00
    3   25   32      7.65      0.00
    5   25   32      3.59      0.00
    7   25   32      8.81      0.00
    9   25   32      6.80      0.00
   11   25   32      5.55      0.00
   13   25   32      2.18      0.00
   15   25   32      4.55      0.00
   17   25   32     -2.77      0.00
    0   26   32     -8.94      0.00
    2   26   32    -10.12      0.00
    4   26   32     -1.12      0.00
    6   26   32     -2.24      0.00
    8   26   32     -3.29      0.00
   10   26   32     -1.07      0.00
   12   26   32      2.28      0.00
   14   26   32     -0.06      0.00
   16   26   32      2.84      0.00
    1   27   32     -5.34      0.00
    3   27   32      7.29      0.00
    5   27   32      3.47      0.00
    7   27   32     -8.01      0.00
    9   27   32    -18.77      0.00
   11   27   32      3.85      0.00
   13   27   32      3.14      0.00
   15   27   32     -3.88      0.00
    0   28   32      8.36      0.00
    2   28   32     -8.23      0.00
    4   28   32     -0.87      0.00
    6   28   32     -4.20      0.00
    8   28   32     -0.19      0.00
   10   28   32     -3.97      0.00
   12   28   32     -3.66      0.00
   14   28   32      5.97      0.00
    1   29   32      6.82      0.00
    3   29   32     -7.23      0.00
    5   29   32     -3.14      0.00
    7   29   32     -0.74      0.00
    9   29   32    -13.60      0.00
   11   29   32      3.98      0.00
    0   30   32      3.47      0.00
    2   30   32     -0.71      0.00
    4   30   32     -8.20      0.00
    6   30   32     -8.20      0.00
    8   30   32      5.77      0.00
   10   30   32      3.04      0.00
    1   31   32     16.72      0.00
    3   31   32    -16.43      0.00
    5   31   32      2.19      0.00
    0    1   33      1.79      0.00
    1    2   33     -7.06      0.00
    0    3   33     14.70      0.00
    2    3   33     -8.13      0.00
    1    4   33      5.64      0.00
    3    4   33      3.48      0.00
    0    5   33    -10.90      0.00
    2    5   33     -4.23      0.00
    4    5   33     -1.71      0.00
    1    6   33     -3.16      0.00
    3    6   33     -2.08      0.00
    5    6   33     -5.11      0.00
    0    7   33     16.09      0.00
    2    7   33     -9.21      0.00
    4    7   33      8.79      0.00
    6    7   33     -1.49      0.00
    1    8   33     -0.03      0.00
    3    8   33     -5.75      0.00
    5    8   33     -5.95      0.00
    7    8   33     11.01      0.00
    0    9   33     -1.62      0.00
    2    9   33     -3.84      0.00
    4    9   33     -8.09      0.00
    6    9   33     -0.51      0.00
    8    9   33     -3.23      0.00
    1   10   33      0.29      0.00
    3   10   33      2.69      0.00
    5   10   33      5.90      0.00
    7   10   33      9.10      0.00
    9   10   33     -9.64      0.00
    0   11   33     15.09      0.00
    2   11   33     -9.48      0.00
    4   11   33     10.01      0.00
    6   11   33    -10.33      0.00
    8   11   33      5.53      0.00
   10   11   33      3.40      0.00
    1   12   33     -0.47      0.00
    3   12   33     -3.07      0.00
    5   12   33      2.44      0.00
    7   12   33      5.24      0.00
    9   12   33      7.62      0.00
   11   12   33      5.02      0.00
    0   13   33    -10.25      0.00
    2   13   33     -2.82      0.00
    4   13   33     -6.12      0.00
    6   13   33     -6.23      0.00
    8   13   33      1.49      0.00
   10   13   33     -3.20      0.00
   12   13   33      7.62      0.00
    1   14   33     -0.37      0.00
    3   14   33     -7.82      0.00
    5   14   33     -2.97      0.00
    7   14   33      8.57      0.00
    9   14   33     -5.35      0.00
   11   14   33      4.50      0.00
   13   14   33    -12.90      0.00
    0   15   33     10.59      0.00
    2   15   33     -8.76      0.00
    4   15   33     10.65      0.00
    6   15   33     -5.01      0.00
    8   15   33      8.08      0.00
   10   15   33     10.36      0.00
   12   15   33      4.09      0.00
   14   15   33      6.91      0.00
    1   16   33      3.76      0.00
    3   16   33     -1.91      0.00
    5   16   33      1.91      0.00
    7   16   33      5.52      0.00
    9   16   33     -1.97      0.00
   11   16   33      3.99      0.00
   13   16   33     -2.25      0.00
   15   16   33      3.17      0.00
    0   17   33      0.99      0.00
    2   17   33     -8.90      0.00
    4   17   33      5.99      0.00
    6   17   33     -9.55      0.00
    8   17   33      2.02      0.00
   10   17   33      4.95      0.00
   12   17   33      2.45      0.00
   14   17   33      0.77      0.00
   16   17   33      1.00      0.00
    1   18   33     -0.02      0.00
    3   18   33     -3.25      0.00
    5   18   33    -11.28      0.00
    7   18   33     12.44      0.00
    9   18   33    -12.57      0.00
   11   18   33      2.43      0.00
   13   18   33     -5.32      0.00
   15   18   33      1.96      0.00
   17   18   33     -6.08      0.00
    0   19   33      7.29      0.00
    2   19   33    -12.00      0.00
    4   19   33      3.80      0.00
    6   19   33     -3.86      0.00
    8   19   33      4.79      0.00
   10   19   33      4.31      0.00
   12   19   33      0.19      0.00
   14   19   33      1.32      0.00
   16   19   33     -1.10      0.00
   18   19   33      3.58      0.00
    1   20   33     -1.43      0.00
    3   20   33    -10.31      0.00
    5   20   33     -2.59      0.00
    7   20   33     -6.14      0.00
    9   20   33    -11.97      0.00
   11   20   33      0.80      0.00
   13   20   33     -2.65      0.00
   15   20   33     -1.10      0.00
   17   20   33      3.31      0.00
   19   20   33     -0.92      0.00
    0   21   33      7.36      0.00
    2   21   33     -5.00      0.00
    4   21   33      1.24      0.00
    6   21   33     -8.27      0.00
    8   21   33      7.12      0.00
   10   21   33     -3.11      0.00
   12   21   33      3.91      0.00
   14   21   33     -3.04      0.00
   16   21   33      5.33      0.00
   18   21   33    -10.48      0.00
   20   21   33     -4.88      0.00
    1   22   33     -0.65      0.00
    3   22   33      3.81      0.00
    5   22   33    -11.57      0.00
    7   22   33     -0.81      0.00
    9   22   33     20.32      0.00
   11   22   33      1.31      0.00
   13   22   33      0.18      0.00
   15   22   33    -13.44      0.00
   17   22   33      6.76      0.00
   19   22   33      5.30      0.00
    0   23   33     14.88      0.00
    2   23   33      7.70      0.00
    4   23   33      4.19      0.00
    6   23   33     -4.25      0.00
    8   23   33     -2.44      0.00
   10   23   33     -2.42      0.00
   12   23   33     -7.12      0.00
   14   23   33     -7.56      0.00
   16   23   33     -8.71      0.00
   18   23   33      8.44      0.00
    1   24   33     -1.02      0.00
    3   24   33     12.18      0.00
    5   24   33     -8.95      0.00
    7   24   33     -7.17      0.00
    9   24   33      6.16      0.00
   11   24   33      0.09      0.00
   13   24   33      7.09      0.00
   15   24   33     -3.91      0.00
   17   24   33      0.36      0.00
    0   25   33      0.93      0.00
    2   25   33     -5.27      0.00
    4   25   33      1.40      0.00
    6   25   33     -3.45      0.00
    8   25   33      1.22      0.00
   10   25   33     -2.81      0.00
   12   25   33      1.53      0.00
   14   25   33     -0.79      0.00
   16   25   33      1.79      0.00
    1   26   33      3.21      0.00
    3   26   33      3.60      0.00
    5   26   33    -12.78      0.00
    7   26   33      6.94      0.00
    9   26   33     -3.99      0.00
   11   26   33      1.56      0.00
   13   26   33      5.37      0.00
   15   26   33     -1.99      0.00
    0   27   33      8.76      0.00
    2   27   33     -5.10      0.00
    4   27   33      2.19      0.00
    6   27   33     -7.78      0.00
    8   27   33    -12.05      0.00
   10   27   33     -3.31      0.00
   12   27   33      4.66      0.00
   14   27   33      4.79      0.00
    1   28   33     14.64      0.00
    3   28   33      2.23      0.00
    5   28   33    -16.54      0.00
    7   28   33      8.77      0.00
    9   28   33     -6.74      0.00
   11   28   33     -6.04      0.00
    0   29   33     -4.04      0.00
    2   29   33     -1.40      0.00
    4   29   33      1.24      0.00
    6   29   33      0.93      0.00
    8   29   33      5.76      0.00
    1   30   33     -9.74      0.00
    3   30   33     -7.18      0.00
    5   30   33     -4.43      0.00
    0    0   34     34.47      0.00
    1    1   34      3.85      0.00
    0    2   34     -7.31      0.00
    2    2   34     -3.38      0.00
    1    3   34     -0.66      0.00
    3    3   34     -0.41      0.00
    0    4   34     15.72      0.00
    2    4   34     -7.18      0.00
    4    4   34     15.83      0.00
    1    5   34      2.74      0.00
    3    5   34      2.03      0.00
    5    5   34      5.26      0.00
    0    6   34     -8.89      0.00
    2    6   34      4.09      0.00
    4    6   34      1.84      0.00
    6    6   34     -2.28      0.00
    1    7   34     -3.40      0.00
    3    7   34      9.89      0.00
    5    7   34      1.69      0.00
    7    7   34     13.74      0.00
    0    8   34      6.85      0.00
    2    8   34     -1.73      0.00
    4    8   34     14.01      0.00
    6    8   34      0.79      0.00
    8    8   34      8.10      0.00
    1    9   34     -8.67      0.00
    3    9   34     -2.95      0.00
    5    9   34      1.34      0.00
    7    9   34     -0.12      0.00
    9    9   34     -5.56      0.00
    0   10   34     -8.91      0.00
    2   10   34     -5.87      0.00
    4   10   34      5.86      0.00
    6   10   34     -3.09      0.00
    8   10   34     10.23      0.00
   10   10   34     -9.97      0.00
    1   11   34      3.61      0.00
    3   11   34      8.39      0.00
    5   11   34      1.74      0.00
    7   11   34     10.42      0.00
    9   11   34     -1.08      0.00
   11   11   34    -11.46      0.00
    0   12   34     10.01      0.00
    2   12   34     -0.07      0.00
    4   12   34      8.98      0.00
    6   12   34     -2.13      0.00
    8   12   34     -1.54      0.00
   10   12   34      1.57      0.00
   12   12   34     -1.77      0.00
    1   13   34      0.44      0.00
    3   13   34      1.27      0.00
    5   13   34     -1.98      0.00
    7   13   34     -8.45      0.00
    9   13   34     -6.39      0.00
   11   13   34    -10.58      0.00
   13   13   34    -16.98      0.00
    0   14   34      9.05      0.00
    2   14   34     -4.47      0.00
    4   14   34     10.29      0.00
    6   14   34      0.13      0.00
    8   14   34      5.16      0.00
   10   14   34     -3.50      0.00
   12   14   34     -0.03      0.00
   14   14   34     -1.70      0.00
    1   15   34     -0.25      0.00
    3   15   34      5.83      0.00
    5   15   34      6.81      0.00
    7   15   34      6.84      0.00
    9   15   34      0.15      0.00
   11   15   34      4.57      0.00
   13   15   34      1.50      0.00
   15   15   34      5.47      0.00
    0   16   34      8.90      0.00
    2   16   34     -5.70      0.00
    4   16   34      1.89      0.00
    6   16   34     -3.71      0.00
    8   16   34      1.13      0.00
   10   16   34      3.52      0.00
   12   16   34     -5.88      0.00
   14   16   34     -9.96      0.00
   16   16   34    -13.22      0.00
    1   17   34     -5.23      0.00
    3   17   34     -1.28      0.00
    5   17   34      1.76      0.00
    7   17   34      5.18      0.00
    9   17   34     -6.34      0.00
   11   17   34      9.90      0.00
   13   17   34     -7.64      0.00
   15   17   34      3.31      0.00
   17   17   34     -4.69      0.00
    0   18   34     14.10      0.00
    2   18   34    -13.46      0.00
    4   18   34      6.52      0.00
    6   18   34     -4.51      0.00
    8   18   34      0.89      0.00
   10   18   34      2.26      0.00
   12   18   34      0.88      0.00
   14   18   34      0.59      0.00
   16   18   34      0.17      0.00
   18   18   34      0.85      0.00
    1   19   34     -0.67      0.00
    3   19   34      1.93      0.00
    5   19   34     -0.01      0.00
    7   19   34     11.57      0.00
    9   19   34    -11.62      0.00
   11   19   34      5.13      0.00
   13   19   34     -5.91      0.00
   15   19   34      1.98      0.00
   17   19   34     -0.24      0.00
   19   19   34     -2.99      0.00
    0   20   34      8.77      0.00
    2   20   34     -3.25      0.00
    4   20   34      0.91      0.00
    6   20   34     -1.06      0.00
    8   20   34      2.49      0.00
   10   20   34     -8.59      0.00
   12   20   34      3.60      0.00
   14   20   34     -1.79      0.00
   16   20   34     -0.47      0.00
   18   20   34     -1.04      0.00
   20   20   34    -14.03      0.00
    1   21   34     -1.13      0.00
    3   21   34     -2.64      0.00
    5   21   34     -2.74      0.00
    7   21   34      7.08      0.00
    9   21   34     -3.33      0.00
   11   21   34     -1.99      0.00
   13   21   34      1.10      0.00
   15   21   34     -3.85      0.00
   17   21   34      3.35      0.00
   19   21   34    -10.82      0.00
    0   22   34     10.51      0.00
    2   22   34     -8.49      0.00
    4   22   34     -5.27      0.00
    6   22   34     -8.14      0.00
    8   22   34      9.25      0.00
   10   22   34      5.65      0.00
   12   22   34      1.92      0.00
   14   22   34     -5.47      0.00
   16   22   34      1.07      0.00
   18   22   34      4.35      0.00
    1   23   34     -1.93      0.00
    3   23   34      0.86      0.00
    5   23   34     -1.20      0.00
    7   23   34      1.98      0.00
    9   23   34     12.14      0.00
   11   23   34     -1.21      0.00
   13   23   34      7.26      0.00
   15   23   34     -6.34      0.00
   17   23   34     -7.68      0.00
    0   24   34      9.91      0.00
    2   24   34      4.52      0.00
    4   24   34      3.44      0.00
    6   24   34     -4.34      0.00
    8   24   34     -2.53      0.00
   10   24   34      0.83      0.00
   12   24   34      3.05      0.00
   14   24   34      1.80      0.00
   16   24   34      4.58      0.00
    1   25   34    -13.87      0.00
    3   25   34      9.82      0.00
    5   25   34     -2.82      0.00
    7   25   34      8.12      0.00
    9   25   34      9.74      0.00
   11   25   34     -3.89      0.00
   13   25   34     13.33      0.00
   15   25   34      0.99      0.00
    0   26   34      8.05      0.00
    2   26   34     -4.67      0.00
    4   26   34      1.42      0.00
    6   26   34      2.47      0.00
    8   26   34      3.43      0.00
   10   26   34     -2.04      0.00
   12   26   34      7.28      0.00
    1   27   34      2.19      0.00
    3   27   34      8.09      0.00
    5   27   34      1.49      0.00
    7   27   34      8.67      0.00
    9   27   34     -0.53      0.00
   11   27   34     14.74      0.00
    0   28   34     12.32      0.00
    2   28   34     -6.64      0.00
    4   28   34    -10.07      0.00
    6   28   34     -0.54      0.00
    8   28   34      2.45      0.00
    1   29   34     -0.73      0.00
    3   29   34     -0.66      0.00
    5   29   34      0.69      0.00
    0    1   35      7.29      0.00
    1    2   35     -8.77      0.00
    0    3   35     15.66      0.00
    2    3   35     -6.58      0.00
    1    4   35      2.47      0.00
    3    4   35      2.74      0.00
    0    5   35      5.08      0.00
    2    5   35     -2.97      0.00
    4    5   35     -0.48      0.00
    1    6   35     -1.24      0.00
    3    6   35     -2.62      0.00
    5    6   35     -6.96      0.00
    0    7   35      9.70      0.00
    2    7   35     -2.64      0.00
    4    7   35      7.33      0.00
    6    7   35     -1.07      0.00
    1    8   35      1.70      0.00
    3    8   35      7.00      0.00
    5    8   35      0.02      0.00
    7    8   35      4.19      0.00
    0    9   35     -3.79      0.00
    2    9   35     -1.24      0.00
    4    9   35     -2.84      0.00
    6    9   35     -8.96      0.00
    8    9   35     -7.06      0.00
    1   10   35     -5.19      0.00
    3   10   35      3.08      0.00
    5   10   35      0.51      0.00
    7   10   35     -3.57      0.00
    9   10   35     -9.16      0.00
    0   11   35     -3.60      0.00
    2   11   35     -6.93      0.00
    4   11   35     10.57      0.00
    6   11   35      0.21      0.00
    8   11   35      8.72      0.00
   10   11   35     -2.97      0.00
    1   12   35     -1.54      0.00
    3   12   35     -0.67      0.00
    5   12   35     -9.36      0.00
    7   12   35     -2.89      0.00
    9   12   35      2.75      0.00
   11   12   35      9.52      0.00
    0   13   35     -0.25      0.00
    2   13   35     -5.75      0.00
    4   13   35      0.60      0.00
    6   13   35     -2.24      0.00
    8   13   35     -3.60      0.00
   10   13   35      4.09      0.00
   12   13   35     -6.17      0.00
    1   14   35      0.13      0.00
    3   14   35     -0.35      0.00
    5   14   35      2.07      0.00
    7   14   35      0.55      0.00
    9   14   35    -12.28      0.00
   11   14   35      2.50      0.00
   13   14   35     -2.68      0.00
    0   15   35     19.59      0.00
    2   15   35     -5.20      0.00
    4   15   35     10.14      0.00
    6   15   35     -3.87      0.00
    8   15   35     -0.37      0.00
   10   15   35     -5.81      0.00
   12   15   35    -13.11      0.00
   14   15   35      6.19      0.00
    1   16   35      7.97      0.00
    3   16   35      5.68      0.00
    5   16   35      2.49      0.00
    7   16   35      9.95      0.00
    9   16   35     -1.20      0.00
   11   16   35     -1.30      0.00
   13   16   35     -2.60      0.00
   15   16   35     -2.20      0.00
    0   17   35     -4.25      0.00
    2   17   35    -12.06      0.00
    4   17   35      8.93      0.00
    6   17   35     -1.10      0.00
    8   17   35      0.23      0.00
   10   17   35     -7.57      0.00
   12   17   35     -6.90      0.00
   14   17   35     -6.72      0.00
   16   17   35     -0.89      0.00
    1   18   35    -11.09      0.00
    3   18   35     -7.22      0.00
    5   18   35     -5.02      0.00
    7   18   35      9.40      0.00
    9   18   35      2.16      0.00
   11   18   35      9.37      0.00
   13   18   35      1.65      0.00
   15   18   35      3.04      0.00
   17   18   35     -3.03      0.00
    0   19   35     12.59      0.00
    2   19   35     -2.71      0.00
    4   19   35      8.35      0.00
    6   19   35     -1.91      0.00
    8   19   35      6.04      0.00
   10   19   35      5.13      0.00
   12   19   35     -6.38      0.00
   14   19   35     -2.14      0.00
   16   19   35      6.56      0.00
   18   19   35      7.99      0.00
    1   20   35     -0.31      0.00
    3   20   35     -9.62      0.00
    5   20   35     -2.24      0.00
    7   20   35      3.98      0.00
    9   20   35     -5.15      0.00
   11   20   35     -0.31      0.00
   13   20   35     -6.40      0.00
   15   20   35      1.77      0.00
   17   20   35     -8.88      0.00
   19   20   35      3.62      0.00
    0   21   35     -3.97      0.00
    2   21   35     -4.87      0.00
    4   21   35      0.99      0.00
    6   21   35     -7.76      0.00
    8   21   35      6.95      0.00
   10   21   35     -5.61      0.00
   12   21   35      1.69      0.00
   14   21   35      8.05      0.00
   16   21   35      2.12      0.00
   18   21   35      9.20      0.00
    1   22   35     -0.84      0.00
    3   22   35      5.53      0.00
    5   22   35      1.92      0.00
    7   22   35      1.82      0.00
    9   22   35      6.08      0.00
   11   22   35     -3.64      0.00
   13   22   35     -0.55      0.00
   15   22   35     -5.52      0.00
   17   22   35     -3.99      0.00
    0   23   35      5.26      0.00
    2   23   35     -8.62      0.00
    4   23   35      3.81      0.00
    6   23   35      0.81      0.00
    8   23   35     -1.48      0.00
   10   23   35     -1.50      0.00
   12   23   35      0.42      0.00
   14   23   35     -1.06      0.00
   16   23   35     -4.11      0.00
    1   24   35     -5.40      0.00
    3   24   35      2.19      0.00
    5   24   35     -3.69      0.00
    7   24   35     -2.92      0.00
    9   24   35     11.04      0.00
   11   24   35      2.00      0.00
   13   24   35     -6.41      0.00
    0   25   35     -0.12      0.00
    2   25   35     -5.65      0.00
    4   25   35      6.76      0.00
    6   25   35     -1.26      0.00
    8   25   35    -10.52      0.00
   10   25   35     -2.63      0.00
   12   25   35     -0.92      0.00
    1   26   35     -3.71      0.00
    3   26   35      1.76      0.00
    5   26   35     -5.83      0.00
    7   26   35      3.92      0.00
    9   26   35     -1.33      0.00
   11   26   35     -3.09      0.00
    0   27   35     -0.46      0.00
    2   27   35     -4.45      0.00
    4   27   35     -0.72      0.00
    6   27   35     -0.85      0.00
    8   27   35      0.57      0.00
    0    0   36     10.70      0.00
    1    1   36      3.25      0.00
    0    2   36     -1.95      0.00
    2    2   36     -8.18      0.00
    1    3   36    -10.78      0.00
    3    3   36     -8.01      0.00
    0    4   36     15.65      0.00
    2    4   36     -3.45      0.00
    4    4   36     10.16      0.00
    1    5   36      4.45      0.00
    3    5   36     -1.82      0.00
    5    5   36     -3.23      0.00
    0    6   36      3.69      0.00
    2    6   36     -2.79      0.00
    4    6   36     -8.16      0.00
    6    6   36    -10.89      0.00
    1    7   36     10.24      0.00
    3    7   36      7.79      0.00
    5    7   36     -5.67      0.00
    7    7   36      2.79      0.00
    0    8   36     15.22      0.00
    2    8   36    -10.53      0.00
    4    8   36      4.89      0.00
    6    8   36     -5.65      0.00
    8    8   36      0.89      0.00
    1    9   36     -9.07      0.00
    3    9   36     -7.28      0.00
    5    9   36     -9.95      0.00
    7    9   36    -10.99      0.00
    9    9   36     -6.55      0.00
    0   10   36     -7.61      0.00
    2   10   36     -5.40      0.00
    4   10   36     -5.17      0.00
    6   10   36     -7.28      0.00
    8   10   36     -2.01      0.00
   10   10   36    -11.97      0.00
    1   11   36      7.37      0.00
    3   11   36     -0.36      0.00
    5   11   36     -0.37      0.00
    7   11   36      7.18      0.00
    9   11   36     -1.07      0.00
   11   11   36      9.53      0.00
    0   12   36      2.94      0.00
    2   12   36     -8.16      0.00
    4   12   36      0.27      0.00
    6   12   36    -10.49      0.00
    8   12   36     -8.98      0.00
   10   12   36      5.80      0.00
   12   12   36      2.24      0.00
    1   13   36     -2.42      0.00
    3   13   36     -2.88      0.00
    5   13   36     -7.59      0.00
    7   13   36      0.16      0.00
    9   13   36     -7.53      0.00
   11   13   36      7.88      0.00
   13   13   36      2.43      0.00
    0   14   36     -0.82      0.00
    2   14   36     -0.21      0.00
    4   14   36      5.86      0.00
    6   14   36     -8.68      0.00
    8   14   36      1.42      0.00
   10   14   36     -7.34      0.00
   12   14   36      1.26      0.00
   14   14   36     -1.34      0.00
    1   15   36      2.62      0.00
    3   15   36     -5.08      0.00
    5   15   36     -3.91      0.00
    7   15   36      5.84      0.00
    9   15   36     -4.85      0.00
   11   15   36     17.98      0.00
   13   15   36     -1.25      0.00
   15   15   36     -8.49      0.00
    0   16   36      1.07      0.00
    2   16   36    -10.92      0.00
    4   16   36      8.57      0.00
    6   16   36      0.62      0.00
    8   16   36      6.59      0.00
   10   16   36      6.22      0.00
   12   16   36      4.99      0.00
   14   16   36      1.10      0.00
   16   16   36     -9.21      0.00
    1   17   36     -6.92      0.00
    3   17   36     -5.62      0.00
    5   17   36     11.76      0.00
    7   17   36     13.67      0.00
    9   17   36    -11.68      0.00
   11   17   36      2.73      0.00
   13   17   36      1.14      0.00
   15   17   36      1.75      0.00
   17   17   36      8.34      0.00
    0   18   36      9.04      0.00
    2   18   36     -1.71      0.00
    4   18   36     10.56      0.00
    6   18   36     -5.42      0.00
    8   18   36      2.62      0.00
   10   18   36     -2.09      0.00
   12   18   36      7.16      0.00
   14   18   36     -1.46      0.00
   16   18   36      8.73      0.00
   18   18   36     12.29      0.00
    1   19   36      6.75      0.00
    3   19   36     -2.81      0.00
    5   19   36     -1.39      0.00
    7   19   36      4.83      0.00
    9   19   36     -4.38      0.00
   11   19   36      0.28      0.00
   13   19   36      5.31      0.00
   15   19   36      3.79      0.00
   17   19   36      8.62      0.00
    0   20   36     -3.68      0.00
    2   20   36      4.24      0.00
    4   20   36      8.79      0.00
    6   20   36     -4.15      0.00
    8   20   36      3.78      0.00
   10   20   36     -1.47      0.00
   12   20   36     -5.00      0.00
   14   20   36      0.16      0.00
   16   20   36      2.74      0.00
    1   21   36     -0.48      0.00
    3   21   36     -6.54      0.00
    5   21   36      0.45      0.00
    7   21   36     -4.45      0.00
    9   21   36     -5.30      0.00
   11   21   36     -6.25      0.00
   13   21   36     -5.29      0.00
   15   21   36     -1.84      0.00
    0   22   36     -0.86      0.00
    2   22   36     -6.87      0.00
    4   22   36      3.37      0.00
    6   22   36     -1.64      0.00
    8   22   36      7.82      0.00
   10   22   36      2.38      0.00
   12   22   36      3.52      0.00
   14   22   36      0.53      0.00
    1   23   36     -2.02      0.00
    3   23   36      2.07      0.00
    5   23   36     -1.70      0.00
    7   23   36     -2.18      0.00
    9   23   36     -7.28      0.00
   11   23   36    -24.32      0.00
   13   23   36      1.49      0.00
    0   24   36      8.01      0.00
    2   24   36      1.40      0.00
    4   24   36      3.20      0.00
    6   24   36     -0.64      0.00
    8   24   36     -4.05      0.00
   10   24   36     -7.74      0.00
   12   24   36      0.86      0.00
    1   25   36     -9.90      0.00
    3   25   36      6.61      0.00
    5   25   36    -10.90      0.00
    7   25   36     -3.55      0.00
    9   25   36     -5.47      0.00
    0   26   36      7.32      0.00
    2   26   36     -0.85      0.00
    4   26   36      6.04      0.00
    6   26   36     -0.76      0.00
    0    1   37      6.86      0.00
    1    2   37     -4.22      0.00
    0    3   37      4.49      0.00
    2    3   37     -4.34      0.00
    1    4   37      6.93      0.00
    3    4   37      2.76      0.00
    0    5   37     -0.24      0.00
    2    5   37    -11.27      0.00
    4    5   37      3.22      0.00
    1    6   37     -1.56      0.00
    3    6   37     -1.85      0.00
    5    6   37     -3.54      0.00
    0    7   37      9.22      0.00
    2    7   37     -1.69      0.00
    4    7   37      3.17      0.00
    6    7   37      7.43      0.00
    1    8   37      5.44      0.00
    3    8   37      5.12      0.00
    5    8   37      7.29      0.00
    7    8   37     11.08      0.00
    0    9   37      6.28      0.00
    2    9   37    -10.05      0.00
    4    9   37      6.06      0.00
    6    9   37     -4.14      0.00
    8    9   37     -3.23      0.00
    1   10   37      0.67      0.00
    3   10   37      0.34      0.00
    5   10   37     -5.07      0.00
    7   10   37     -8.60      0.00
    9   10   37     -7.38      0.00
    0   11   37      3.19      0.00
    2   11   37      6.89      0.00
    4   11   37      9.27      0.00
    6   11   37      1.90      0.00
    8   11   37      6.00      0.00
   10   11   37      4.37      0.00
    1   12   37     -6.04      0.00
    3   12   37     -1.47      0.00
    5   12   37     -2.85      0.00
    7   12   37      1.18      0.00
    9   12   37      1.31      0.00
   11   12   37     18.55      0.00
    0   13   37      3.80      0.00
    2   13   37     -3.33      0.00
    4   13   37      4.81      0.00
    6   13   37     -6.19      0.00
    8   13   37      5.02      0.00
   10   13   37      0.70      0.00
   12   13   37      4.07      0.00
    1   14   37     -4.11      0.00
    3   14   37      3.16      0.00
    5   14   37      1.97      0.00
    7   14   37     -0.17      0.00
    9   14   37     -7.40      0.00
   11   14   37      1.27      0.00
   13   14   37     -1.20      0.00
    0   15   37     12.56      0.00
    2   15   37      1.68      0.00
    4   15   37     -0.99      0.00
    6   15   37     -5.53      0.00
    8   15   37      1.45      0.00
   10   15   37      3.47      0.00
   12   15   37     -1.31      0.00
   14   15   37      6.62      0.00
    1   16   37      1.07      0.00
    3   16   37     11.82      0.00
    5   16   37     -2.01      0.00
    7   16   37     -1.65      0.00
    9   16   37     -8.00      0.00
   11   16   37      3.43      0.00
   13   16   37      8.52      0.00
   15   16   37     16.50      0.00
    0   17   37     -0.31      0.00
    2   17   37     -8.67      0.00
    4   17   37      0.87      0.00
    6   17   37      1.03      0.00
    8   17   37     -0.35      0.00
   10   17   37    -17.15      0.00
   12   17   37    -11.85      0.00
   14   17   37     -2.57      0.00
   16   17   37     -3.33      0.00
    1   18   37      5.43      0.00
    3   18   37      5.94      0.00
    5   18   37    -10.55      0.00
    7   18   37      7.67      0.00
    9   18   37      7.38      0.00
   11   18   37      7.39      0.00
   13   18   37     10.63      0.00
   15   18   37      0.78      0.00
   17   18   37     -3.48      0.00
    0   19   37      8.79      0.00
    2   19   37      1.50      0.00
    4   19   37      2.60      0.00
    6   19   37     -6.63      0.00
    8   19   37      0.75      0.00
   10   19   37     -1.66      0.00
   12   19   37      7.26      0.00
   14   19   37      5.47      0.00
   16   19   37      9.29      0.00
    1   20   37     -2.52      0.00
    3   20   37      2.25      0.00
    5   20   37      1.74      0.00
    7   20   37      0.33      0.00
    9   20   37     -8.83      0.00
   11   20   37     -3.17      0.00
   13   20   37      7.98      0.00
   15   20   37     -3.11      0.00
    0   21   37     -1.68      0.00
    2   21   37     -5.25      0.00
    4   21   37     -3.26      0.00
    6   21   37     -4.60      0.00
    8   21   37      9.93      0.00
   10   21   37     -4.92      0.00
   12   21   37      2.10      0.00
   14   21   37      7.91      0.00
    1   22   37      7.19      0.00
    3   22   37      3.85      0.00
    5   22   37      1.21      0.00
    7   22   37      2.21      0.00
    9   22   37      4.88      0.00
   11   22   37     -2.09      0.00
   13   22   37     11.39      0.00
    0   23   37      5.85      0.00
    2   23   37      0.99      0.00
    4   23   37     -1.03      0.00
    6   23   37      4.96      0.00
    8   23   37     10.89      0.00
   10   23   37     -7.24      0.00
    1   24   37     11.06      0.00
    3   24   37     10.40      0.00
    5   24   37     -1.03      0.00
    7   24   37      4.63      0.00
    0   25   37      4.88      0.00
    2   25   37     -0.95      0.00
    4   25   37      4.84      0.00
    0    0   38      3.16      0.00
    1    1   38      9.67      0.00
    0    2   38      3.47      0.00
    2    2   38    -20.37      0.00
    1    3   38     -0.44      0.00
    3    3   38      7.86      0.00
    0    4   38      6.86      0.00
    2    4   38      6.02      0.00
    4    4   38      2.72      0.00
    1    5   38     -3.34      0.00
    3    5   38     -2.73      0.00
    5    5   38     -0.90      0.00
    0    6   38      7.06      0.00
    2    6   38     -9.19      0.00
    4    6   38      3.13      0.00
    6    6   38    -11.86      0.00
    1    7   38      9.69      0.00
    3    7   38     12.70      0.00
    5    7   38      3.72      0.00
    7    7   38      6.91      0.00
    0    8   38      5.65      0.00
    2    8   38     -6.80      0.00
    4    8   38      3.00      0.00
    6    8   38     -1.70      0.00
    8    8   38     10.01      0.00
    1    9   38     -0.71      0.00
    3    9   38      7.38      0.00
    5    9   38      3.31      0.00
    7    9   38     10.01      0.00
    9    9   38      0.00      0.00
    0   10   38     -0.56      0.00
    2   10   38     -1.96      0.00
    4   10   38      9.47      0.00
    6   10   38      0.68      0.00
    8   10   38     10.24      0.00
   10   10   38      2.43      0.00
    1   11   38      3.82      0.00
    3   11   38     -9.43      0.00
    5   11   38     -3.86      0.00
    7   11   38      8.85      0.00
    9   11   38     -0.60      0.00
   11   11   38      6.12      0.00
    0   12   38     15.15      0.00
    2   12   38      3.24      0.00
    4   12   38     12.10      0.00
    6   12   38     -2.35      0.00
    8   12   38      7.10      0.00
   10   12   38      6.28      0.00
   12   12   38      1.37      0.00
    1   13   38      6.17      0.00
    3   13   38     -0.16      0.00
    5   13   38     -3.82      0.00
    7   13   38      6.43      0.00
    9   13   38     -6.10      0.00
   11   13   38      8.51      0.00
   13   13   38     25.21      0.00
    0   14   38     -5.27      0.00
    2   14   38      0.35      0.00
    4   14   38      4.04      0.00
    6   14   38     -8.79      0.00
    8   14   38     -9.91      0.00
   10   14   38     -2.35      0.00
   12   14   38      4.12      0.00
   14   14   38      9.28      0.00
    1   15   38     16.26      0.00
    3   15   38     14.78      0.00
    5   15   38     11.91      0.00
    7   15   38     -5.94      0.00
    9   15   38    -16.13      0.00
   11   15   38     12.47      0.00
   13   15   38    -15.17      0.00
   15   15   38     -8.52      0.00
    0   16   38     -2.40      0.00
    2   16   38     -2.70      0.00
    4   16   38      3.72      0.00
    6   16   38     -3.43      0.00
    8   16   38     -0.94      0.00
   10   16   38     10.47      0.00
   12   16   38      2.34      0.00
   14   16   38      0.56      0.00
   16   16   38    -13.06      0.00
    1   17   38     -1.81      0.00
    3   17   38     -6.61      0.00
    5   17   38     -6.06      0.00
    7   17   38     -6.03      0.00
    9   17   38    -14.23      0.00
   11   17   38     -4.92      0.00
   13   17   38    -12.58      0.00
   15   17   38      5.15      0.00
    0   18   38     -6.62      0.00
    2   18   38     -5.92      0.00
    4   18   38     -1.15      0.00
    6   18   38     -3.13      0.00
    8   18   38      0.90      0.00
   10   18   38     -3.60      0.00
   12   18   38      1.96      0.00
   14   18   38     -1.47      0.00
    1   19   38     10.08      0.00
    3   19   38     -4.88      0.00
    5   19   38      2.63      0.00
    7   19   38      8.53      0.00
    9   19   38     -2.26      0.00
   11   19   38      9.89      0.00
   13   19   38     12.25      0.00
    0   20   38      8.15      0.00
    2   20   38      0.68      0.00
    4   20   38      3.61      0.00
    6   20   38    -13.48      0.00
    8   20   38     -4.64      0.00
   10   20   38     -6.71      0.00
   12   20   38      2.94      0.00
    1   21   38      9.65      0.00
    3   21   38    -10.70      0.00
    5   21   38     -0.87      0.00
    7   21   38     -4.30      0.00
    9   21   38     -2.02      0.00
   11   21   38     10.54      0.00
    0   22   38     -5.54      0.00
    2   22   38      0.18      0.00
    4   22   38      6.42      0.00
    6   22   38     -3.04      0.00
    8   22   38      8.25      0.00
    1   23   38      0.25      0.00
    3   23   38      8.96      0.00
    5   23   38     -2.66      0.00
    7   23   38      3.31      0.00
    0    1   39      8.70      0.00
    1    2   39     -4.94      0.00
    0    3   39      3.12      0.00
    2    3   39     -5.37      0.00
    1    4   39      3.10      0.00
    3    4   39     -1.56      0.00
    0    5   39      2.41      0.00
    2    5   39     -6.34      0.00
    4    5   39      1.94      0.00
    1    6   39     -4.60      0.00
    3    6   39     -0.70      0.00
    5    6   39      5.43      0.00
    0    7   39     16.25      0.00
    2    7   39      1.50      0.00
    4    7   39      5.35      0.00
    6    7   39      0.31      0.00
    1    8   39      5.89      0.00
    3    8   39     -1.35      0.00
    5    8   39     -3.91      0.00
    7    8   39      5.56      0.00
    0    9   39      2.68      0.00
    2    9   39     -7.01      0.00
    4    9   39     -6.13      0.00
    6    9   39     -9.69      0.00
    8    9   39     -3.53      0.00
    1   10   39     -3.63      0.00
    3   10   39      0.93      0.00
    5   10   39    -12.20      0.00
    7   10   39      0.19      0.00
    9   10   39    -20.93      0.00
    0   11   39      1.18      0.00
    2   11   39      2.48      0.00
    4   11   39      2.28      0.00
    6   11   39     -6.80      0.00
    8   11   39      4.60      0.00
   10   11   39     -4.24      0.00
    1   12   39      2.84      0.00
    3   12   39      4.54      0.00
    5   12   39      7.43      0.00
    7   12   39      9.36      0.00
    9   12   39     23.73      0.00
   11   12   39      3.61      0.00
    0   13   39     -0.64      0.00
    2   13   39     -4.82      0.00
    4   13   39      0.65      0.00
    6   13   39     -8.29      0.00
    8   13   39     -1.11      0.00
   10   13   39      3.89      0.00
   12   13   39     -0.06      0.00
    1   14   39    -13.91      0.00
    3   14   39      1.86      0.00
    5   14   39      6.51      0.00
    7   14   39      5.03      0.00
    9   14   39     -8.56      0.00
   11   14   39     -1.90      0.00
   13   14   39      1.14      0.00
    0   15   39      3.81      0.00
    2   15   39      0.74      0.00
    4   15   39      1.02      0.00
    6   15   39      6.23      0.00
    8   15   39     -3.17      0.00
   10   15   39      1.20      0.00
   12   15   39     -3.57      0.00
   14   15   39     -3.21      0.00
    1   16   39      0.76      0.00
    3   16   39     -1.75      0.00
    5   16   39     -4.60      0.00
    7   16   39    -10.90      0.00
    9   16   39    -16.62      0.00
   11   16   39    -12.27      0.00
   13   16   39     -9.90      0.00
   15   16   39      1.36      0.00
    0   17   39     -4.72      0.00
    2   17   39     -6.57      0.00
    4   17   39     -0.04      0.00
    6   17   39     -2.90      0.00
    8   17   39      1.23      0.00
   10   17   39     -1.20      0.00
   12   17   39     -1.83      0.00
   14   17   39      8.05      0.00
    1   18   39      5.79      0.00
    3   18   39      9.48      0.00
    5   18   39      6.38      0.00
    7   18   39      4.00      0.00
    9   18   39      1.16      0.00
   11   18   39     -0.39      0.00
   13   18   39    -12.52      0.00
    0   19   39      7.46      0.00
    2   19   39      2.12      0.00
    4   19   39      5.52      0.00
    6   19   39     -2.48      0.00
    8   19   39      6.63      0.00
   10   19   39     -1.23      0.00
   12   19   39     -2.30      0.00
    1   20   39     -5.23      0.00
    3   20   39     -6.83      0.00
    5   20   39     -0.94      0.00
    7   20   39     -1.45      0.00
    9   20   39      1.34      0.00
    2   21   39     -9.34      0.00
    4   21   39     -5.36      0.00
    6   21   39     -3.92      0.00
    1   22   39    -13.63      0.00
    3   22   39      1.23      0.00
    0    0   40     11.89      0.00
    1    1   40    -12.93      0.00
    0    2   40      3.06      0.00
    2    2   40    -13.39      0.00
    1    3   40      4.05      0.00
    3    3   40     22.18      0.00
    0    4   40     -1.99      0.00
    2    4   40      5.25      0.00
    4    4   40      3.31      0.00
    1    5   40     -6.58      0.00
    3    5   40     -4.26      0.00
    5    5   40     -7.08      0.00
    0    6   40      2.70      0.00
    2    6   40    -10.86      0.00
    4    6   40      7.68      0.00
    6    6   40     -8.40      0.00
    1    7   40      1.25      0.00
    3    7   40      1.31      0.00
    5    7   40      3.45      0.00
    7    7   40      7.74      0.00
    0    8   40      2.95      0.00
    2    8   40      1.31      0.00
    4    8   40      3.30      0.00
    6    8   40     -0.40      0.00
    8    8   40      9.10      0.00
    1    9   40      7.14      0.00
    3    9   40      9.47      0.00
    5    9   40      1.01      0.00
    7    9   40      3.78      0.00
    9    9   40    -24.28      0.00
    0   10   40     -0.33      0.00
    2   10   40     -5.17      0.00
    4   10   40      7.91      0.00
    6   10   40     -2.94      0.00
    8   10   40      4.62      0.00
   10   10   40      1.54      0.00
    1   11   40      2.91      0.00
    3   11   40     -9.24      0.00
    5   11   40     -2.80      0.00
    7   11   40      6.33      0.00
    9   11   40      0.02      0.00
   11   11   40      0.14      0.00
    0   12   40      1.28      0.00
    2   12   40     -1.15      0.00
    4   12   40      5.29      0.00
    6   12   40     -5.30      0.00
    8   12   40     -2.81      0.00
   10   12   40     -2.10      0.00
   12   12   40     -4.91      0.00
    1   13   40     -4.46      0.00
    3   13   40    -11.30      0.00
    5   13   40    -12.36      0.00
    7   13   40     -9.03      0.00
    9   13   40     -8.84      0.00
   11   13   40    -11.72      0.00
   13   13   40     14.06      0.00
    0   14   40      8.32      0.00
    2   14   40     -6.96      0.00
    4   14   40     -8.85      0.00
    6   14   40     -2.27      0.00
    8   14   40     -6.36      0.00
   10   14   40      0.78      0.00
   12   14   40     -6.71      0.00
   14   14   40     -7.96      0.00
    1   15   40      2.42      0.00
    3   15   40      4.89      0.00
    5   15   40      9.84      0.00
    7   15   40      7.21      0.00
    9   15   40     -3.58      0.00
   11   15   40      0.69      0.00
   13   15   40     -5.18      0.00
    0   16   40     -4.87      0.00
    2   16   40     -2.35      0.00
    4   16   40     -2.66      0.00
    6   16   40      3.45      0.00
    8   16   40      8.45      0.00
   10   16   40     -2.58      0.00
   12   16   40      7.12      0.00
    1   17   40     -9.08      0.00
    3   17   40      2.38      0.00
    5   17   40      5.27      0.00
    7   17   40      0.87      0.00
    9   17   40      2.43      0.00
   11   17   40     -2.30      0.00
    0   18   40     -0.86      0.00
    2   18   40      1.66      0.00
    4   18   40      7.92      0.00
    6   18   40      1.88      0.00
    8   18   40     -4.67      0.00
    1   19   40     10.23      0.00
    3   19   40      4.65      0.00
    5   19   40      5.77      0.00
    7   19   40      1.11      0.00
    2   20   40      0.15      0.00
    4   20   40      2.19      0.00
    0    1   41      9.04      0.00
    1    2   41     -3.82      0.00
    0    3   41      8.88      0.00
    2    3   41     -6.27      0.00
    1    4   41     -1.36      0.00
    3    4   41      2.76      0.00
    0    5   41     -5.29      0.00
    2    5   41     -2.27      0.00
    4    5   41     -2.18      0.00
    1    6   41     -4.16      0.00
    3    6   41     -0.28      0.00
    5    6   41     -4.36      0.00
    0    7   41     10.70      0.00
    2    7   41     -4.36      0.00
    4    7   41      0.78      0.00
    6    7   41     -1.10      0.00
    1    8   41      3.35      0.00
    3    8   41      1.89      0.00
    5    8   41      6.27      0.00
    7    8   41     14.50      0.00
    0    9   41     -0.25      0.00
    2    9   41     -0.16      0.00
    4    9   41     -8.30      0.00
    6    9   41     -4.75      0.00
    8    9   41      2.75      0.00
    1   10   41     -1.75      0.00
    3   10   41      1.56      0.00
    5   10   41    -13.29      0.00
    7   10   41      2.48      0.00
    9   10   41     -8.01      0.00
    0   11   41      2.72      0.00
    2   11   41     -0.45      0.00
    4   11   41     14.41      0.00
    6   11   41      0.07      0.00
    8   11   41     11.13      0.00
   10   11   41     12.76      0.00
    1   12   41     -4.20      0.00
    3   12   41     16.63      0.00
    5   12   41      6.77      0.00
    7   12   41     -0.26      0.00
    9   12   41      9.33      0.00
   11   12   41     -0.76      0.00
    0   13   41     -2.05      0.00
    2   13   41     -2.15      0.00
    4   13   41      6.58      0.00
    6   13   41     -3.53      0.00
    8   13   41     -2.30      0.00
   10   13   41      1.88      0.00
   12   13   41     -4.05      0.00
    1   14   41      2.46      0.00
    3   14   41     12.21      0.00
    5   14   41    -14.82      0.00
    7   14   41      7.09      0.00
    9   14   41     -4.32      0.00
   11   14   41      5.87      0.00
    0   15   41      8.00      0.00
    2   15   41     -0.04      0.00
    4   15   41      2.03      0.00
    6   15   41      1.41      0.00
    8   15   41      0.16      0.00
   10   15   41     -0.87      0.00
    1   16   41      3.50      0.00
    3   16   41     -5.96      0.00
    5   16   41     -6.85      0.00
    7   16   41     -2.47      0.00
    9   16   41     -4.63      0.00
    0   17   41     -5.08      0.00
    2   17   41     -1.60      0.00
    4   17   41     -5.42      0.00
    6   17   41     -2.29      0.00
    1   18   41      1.48      0.00
    3   18   41    -13.45      0.00
    0    0   42     14.97      0.00
    1    1   42     -7.58      0.00
    0    2   42      1.81      0.00
    2    2   42     -0.39      0.00
    1    3   42     10.54      0.00
    3    3   42     -0.05      0.00
    0    4   42     10.93      0.00
    2    4   42     -1.77      0.00
    4    4   42      7.70      0.00
    1    5   42      2.14      0.00
    3    5   42     -9.56      0.00
    5    5   42    -20.59      0.00
    0    6   42     -7.20      0.00
    2    6   42     -5.71      0.00
    4    6   42     -0.71      0.00
    6    6   42    -10.79      0.00
    1    7   42     -8.24      0.00
    3    7   42    -10.95      0.00
    5    7   42     -9.71      0.00
    7    7   42     -7.54      0.00
    0    8   42      4.45      0.00
    2    8   42      4.34      0.00
    4    8   42      3.27      0.00
    6    8   42      0.30      0.00
    8    8   42      7.86      0.00
    1    9   42     -9.12      0.00
    3    9   42     -7.40      0.00
    5    9   42    -13.24      0.00
    7    9   42     -4.28      0.00
    9    9   42     -8.38      0.00
    0   10   42     10.80      0.00
    2   10   42    -11.39      0.00
    4   10   42     -4.90      0.00
    6   10   42     -8.83      0.00
    8   10   42     -7.38      0.00
   10   10   42     -8.48      0.00
    1   11   42     18.24      0.00
    3   11   42      4.95      0.00
    5   11   42     -7.81      0.00
    7   11   42     12.84      0.00
    9   11   42      4.78      0.00
   11   11   42      1.50      0.00
    0   12   42      3.74      0.00
    2   12   42     -4.52      0.00
    4   12   42     -1.54      0.00
    6   12   42      6.26      0.00
    8   12   42     -0.51      0.00
   10   12   42     -2.99      0.00
    1   13   42    -11.85      0.00
    3   13   42      6.83      0.00
    5   13   42    -19.29      0.00
    7   13   42     19.87      0.00
    9   13   42      4.36      0.00
    0   14   42     11.55      0.00
    2   14   42     -8.18      0.00
    4   14   42      8.47      0.00
    6   14   42      4.36      0.00
    8   14   42     -5.84      0.00
    1   15   42    -12.36      0.00
    3   15   42     12.28      0.00
    5   15   42    -11.32      0.00
    2   16   42      4.78      0.00
    1    2   43     -3.41      0.00
    0    3   43     11.62      0.00
    2    3   43      0.54      0.00
    1    4   43      3.53      0.00
    3    4   43      5.14      0.00
    0    5   43     -5.78      0.00
    2    5   43     -5.93      0.00
    4    5   43      2.07      0.00
    1    6   43     -6.02      0.00
    3    6   43      1.52      0.00
    5    6   43     -1.75      0.00
    0    7   43      4.40      0.00
    2    7   43     -6.58      0.00
    4    7   43      0.86      0.00
    6    7   43     -2.93      0.00
    1    8   43      2.94      0.00
    3    8   43      6.70      0.00
    5    8   43      3.72      0.00
    7    8   43      5.00      0.00
    0    9   43     -2.22      0.00
    2    9   43     -5.85      0.00
    4    9   43      1.79      0.00
    6    9   43     -7.85      0.00
    8    9   43     -5.20      0.00
    1   10   43    -10.99      0.00
    3   10   43      1.01      0.00
    5   10   43     -3.48      0.00
    7   10   43     -6.90      0.00
    0   11   43      6.53      0.00
    2   11   43      2.00      0.00
    4   11   43     10.82      0.00
    6   11   43     -4.15      0.00
    1   12   43    -10.77      0.00
    3   12   43      1.33      0.00
    5   12   43    -16.53      0.00
    2   13   43    -12.80      0.00
    2    6   44     -5.69      0.00
    1    7   44      3.27      0.00
    0    1    1    187.55      0.00
    0    0    2    382.10      0.00
    1    1    2   -261.40      0.00
    0    2    2   -363.83      0.00
    0   13   13      1.99      0.00
    0   14   14     36.89      0.00
    1   14   15     20.18      0.00
   24   24   24    -25.18      0.00
   24   25   25     -6.57      0.00
   24   24   26     -0.62      0.00
   23   25   26     -0.08      0.00
   25   25   26      7.22      0.00
   24   26   26      3.63      0.00
   26   26   26     18.92      0.00
   24   25   27     -4.27      0.00
   23   26   27      3.98      0.00
   25   26   27      0.27      0.00
   22   27   27    -10.57      0.00
   24   27   27     -7.53      0.00
   24   24   28      1.55      0.00
   23   25   28    -10.33      0.00
   25   25   28    -15.19      0.00
   22   26   28      3.64      0.00
   24   26   28     -1.64      0.00
   21   27   28     17.87      0.00
   23   27   28     11.53      0.00
   20   28   28     -2.73      0.00
   22   28   28      4.09      0.00
   23   24   29      0.34      0.00
   22   25   29     -2.30      0.00
   24   25   29      5.29      0.00
   21   26   29    -15.12      0.00
   23   26   29      5.51      0.00
   20   27   29      3.32      0.00
   22   27   29      4.49      0.00
   19   28   29      0.94      0.00
   18   29   29      4.54      0.00
   23   23   30     -7.88      0.00
   22   24   30      3.33      0.00
   24   24   30      3.05      0.00
   21   25   30     -0.51      0.00
   23   25   30     -4.13      0.00
   20   26   30    -16.09      0.00
   22   26   30     -8.04      0.00
   19   27   30      5.93      0.00
   18   28   30     -4.23      0.00
   17   29   30     -7.86      0.00
   16   30   30     -0.36      0.00
   22   23   31     -1.31      0.00
   21   24   31     -7.06      0.00
   20   25   31     -1.48      0.00
   19   26   31     -5.91      0.00
   18   27   31      3.07      0.00
   17   28   31      4.28      0.00
   16   29   31     -7.14      0.00
   13   30   31      1.99      0.00
   22   22   32     -0.27      0.00
   21   23   32     -6.67      0.00
   20   24   32      1.85      0.00
   19   25   32     -3.90      0.00
   18   26   32      4.47      0.00
   17   27   32      5.56      0.00
   13   29   32     12.92      0.00
    7   31   32      6.54      0.00
    0   32   32     18.87      0.00
    2   32   32      6.35      0.00
   21   22   33    -12.62      0.00
   20   23   33      7.04      0.00
   19   24   33     12.05      0.00
   18   25   33     -4.77      0.00
   17   26   33      5.43      0.00
   13   28   33     -3.28      0.00
   10   29   33      2.94      0.00
    7   30   33      3.26      0.00
    0   31   33    -10.48      0.00
    2   31   33      4.19      0.00
   21   21   34    -12.10      0.00
   20   22   34     -6.54      0.00
   19   23   34     -5.78      0.00
   18   24   34      3.72      0.00
   14   26   34      1.49      0.00
   13   27   34      3.55      0.00
   10   28   34      1.20      0.00
    7   29   34      2.93      0.00
    0   30   34     -6.67      0.00
    2   30   34     -0.28      0.00
   15   24   35     -4.91      0.00
   14   25   35    -10.05      0.00
   10   27   35      5.46      0.00
    1   28   35      3.85      0.00
    3   28   35      2.63      0.00
    5   28   35     -3.94      0.00
    7   28   35      6.82      0.00
   19   19   36     13.91      0.00
   18   20   36     11.27      0.00
   17   21   36     -8.46      0.00
   16   22   36     -0.13      0.00
   15   23   36      2.08      0.00
   11   25   36    -12.34      0.00
    8   26   36     -1.33      0.00
    1   27   36      0.15      0.00
    3   27   36      4.53      0.00
    5   27   36     -9.89      0.00
   18   19   37     -3.19      0.00
   17   20   37    -15.11      0.00
   12   23   37      3.62      0.00
    9   24   37      1.81      0.00
    6   25   37     -3.77      0.00
    8   25   37      1.95      0.00
    1   26   37     -5.27      0.00
    3   26   37     -5.84      0.00
   17   17   38      2.24      0.00
   16   18   38     -5.12      0.00
   15   19   38      0.55      0.00
   14   20   38      0.72      0.00
   13   21   38     -2.08      0.00
   10   22   38     13.57      0.00
    9   23   38      8.45      0.00
    0   24   38    -11.36      0.00
    2   24   38     -4.85      0.00
    4   24   38     -2.10      0.00
    6   24   38     -5.29      0.00
   11   20   39     -1.37      0.00
    0   21   39     -3.81      0.00
    8   21   39      3.30      0.00
    5   22   39      6.05      0.00
    7   22   39     -9.85      0.00
    0   23   39     -3.33      0.00
    2   23   39      0.58      0.00
   15   15   40     -1.53      0.00
   14   16   40     -5.22      0.00
   13   17   40     -3.04      0.00
   10   18   40      2.49      0.00
    9   19   40     -3.09      0.00
    0   20   40      1.21      0.00
    6   20   40     -4.79      0.00
    1   21   40     -0.76      0.00
    3   21   40     -3.12      0.00
   13   14   41      1.62      0.00
   12   15   41     -3.84      0.00
   11   16   41    -14.10      0.00
    8   17   41      4.35      0.00
    5   18   41     -3.35      0.00
    7   18   41      5.95      0.00
    0   19   41      3.28      0.00
    2   19   41      7.44      0.00
    4   19   41      1.87      0.00
   12   12   42      0.94      0.00
   11   13   42      3.49      0.00
   10   14   42     11.93      0.00
    7   15   42      2.83      0.00
    0   16   42      3.86      0.00
    4   16   42      3.42      0.00
    6   16   42     -5.39      0.00
    1   17   42     -7.22      0.00
    0    1   43     -1.71      0.00
    9   10   43    -13.85      0.00
    8   11   43     -1.17      0.00
    7   12   43     -9.53      0.00
    0   13   43    -19.61      0.00
    4   13   43     -5.22      0.00
    6   13   43      1.01      0.00
    1   14   43    -10.23      0.00
    3   14   43     11.39      0.00
    0    0   44      2.63      0.00
    1    1   44     -8.95      0.00
    0    2   44    -12.39      0.00
    2    2   44     14.55      0.00
    1    3   44      0.14      0.00
    3    3   44      2.29      0.00
    0    4   44      9.67      0.00
    2    4   44     -0.70      0.00
    4    4   44     10.50      0.00
    1    5   44      1.35      0.00
    3    5   44     -0.53      0.00
    5    5   44      1.81      0.00
    0    6   44     -2.35      0.00
    4    6   44     -0.57      0.00
    6    6   44      7.41      0.00
    3    7   44      7.01      0.00
    5    7   44     12.32      0.00
    7    7   44     14.61      0.00
    0    8   44     18.57      0.00
    2    8   44      2.46      0.00
    4    8   44      8.63      0.00
    6    8   44      0.56      0.00
    1    9   44     -9.07      0.00
    3    9   44      5.55      0.00
    5    9   44     -1.00      0.00
    0   10   44      9.49      0.00
    2   10   44     -6.61      0.00
    4   10   44      8.74      0.00
    1   11   44      3.93      0.00
    0    0    0      0.00      0.00
loop_
  _platon_squeeze_void_nr
  _platon_squeeze_void_average_x
  _platon_squeeze_void_average_y
  _platon_squeeze_void_average_z
  _platon_squeeze_void_volume
  _platon_squeeze_void_count_electrons
  _platon_squeeze_void_content
   1 -0.004 -0.016 -0.005     44562      1997 ' '
loop_
  _platon_missing_refln_index_h
  _platon_missing_refln_index_k
  _platon_missing_refln_index_l
  _platon_missing_refln_theta
    0    1    1     1.627
    0    0    2     2.301
    1    1    2     2.819
    0    2    2     3.256
    0   13   13    21.663
_platon_squeeze_void_probe_radius                  1.20
_platon_squeeze_details
)
TITL shelx     I m -3 m     R = 0.11
CELL   38.3937   38.3937   38.3937     90.00     90.00     90.00
SPGR Im-3m
C101 0.266 1.000 0.000 !       7.32 eA-3
Q102 0.717 0.281 0.221 !       1.77 eA-3
C103 0.228 0.384 0.228 !       1.43 eA-3
Q104 0.696 0.295 0.244 !       1.35 eA-3
C105 0.469 0.500 0.242 !       1.08 eA-3
C106 0.021 0.724 0.024 !       0.99 eA-3
C107 1.000 0.211 0.002 !       0.94 eA-3
Q108 0.986 0.499 0.211 !       0.93 eA-3
C109 0.259 0.997 0.055 !       0.92 eA-3
C110 0.318 1.000 0.000 !       0.91 eA-3
Q111 0.220 0.861 0.223 !       0.89 eA-3
Q112 0.740 0.270 0.211 !       0.89 eA-3
Q113 0.242 0.680 0.244 !       0.87 eA-3
C114 0.987 0.986 0.229 !       0.81 eA-3
Q115 0.786 0.776 0.211 !       0.76 eA-3
Q116 1.000 0.495 0.172 !       0.70 eA-3
C117 0.197 0.572 0.197 !       0.68 eA-3
C118 0.203 0.445 0.202 !       0.67 eA-3
C119 0.433 0.212 0.212 !       0.66 eA-3
Q120 0.234 0.216 0.113 !       0.63 eA-3
Q121 0.040 0.501 0.250 !       0.63 eA-3
C122 1.000 0.956 0.228 !       0.62 eA-3
Q123 0.485 0.985 0.171 !       0.61 eA-3
C124 0.353 0.649 0.038 !       0.60 eA-3
C125 0.905 0.499 0.148 !       0.59 eA-3
C126 0.064 1.000 0.195 !       0.59 eA-3
Q127 0.961 0.500 0.234 !       0.58 eA-3
C128 0.132 1.000 0.000 !       0.58 eA-3
Q129 0.768 0.232 0.232 !       0.57 eA-3
Q130 0.267 0.734 0.249 !       0.56 eA-3
C131 0.400 0.497 0.250 !       0.55 eA-3
Q132 0.243 0.488 0.017 !       0.54 eA-3
Q133 0.743 0.766 0.108 !       0.53 eA-3
C134 0.173 1.000 0.000 !       0.53 eA-3
C135 0.592 0.791 0.209 !       0.51 eA-3
C136 0.124 0.437 0.128 !       0.51 eA-3
C137 1.000 0.914 0.241 !       0.50 eA-3
C138 0.377 0.986 0.373 !       0.50 eA-3
C139 0.123 0.514 0.127 !       0.50 eA-3
C140 0.377 0.373 0.986 !       0.50 eA-3
)
;
_shelx_fab_checksum              93151
loop_
_space_group_symop_operation_xyz
'x, y, z'
'-x, -y, z'
'-x, y, -z'
'x, -y, -z'
'z, x, y'
'z, -x, -y'
'-z, -x, y'
'-z, x, -y'
'y, z, x'
'-y, z, -x'
'y, -z, -x'
'-y, -z, x'
'y, x, -z'
'-y, -x, -z'
'y, -x, z'
'-y, x, z'
'x, z, -y'
'-x, z, y'
'-x, -z, -y'
'x, -z, y'
'z, y, -x'
'z, -y, x'
'-z, y, x'
'-z, -y, -x'
'x+1/2, y+1/2, z+1/2'
'-x+1/2, -y+1/2, z+1/2'
'-x+1/2, y+1/2, -z+1/2'
'x+1/2, -y+1/2, -z+1/2'
'z+1/2, x+1/2, y+1/2'
'z+1/2, -x+1/2, -y+1/2'
'-z+1/2, -x+1/2, y+1/2'
'-z+1/2, x+1/2, -y+1/2'
'y+1/2, z+1/2, x+1/2'
'-y+1/2, z+1/2, -x+1/2'
'y+1/2, -z+1/2, -x+1/2'
'-y+1/2, -z+1/2, x+1/2'
'y+1/2, x+1/2, -z+1/2'
'-y+1/2, -x+1/2, -z+1/2'
'y+1/2, -x+1/2, z+1/2'
'-y+1/2, x+1/2, z+1/2'
'x+1/2, z+1/2, -y+1/2'
'-x+1/2, z+1/2, y+1/2'
'-x+1/2, -z+1/2, -y+1/2'
'x+1/2, -z+1/2, y+1/2'
'z+1/2, y+1/2, -x+1/2'
'z+1/2, -y+1/2, x+1/2'
'-z+1/2, y+1/2, x+1/2'
'-z+1/2, -y+1/2, -x+1/2'
'-x, -y, -z'
'x, y, -z'
'x, -y, z'
'-x, y, z'
'-z, -x, -y'
'-z, x, y'
'z, x, -y'
'z, -x, y'
'-y, -z, -x'
'y, -z, x'
'-y, z, x'
'y, z, -x'
'-y, -x, z'
'y, x, z'
'-y, x, -z'
'y, -x, -z'
'-x, -z, y'
'x, -z, -y'
'x, z, y'
'-x, z, -y'
'-z, -y, x'
'-z, y, -x'
'z, -y, -x'
'z, y, x'
'-x+1/2, -y+1/2, -z+1/2'
'x+1/2, y+1/2, -z+1/2'
'x+1/2, -y+1/2, z+1/2'
'-x+1/2, y+1/2, z+1/2'
'-z+1/2, -x+1/2, -y+1/2'
'-z+1/2, x+1/2, y+1/2'
'z+1/2, x+1/2, -y+1/2'
'z+1/2, -x+1/2, y+1/2'
'-y+1/2, -z+1/2, -x+1/2'
'y+1/2, -z+1/2, x+1/2'
'-y+1/2, z+1/2, x+1/2'
'y+1/2, z+1/2, -x+1/2'
'-y+1/2, -x+1/2, z+1/2'
'y+1/2, x+1/2, z+1/2'
'-y+1/2, x+1/2, -z+1/2'
'y+1/2, -x+1/2, -z+1/2'
'-x+1/2, -z+1/2, y+1/2'
'x+1/2, -z+1/2, -y+1/2'
'x+1/2, z+1/2, y+1/2'
'-x+1/2, z+1/2, -y+1/2'
'-z+1/2, -y+1/2, x+1/2'
'-z+1/2, y+1/2, -x+1/2'
'z+1/2, -y+1/2, -x+1/2'
'z+1/2, y+1/2, x+1/2'
loop_
_atom_site_label
_atom_site_type_symbol
_atom_site_fract_x
_atom_site_fract_y
_atom_site_fract_z
_atom_site_U_iso_or_equiv
_atom_site_adp_type
_atom_site_occupancy
_atom_site_site_symmetry_order
_atom_site_calc_flag
_atom_site_refinement_flags_posn
_atom_site_refinement_flags_adp
_atom_site_refinement_flags_occupancy
Ir1 Ir 0.5000 1.0000 0.2500 0.1671(5) Uani 1 8 d S TU P
Zr1 Zr 0.70694(2) 0.77136(2) 0.29306(2) 0.14892(17) Uani 1 2 d S TU P
N1 N 0.5000 0.94695(14) 0.2497(3) 0.136(3) Uani 1 2 d S TU P
O1 O 0.67214(11) 0.81407(10) 0.27850(12) 0.1462(14) Uani 1 1 d . U .
O2 O 0.74272(12) 0.8078(2) 0.25728(12) 0.194(3) Uani 1 2 d S TU P
O3 O 0.71713(15) 0.71713(15) 0.28287(15) 0.0884(18) Uani 1 6 d S TU P
O4 O 0.65259(14) 0.74958(15) 0.29986(19) 0.196(2) Uani 1 1 d . U .
Cl1 Cl 0.5000 1.0000 0.1899(5) 0.272(5) Uani 0.5 4 d S TU P
C1 C 0.66931(13) 0.83069(13) 0.2500 0.131(3) Uani 1 2 d DS TU P
C2 C 0.64101(11) 0.85899(11) 0.2500 0.122(3) Uani 1 2 d DS TU P
C3 C 0.63332(16) 0.87617(17) 0.2202(2) 0.150(2) Uani 1 1 d D U .
H3 H 0.6450 0.8703 0.1992 0.180 Uiso 1 1 calc R U .
C4 C 0.60839(16) 0.90240(17) 0.22040(17) 0.151(2) Uani 1 1 d D U .
H4 H 0.6039 0.9153 0.1998 0.182 Uiso 1 1 calc R U .
C5 C 0.59039(11) 0.90961(11) 0.2500 0.131(3) Uani 1 2 d DS TU P
C6 C 0.56278(10) 0.93722(10) 0.2500 0.132(3) Uani 1 2 d DS TU P
C7 C 0.52882(12) 0.92662(12) 0.2485(2) 0.141(2) Uani 1 1 d . U .
C8 C 0.51743(13) 0.89068(13) 0.2478(2) 0.156(3) Uani 1 1 d . U .
H8 H 0.5321 0.8707 0.2475 0.188 Uiso 1 1 calc R U .
loop_
_atom_site_aniso_label
_atom_site_aniso_U_11
_atom_site_aniso_U_22
_atom_site_aniso_U_33
_atom_site_aniso_U_23
_atom_site_aniso_U_13
_atom_site_aniso_U_12
Ir1 0.01880(13) 0.01880(13) 0.4637(16) 0.000 0.000 0.000
Zr1 0.1507(2) 0.1454(3) 0.1507(2) -0.12083(18) -0.1073(3) 0.12083(18)
N1 0.037(2) 0.036(2) 0.335(7) -0.008(4) 0.000 0.000
O1 0.139(2) 0.119(2) 0.180(3) -0.072(2) -0.063(2) 0.0901(18)
O2 0.116(2) 0.350(8) 0.116(2) -0.112(3) -0.048(3) 0.112(3)
O3 0.0884(18) 0.0884(18) 0.0884(18) -0.049(2) -0.049(2) 0.049(2)
O4 0.147(3) 0.194(4) 0.249(5) -0.032(4) -0.048(3) 0.080(3)
Cl1 0.265(8) 0.267(8) 0.284(8) 0.000 0.000 0.000
C1 0.109(3) 0.109(3) 0.175(6) -0.049(3) -0.049(3) 0.052(4)
C2 0.087(3) 0.087(3) 0.193(6) -0.031(3) -0.031(3) 0.040(3)
C3 0.105(3) 0.124(4) 0.222(6) -0.005(4) -0.027(4) 0.063(3)
C4 0.102(4) 0.111(4) 0.241(6) 0.004(4) -0.005(4) 0.047(3)
C5 0.064(2) 0.064(2) 0.266(7) 0.000(3) 0.000(3) 0.017(3)
C6 0.052(2) 0.052(2) 0.292(7) -0.007(3) -0.007(3) 0.020(3)
C7 0.048(2) 0.041(2) 0.334(6) -0.013(3) -0.003(3) 0.0104(19)
C8 0.064(3) 0.039(2) 0.366(8) -0.012(4) -0.001(4) 0.009(2)
loop_
_atom_type_symbol
_atom_type_description
_atom_type_scat_dispersion_real
_atom_type_scat_dispersion_imag
_atom_type_scat_source
C C 0.0181 0.0091 'International Tables Vol C Tables 4.2.6.8 and 6.1.1.4'
H H 0.0000 0.0000 'International Tables Vol C Tables 4.2.6.8 and 6.1.1.4'
N N 0.0311 0.0180 'International Tables Vol C Tables 4.2.6.8 and 6.1.1.4'
O O 0.0492 0.0322 'International Tables Vol C Tables 4.2.6.8 and 6.1.1.4'
Zr Zr -0.1862 2.2449 'International Tables Vol C Tables 4.2.6.8 and 6.1.1.4'
Ir Ir -4.7710 6.5667 'International Tables Vol C Tables 4.2.6.8 and 6.1.1.4'
Cl Cl 0.3639 0.7018 'International Tables Vol C Tables 4.2.6.8 and 6.1.1.4'
loop_
_geom_angle_atom_site_label_1
_geom_angle_atom_site_label_2
_geom_angle_atom_site_label_3
_geom_angle
_geom_angle_site_symmetry_1
_geom_angle_site_symmetry_3
N1 Ir1 N1 90.002(5) . 38_665
N1 Ir1 N1 90.002(6) . 37_455
N1 Ir1 N1 179.4(6) 38_665 37_455
N1 Ir1 N1 179.4(6) . 2_675
N1 Ir1 N1 90.002(5) 38_665 2_675
N1 Ir1 N1 90.002(5) 37_455 2_675
N1 Ir1 Cl1 90.3(3) . 37_455
N1 Ir1 Cl1 89.7(3) 38_665 37_455
N1 Ir1 Cl1 89.7(3) 37_455 37_455
N1 Ir1 Cl1 90.3(3) 2_675 37_455
N1 Ir1 Cl1 89.7(3) . .
N1 Ir1 Cl1 90.3(3) 38_665 .
N1 Ir1 Cl1 90.3(3) 37_455 .
N1 Ir1 Cl1 89.7(3) 2_675 .
Cl1 Ir1 Cl1 180.0 37_455 .
O2 Zr1 O2 115.9(4) 83_654 80_564
O2 Zr1 O3 68.32(18) 83_654 .
O2 Zr1 O3 68.32(18) 80_564 .
O2 Zr1 O1 77.97(19) 83_654 .
O2 Zr1 O1 146.1(2) 80_564 .
O3 Zr1 O1 142.09(11) . .
O2 Zr1 O1 146.1(2) 83_654 70_656
O2 Zr1 O1 77.97(19) 80_564 70_656
O3 Zr1 O1 142.09(11) . 70_656
O1 Zr1 O1 75.5(2) . 70_656
O2 Zr1 O4 136.7(3) 83_654 70_656
O2 Zr1 O4 76.1(3) 80_564 70_656
O3 Zr1 O4 80.3(2) . 70_656
O1 Zr1 O4 116.2(2) . 70_656
O1 Zr1 O4 75.12(19) 70_656 70_656
O2 Zr1 O4 76.1(3) 83_654 .
O2 Zr1 O4 136.7(3) 80_564 .
O3 Zr1 O4 80.3(2) . .
O1 Zr1 O4 75.12(19) . .
O1 Zr1 O4 116.2(2) 70_656 .
O4 Zr1 O4 69.6(4) 70_656 .
O2 Zr1 O2 77.0(3) 83_654 .
O2 Zr1 O2 77.0(3) 80_564 .
O3 Zr1 O2 110.9(3) . .
O1 Zr1 O2 76.44(18) . .
O1 Zr1 O2 76.44(18) 70_656 .
O4 Zr1 O2 144.20(17) 70_656 .
O4 Zr1 O2 144.21(17) . .
O2 Zr1 Zr1 33.01(14) 83_654 8_656
O2 Zr1 Zr1 90.51(17) 80_564 8_656
O3 Zr1 Zr1 35.73(13) . 8_656
O1 Zr1 Zr1 110.45(11) . 8_656
O1 Zr1 Zr1 164.12(12) 70_656 8_656
O4 Zr1 Zr1 113.01(14) 70_656 8_656
O4 Zr1 Zr1 79.66(16) . 8_656
O2 Zr1 Zr1 90.45(15) . 8_656
O2 Zr1 Zr1 90.51(17) 83_654 11_566
O2 Zr1 Zr1 33.01(14) 80_564 11_566
O3 Zr1 Zr1 35.73(13) . 11_566
O1 Zr1 Zr1 164.12(12) . 11_566
O1 Zr1 Zr1 110.45(11) 70_656 11_566
O4 Zr1 Zr1 79.66(16) 70_656 11_566
O4 Zr1 Zr1 113.01(14) . 11_566
O2 Zr1 Zr1 90.45(15) . 11_566
Zr1 Zr1 Zr1 60.0 8_656 11_566
O2 Zr1 Zr1 95.6(3) 83_654 80_564
O2 Zr1 Zr1 41.7(2) 80_564 80_564
O3 Zr1 Zr1 90.9(2) . 80_564
O1 Zr1 Zr1 109.68(12) . 80_564
O1 Zr1 Zr1 74.13(12) 70_656 80_564
O4 Zr1 Zr1 114.54(18) 70_656 80_564
O4 Zr1 Zr1 169.62(16) . 80_564
O2 Zr1 Zr1 35.38(9) . 80_564
Zr1 Zr1 Zr1 90.0 8_656 80_564
Zr1 Zr1 Zr1 60.114(13) 11_566 80_564
O2 Zr1 Zr1 41.7(2) 83_654 83_654
O2 Zr1 Zr1 95.6(3) 80_564 83_654
O3 Zr1 Zr1 90.9(2) . 83_654
O1 Zr1 Zr1 74.13(12) . 83_654
O1 Zr1 Zr1 109.68(12) 70_656 83_654
O4 Zr1 Zr1 169.62(16) 70_656 83_654
O4 Zr1 Zr1 114.54(18) . 83_654
O2 Zr1 Zr1 35.38(9) . 83_654
Zr1 Zr1 Zr1 60.114(13) 8_656 83_654
Zr1 Zr1 Zr1 90.0 11_566 83_654
Zr1 Zr1 Zr1 59.76(3) 80_564 83_654
C7 N1 C7 109.5(6) 52_655 .
C7 N1 Ir1 125.2(3) 52_655 .
C7 N1 Ir1 125.2(3) . .
C1 O1 Zr1 130.4(4) . .
Zr1 O2 Zr1 114.0(3) 83_654 80_564
Zr1 O2 Zr1 102.9(3) 83_654 .
Zr1 O2 Zr1 102.9(3) 80_564 .
Zr1 O3 Zr1 108.5(3) 8_656 11_566
Zr1 O3 Zr1 108.5(3) 8_656 .
Zr1 O3 Zr1 108.5(3) 11_566 .
O1 C1 O1 130.9(7) 38_665 .
O1 C1 C2 114.5(3) 38_665 .
O1 C1 C2 114.5(3) . .
C3 C2 C3 120.1(7) . 38_665
C3 C2 C1 120.0(4) . .
C3 C2 C1 120.0(4) 38_665 .
C2 C3 C4 120.0(7) . .
C2 C3 H3 120.0 . .
C4 C3 H3 120.0 . .
C5 C4 C3 120.1(7) . .
C5 C4 H4 119.9 . .
C3 C4 H4 119.9 . .
C4 C5 C4 119.5(7) 38_665 .
C4 C5 C6 120.2(4) 38_665 .
C4 C5 C6 120.2(4) . .
C7 C6 C7 124.7(6) . 38_665
C7 C6 C5 117.6(3) . .
C7 C6 C5 117.6(3) 38_665 .
N1 C7 C6 127.3(5) . .
N1 C7 C8 107.7(4) . .
C6 C7 C8 124.9(4) . .
C8 C8 C7 107.6(3) 52_655 .
C8 C8 H8 126.2 52_655 .
C7 C8 H8 126.2 . .
loop_
_geom_bond_atom_site_label_1
_geom_bond_atom_site_label_2
_geom_bond_distance
_geom_bond_site_symmetry_2
Ir1 N1 2.037(5) .
Ir1 N1 2.037(5) 38_665
Ir1 N1 2.037(5) 37_455
Ir1 N1 2.037(5) 2_675
Ir1 Cl1 2.308(19) 37_455
Ir1 Cl1 2.308(19) .
Zr1 O2 2.085(3) 83_654
Zr1 O2 2.085(3) 80_564
Zr1 O3 2.154(4) .
Zr1 O1 2.188(4) .
Zr1 O1 2.188(4) 70_656
Zr1 O4 2.263(6) 70_656
Zr1 O4 2.263(6) .
Zr1 O2 2.394(9) .
Zr1 Zr1 3.4972(9) 8_656
Zr1 Zr1 3.4972(9) 11_566
Zr1 Zr1 3.5097(15) 80_564
Zr1 Zr1 3.5097(14) 83_654
N1 C7 1.355(5) 52_655
N1 C7 1.355(5) .
O1 C1 1.271(5) .
O2 Zr1 2.085(3) 83_654
O2 Zr1 2.085(3) 80_564
O3 Zr1 2.154(3) 8_656
O3 Zr1 2.154(4) 11_566
C1 O1 1.271(5) 38_665
C1 C2 1.537(9) .
C2 C3 1.352(7) .
C2 C3 1.352(7) 38_665
C3 C4 1.389(8) .
C3 H3 0.9500 .
C4 C5 1.359(6) .
C4 H4 0.9500 .
C5 C4 1.359(6) 38_665
C5 C6 1.499(8) .
C6 C7 1.367(5) .
C6 C7 1.367(5) 38_665
C7 C8 1.447(7) .
C8 C8 1.339(10) 52_655
C8 H8 0.9500 .
