#------------------------------------------------------------------------------
#$Date: 2016-12-14 06:10:25 +0200 (Wed, 14 Dec 2016) $
#$Revision: 189113 $
#$URL: file:///home/coder/svn-repositories/cod/cif/7/22/72/7227267.cif $
#------------------------------------------------------------------------------
#
# This file is available in the Crystallography Open Database (COD),
# http://www.crystallography.net/
#
# All data on this site have been placed in the public domain by the
# contributors.
#
data_7227267
loop_
_publ_author_name
'Escudero, Eduardo Carmelo'
'Bauza, Antonio'
'Hern\'andez-Egu\'ia, Laura P'
'W\"urthner, Frank'
'Ballester, Pablo'
'Frontera, Antonio'
_publ_section_title
;
 Solid-state Inclusion of C60 and C70 in a Co-polymer Induced by
 Metal-Ligand Coordination of a Zn-Porphyrin Cage with a bis-pyridyl
 Perylene Derivative
;
_journal_name_full               CrystEngComm
_journal_paper_doi               10.1039/C6CE02341J
_journal_year                    2016
_chemical_formula_sum            'C374 H324 N12 O12 Zn2'
_chemical_formula_weight         5309.17
_chemical_name_systematic
;
 ?
;
_space_group_IT_number           15
_space_group_name_Hall           '-C 2yc'
_symmetry_cell_setting           monoclinic
_symmetry_space_group_name_Hall  '-C 2yc'
_symmetry_space_group_name_H-M   'C 1 2/c 1'
_atom_sites_solution_hydrogens   geom
_audit_creation_method           SHELXL-2014
_audit_update_record
;
2016-11-29 deposited with the CCDC.
2016-12-13 downloaded from the CCDC.
;
_cell_angle_alpha                90
_cell_angle_beta                 92.835(4)
_cell_angle_gamma                90
_cell_formula_units_Z            4
_cell_length_a                   23.330(4)
_cell_length_b                   37.315(6)
_cell_length_c                   32.612(5)
_cell_measurement_reflns_used    9862
_cell_measurement_temperature    100(2)
_cell_measurement_theta_max      26.06
_cell_measurement_theta_min      2.18
_cell_volume                     28356(8)
_computing_cell_refinement       'Bruker APEX2 v2014.9-0'
_computing_data_collection       'Bruker APEX2 v2014.9-0'
_computing_data_reduction        'Bruker SAINT V7.60A'
_computing_molecular_graphics    'Bruker SHELXTL'
_computing_publication_material  'Bruker SHELXTL'
_computing_structure_refinement  'SHELXL-2014 (Sheldrick, 2014)'
_computing_structure_solution    Sir2011
_diffrn_ambient_temperature      100(2)
_diffrn_detector_area_resol_mean 512
_diffrn_detector_type            '4K CCD area detector APEX II'
_diffrn_measured_fraction_theta_full 0.993
_diffrn_measured_fraction_theta_max 0.974
_diffrn_measurement_device_type  'APEX DUO Kappa 4-axis goniometer'
_diffrn_measurement_method
;
 Fullsphere data collection, phi and omega scans
;
_diffrn_measurement_specimen_support 'magnetic support with MicroMount'
_diffrn_radiation_monochromator  'Quazar MX Multilayer Optics'
_diffrn_radiation_type           MoK\a
_diffrn_radiation_wavelength     0.71073
_diffrn_reflns_av_R_equivalents  0.0745
_diffrn_reflns_av_unetI/netI     0.0939
_diffrn_reflns_Laue_measured_fraction_full 0.993
_diffrn_reflns_Laue_measured_fraction_max 0.974
_diffrn_reflns_limit_h_max       28
_diffrn_reflns_limit_h_min       -27
_diffrn_reflns_limit_k_max       46
_diffrn_reflns_limit_k_min       -46
_diffrn_reflns_limit_l_max       24
_diffrn_reflns_limit_l_min       -40
_diffrn_reflns_number            94531
_diffrn_reflns_point_group_measured_fraction_full 0.993
_diffrn_reflns_point_group_measured_fraction_max 0.974
_diffrn_reflns_theta_full        25.242
_diffrn_reflns_theta_max         26.380
_diffrn_reflns_theta_min         1.227
_diffrn_source                   'Microfocus source E025 IuS'
_diffrn_source_current           0.6
_diffrn_source_power             50
_diffrn_source_size              '0.2 mm x 0.2 mm fine focus'
_diffrn_source_type              'Bruker APEX DUO'
_exptl_absorpt_coefficient_mu    0.238
_exptl_absorpt_correction_T_max  0.993
_exptl_absorpt_correction_T_min  0.901
_exptl_absorpt_correction_type   multi-scan
_exptl_absorpt_process_details
; 
 SADABS Version 2008/1 Bruker-Nonius
 Blessing, Acta Cryst. (1995) A51 33-38
;
_exptl_crystal_colour            red
_exptl_crystal_density_diffrn    1.244
_exptl_crystal_description       Block
_exptl_crystal_F_000             11232
_exptl_crystal_size_max          0.05
_exptl_crystal_size_mid          0.05
_exptl_crystal_size_min          0.03
_refine_diff_density_max         0.659
_refine_diff_density_min         -0.733
_refine_diff_density_rms         0.066
_refine_ls_extinction_method     none
_refine_ls_goodness_of_fit_ref   0.988
_refine_ls_hydrogen_treatment    constr
_refine_ls_matrix_type           full
_refine_ls_number_parameters     1909
_refine_ls_number_reflns         28317
_refine_ls_number_restraints     66
_refine_ls_restrained_S_all      0.987
_refine_ls_R_factor_all          0.1343
_refine_ls_R_factor_gt           0.0629
_refine_ls_shift/su_max          0.039
_refine_ls_shift/su_mean         0.000
_refine_ls_structure_factor_coef Fsqd
_refine_ls_weighting_details
'w=1/[\s^2^(Fo^2^)+(0.0714P)^2^+75.4544P] where P=(Fo^2^+2Fc^2^)/3'
_refine_ls_weighting_scheme      calc
_refine_ls_wR_factor_gt          0.1498
_refine_ls_wR_factor_ref         0.1852
_reflns_Friedel_coverage         0.000
_reflns_number_gt                15703
_reflns_number_total             28317
_reflns_threshold_expression     'I > 2\s(I)'
_cod_data_source_file            c6ce02341j2.cif
_cod_data_source_block           mo_LPH005PerC60_0m
_cod_depositor_comments
;
The following automatic conversions were performed:

'_symmetry_cell_setting' value 'Monoclinic' changed to 'monoclinic'
according to
/usr/data/users/saulius/crontab/automatic-downloads/rss-feeds/RSC/lib/dictionaries/cif_core.dic
dictionary named 'cif_core.dic' version 2.4.2 from 2011-04-26.

'_exptl_absorpt_correction_type' value 'Multi-scan' changed to
'multi-scan' according to
/usr/data/users/saulius/crontab/automatic-downloads/rss-feeds/RSC/lib/dictionaries/cif_core.dic
dictionary named 'cif_core.dic' version 2.4.2 from 2011-04-26.

Automatic conversion script
Id: cif_fix_values 4268 2015-11-12 08:31:59Z antanas 
;
_cod_original_cell_volume        28356(7)
_cod_original_sg_symbol_H-M      C2/c
_cod_database_code               7227267
_shelx_space_group_comment
;
The symmetry employed for this shelxl refinement is uniquely defined
by the following loop, which should always be used as a source of
symmetry information in preference to the above space-group names.
They are only intended as comments.
;
_shelx_estimated_absorpt_t_min   0.988
_shelx_estimated_absorpt_t_max   0.993
_shelxl_version_number           2014-3
_shelx_res_file
;
TITL mo_LPH005PerC60_0m in C2/c
CELL 0.71073  23.3303  37.3146  32.6117  90.000  92.835  90.000
ZERR    4.00   0.0035   0.0057   0.0046   0.000   0.004   0.000
LATT 7
SYMM -X, Y, 0.5-Z
SFAC C  H  N  O  Zn
UNIT 1496 1296  48  48  8
L.S. 12
ACTA
conf
BOND
FMAP 2
PLAN 32
SIZE 0.03 0.05 0.05
TEMP -173.170
OMIT    -9   5   7
OMIT     0   0   6
OMIT    -5  31   9
OMIT    -4   6   7
OMIT    -9  31  10
OMIT    -5  33   4
OMIT     0   2   1
OMIT     0  24   3
OMIT    -8   2   2
OMIT    -6  30   2
OMIT    -1   1   2
WGHT    0.071400   75.454399
FVAR       0.02126
MOLE 1
C1A   1    0.629921    0.231699    0.263390    11.00000    0.01926    0.02073 =
         0.02726    0.00126    0.00209    0.00076
C2A   1    0.675624    0.234306    0.294395    11.00000    0.01793    0.03262 =
         0.03231    0.00091    0.00065    0.00010
AFIX  43
H2A   2    0.715527    0.232210    0.290336    11.00000   -1.20000
AFIX   0
C3A   1    0.651005    0.240327    0.330567    11.00000    0.02099    0.03213 =
         0.03272    0.00046   -0.00445   -0.00296
AFIX  43
H3A   2    0.670413    0.244198    0.356486    11.00000   -1.20000
AFIX   0
C4A   1    0.589774    0.239733    0.322183    11.00000    0.02123    0.02024 =
         0.03031   -0.00110    0.00095   -0.00179
C5A   1    0.548261    0.241606    0.351734    11.00000    0.02312    0.01740 =
         0.03041    0.00044   -0.00090   -0.00170
C6A   1    0.568849    0.246937    0.395430    11.00000    0.01681    0.02672 =
         0.02955    0.00142   -0.00025   -0.00485
C7A   1    0.550605    0.277297    0.415867    11.00000    0.02634    0.02606 =
         0.02254    0.00297   -0.00300   -0.00321
AFIX  43
H7A   2    0.524584    0.293532    0.402383    11.00000   -1.20000
AFIX   0
C8A   1    0.570570    0.283830    0.456126    11.00000    0.02622    0.02819 =
         0.03113   -0.00429    0.00113   -0.00484
C9A   1    0.609990    0.260863    0.475784    11.00000    0.02597    0.04023 =
         0.02855    0.00120   -0.00395   -0.00412
AFIX  43
H9A   2    0.624622    0.265847    0.502887    11.00000   -1.20000
AFIX   0
C10A  1    0.627526    0.230755    0.455369    11.00000    0.02409    0.03941 =
         0.03097    0.00923   -0.00183    0.00055
AFIX  43
H10A  2    0.654154    0.214796    0.468687    11.00000   -1.20000
AFIX   0
C11A  1    0.606835    0.223439    0.415661    11.00000    0.02396    0.03059 =
         0.03282   -0.00090    0.00048    0.00264
AFIX  43
H11A  2    0.618666    0.202291    0.402237    11.00000   -1.20000
AFIX   0
C12A  1    0.488460    0.238137    0.343308    11.00000    0.02196    0.02041 =
         0.02690   -0.00085   -0.00145   -0.00107
C13A  1    0.446072    0.234273    0.373640    11.00000    0.02520    0.03979 =
         0.02487   -0.00046    0.00251   -0.00282
AFIX  43
H13A  2    0.452688    0.235534    0.402582    11.00000   -1.20000
AFIX   0
C14A  1    0.394964    0.228500    0.353123    11.00000    0.01984    0.04002 =
         0.02916   -0.00412    0.00519   -0.00651
AFIX  43
H14A  2    0.359228    0.224243    0.365006    11.00000   -1.20000
AFIX   0
C15A  1    0.404929    0.230022    0.310152    11.00000    0.02390    0.02086 =
         0.03015    0.00012    0.00379   -0.00219
C16A  1    0.361969    0.226825    0.278354    11.00000    0.01739    0.01951 =
         0.03295   -0.00192    0.00463    0.00112
C17A  1    0.303359    0.215564    0.290060    11.00000    0.01869    0.03252 =
         0.02466    0.00121    0.00040   -0.00215
C18A  1    0.291356    0.178923    0.293291    11.00000    0.02289    0.03129 =
         0.02913    0.00505    0.00141    0.00110
C19A  1    0.237220    0.168410    0.303934    11.00000    0.02136    0.03485 =
         0.03388    0.00920   -0.00232   -0.00594
AFIX  43
H19A  2    0.228997    0.143549    0.305846    11.00000   -1.20000
AFIX   0
C20A  1    0.194650    0.192891    0.311887    11.00000    0.02005    0.04672 =
         0.02980    0.00749   -0.00029   -0.00273
C21A  1    0.206837    0.228902    0.308185    11.00000    0.02266    0.04309 =
         0.03191   -0.00462    0.00457    0.00410
AFIX  43
H21A  2    0.177931    0.246011    0.313388    11.00000   -1.20000
AFIX   0
C22A  1    0.260695    0.240838    0.296960    11.00000    0.02183    0.03194 =
         0.03163   -0.00259    0.00318   -0.00002
C23A  1    0.335980    0.151092    0.284840    11.00000    0.02662    0.02812 =
         0.06039    0.00834   -0.00157   -0.00323
AFIX 137
H23A  2    0.365740    0.151162    0.307127    11.00000   -1.50000
H23B  2    0.353354    0.156594    0.258823    11.00000   -1.50000
H23C  2    0.317892    0.127402    0.283070    11.00000   -1.50000
AFIX   0
C24A  1    0.135819    0.180349    0.323762    11.00000    0.02159    0.06104 =
         0.05354    0.01114    0.00914   -0.00333
AFIX 137
H24A  2    0.107229    0.198771    0.316313    11.00000   -1.50000
H24B  2    0.136382    0.176125    0.353439    11.00000   -1.50000
H24C  2    0.125875    0.158057    0.309200    11.00000   -1.50000
AFIX   0
C25A  1    0.272534    0.280114    0.291371    11.00000    0.02852    0.03199 =
         0.06088   -0.00908    0.00776    0.00462
AFIX 137
H25A  2    0.282503    0.284568    0.262978    11.00000   -1.50000
H25B  2    0.304550    0.287394    0.310120    11.00000   -1.50000
H25C  2    0.238264    0.293970    0.297373    11.00000   -1.50000
AFIX   0
C26A  1    0.500617    0.329588    0.465122    11.00000    0.03472    0.02869 =
         0.02941   -0.00157   -0.00278   -0.00175
AFIX  23
H26A  2    0.471412    0.311358    0.456947    11.00000   -1.20000
H26B  2    0.506645    0.345307    0.441261    11.00000   -1.20000
AFIX   0
C27A  1    0.481117    0.351241    0.500552    11.00000    0.03820    0.03102 =
         0.02862   -0.00005    0.00279   -0.00249
AFIX  23
H27A  2    0.480033    0.335419    0.524869    11.00000   -1.20000
H27B  2    0.441429    0.359540    0.493932    11.00000   -1.20000
AFIX   0
C28A  1    0.518067    0.383681    0.511876    11.00000    0.04009    0.02631 =
         0.03017   -0.00002    0.00346   -0.00120
AFIX  23
H28A  2    0.504380    0.394300    0.537436    11.00000   -1.20000
H28B  2    0.558059    0.375572    0.517643    11.00000   -1.20000
AFIX   0
C29A  1    0.517883    0.412339    0.479245    11.00000    0.03452    0.03047 =
         0.02501   -0.00091    0.00320   -0.00510
AFIX  23
H29A  2    0.477716    0.418322    0.470684    11.00000   -1.20000
H29B  2    0.536797    0.402961    0.454939    11.00000   -1.20000
AFIX   0
C30A  1    0.548709    0.446246    0.494237    11.00000    0.03565    0.02939 =
         0.02498    0.00006    0.00075    0.00005
AFIX  23
H30A  2    0.530933    0.454970    0.519310    11.00000   -1.20000
H30B  2    0.589336    0.440459    0.501597    11.00000   -1.20000
AFIX   0
C31A  1    0.546323    0.475478    0.462478    11.00000    0.03844    0.02598 =
         0.02725    0.00056   -0.00326   -0.00588
AFIX  23
H31A  2    0.564373    0.467375    0.437247    11.00000   -1.20000
H31B  2    0.506007    0.482175    0.455308    11.00000   -1.20000
AFIX   0
C32A  1    0.585188    0.534786    0.455958    11.00000    0.02694    0.02061 =
         0.02687    0.00218    0.00048    0.00172
C33A  1    0.615726    0.562721    0.474609    11.00000    0.02844    0.02896 =
         0.02136   -0.00379   -0.00375    0.00077
AFIX  43
H33A  2    0.629141    0.560741    0.502499    11.00000   -1.20000
AFIX   0
C34A  1    0.626637    0.593331    0.452759    11.00000    0.02193    0.03113 =
         0.02677   -0.00787   -0.00352   -0.00101
AFIX  43
H34A  2    0.648039    0.612280    0.465545    11.00000   -1.20000
AFIX   0
C35A  1    0.606544    0.596682    0.412127    11.00000    0.02424    0.02502 =
         0.02377   -0.00289    0.00048    0.00080
AFIX  43
H35A  2    0.613980    0.617945    0.397276    11.00000   -1.20000
AFIX   0
C36A  1    0.575556    0.568922    0.393195    11.00000    0.01828    0.02246 =
         0.02249   -0.00329    0.00076    0.00305
C37A  1    0.565224    0.537744    0.415292    11.00000    0.02566    0.02351 =
         0.02096   -0.00067   -0.00146   -0.00060
AFIX  43
H37A  2    0.544503    0.518524    0.402486    11.00000   -1.20000
AFIX   0
C38A  1    0.631160    0.581827    0.259580    11.00000    0.01796    0.01670 =
         0.02551   -0.00196    0.00025   -0.00094
C39A  1    0.677963    0.578514    0.290025    11.00000    0.01609    0.02643 =
         0.03028    0.00079   -0.00073    0.00171
AFIX  43
H39A  2    0.717746    0.579810    0.285235    11.00000   -1.20000
AFIX   0
C40A  1    0.654608    0.573248    0.326449    11.00000    0.01943    0.02486 =
         0.02787   -0.00029   -0.00177    0.00072
AFIX  43
H40A  2    0.674878    0.569255    0.352024    11.00000   -1.20000
AFIX   0
C41A  1    0.593235    0.574780    0.319512    11.00000    0.02079    0.01575 =
         0.02392   -0.00042   -0.00228    0.00110
C42A  1    0.553099    0.572213    0.349868    11.00000    0.02328    0.01373 =
         0.02359   -0.00054   -0.00198   -0.00148
C43A  1    0.492711    0.574114    0.342941    11.00000    0.02007    0.01290 =
         0.02405   -0.00288   -0.00070   -0.00305
C44A  1    0.451831    0.573945    0.374733    11.00000    0.02631    0.02762 =
         0.01878    0.00107    0.00120   -0.00237
AFIX  43
H44A  2    0.460084    0.570837    0.403330    11.00000   -1.20000
AFIX   0
C45A  1    0.399568    0.579062    0.355966    11.00000    0.01974    0.02825 =
         0.02518   -0.00328    0.00433   -0.00239
AFIX  43
H45A  2    0.364116    0.580572    0.368992    11.00000   -1.20000
AFIX   0
C46A  1    0.407457    0.581795    0.312762    11.00000    0.01965    0.01475 =
         0.02413   -0.00100   -0.00079   -0.00028
C47A  1    0.362510    0.585618    0.282633    11.00000    0.01995    0.01215 =
         0.02533    0.00118    0.00170    0.00011
C48A  1    0.304400    0.594756    0.297231    11.00000    0.01859    0.03404 =
         0.02237   -0.00253    0.00009    0.00211
C49A  1    0.265127    0.567773    0.306864    11.00000    0.02015    0.03908 =
         0.02715   -0.00059    0.00090   -0.00277
C50A  1    0.212914    0.577617    0.321965    11.00000    0.02055    0.05763 =
         0.03743   -0.00004    0.00158   -0.01084
AFIX  43
H50A  2    0.186555    0.559400    0.328739    11.00000   -1.20000
AFIX   0
C51A  1    0.197926    0.613049    0.327494    11.00000    0.02186    0.05699 =
         0.03848   -0.01729    0.00356    0.00250
C52A  1    0.236788    0.639235    0.317797    11.00000    0.02383    0.04857 =
         0.04285   -0.01157    0.00323    0.00400
AFIX  43
H52A  2    0.227009    0.663685    0.321585    11.00000   -1.20000
AFIX   0
C53A  1    0.289739    0.630889    0.302672    11.00000    0.02071    0.03558 =
         0.02771   -0.00637   -0.00025    0.00301
C54A  1    0.280650    0.528994    0.301184    11.00000    0.02902    0.03925 =
         0.04478    0.00503    0.00227   -0.00901
AFIX 137
H54A  2    0.314029    0.523017    0.319319    11.00000   -1.50000
H54B  2    0.289884    0.524879    0.272574    11.00000   -1.50000
H54C  2    0.248141    0.513840    0.307960    11.00000   -1.50000
AFIX   0
C55A  1    0.140190    0.623027    0.343680    11.00000    0.02420    0.09799 =
         0.07419   -0.03173    0.01785   -0.00440
AFIX 137
H55A  2    0.142451    0.621963    0.373743    11.00000   -1.50000
H55B  2    0.110918    0.606180    0.332949    11.00000   -1.50000
H55C  2    0.129910    0.647383    0.334804    11.00000   -1.50000
AFIX   0
C56A  1    0.330778    0.660551    0.292952    11.00000    0.03140    0.02621 =
         0.04566   -0.00638    0.00000    0.00475
AFIX 137
H56A  2    0.359284    0.663381    0.315816    11.00000   -1.50000
H56B  2    0.309466    0.682998    0.288810    11.00000   -1.50000
H56C  2    0.350264    0.654557    0.267909    11.00000   -1.50000
AFIX   0
C57A  1    0.495845    0.153380    0.284891    11.00000    0.03475    0.02128 =
         0.02724   -0.00105    0.00332    0.00053
AFIX  43
H57A  2    0.493142    0.166272    0.309841    11.00000   -1.20000
AFIX   0
C58A  1    0.495326    0.116581    0.286108    11.00000    0.03448    0.02115 =
         0.02621    0.00456    0.00204    0.00227
AFIX  43
H58A  2    0.491830    0.104104    0.311254    11.00000   -1.20000
AFIX   0
C59A  1    0.500000    0.098505    0.250000    10.50000    0.01780    0.01648 =
         0.03205    0.00000   -0.00085    0.00000
C60A  1    0.551070    0.042663    0.263299    11.00000    0.02311    0.01776 =
         0.03527   -0.00075   -0.00283   -0.00141
C61A  1    0.479793    0.663034    0.280955    11.00000    0.02412    0.02154 =
         0.02665    0.00214    0.00111    0.00003
AFIX  43
H61A  2    0.465679    0.650130    0.303453    11.00000   -1.20000
AFIX   0
C62A  1    0.478152    0.700086    0.282260    11.00000    0.02417    0.01851 =
         0.02883   -0.00372    0.00131    0.00222
AFIX  43
H62A  2    0.462443    0.712240    0.304709    11.00000   -1.20000
AFIX   0
C63A  1    0.500000    0.718985    0.250000    10.50000    0.01872    0.02226 =
         0.02540    0.00000   -0.00289    0.00000
C64A  1    0.530490    0.774731    0.282726    11.00000    0.02706    0.02213 =
         0.03376    0.00067   -0.00497    0.00068
C65A  1    0.530523    0.814012    0.281391    11.00000    0.02187    0.02087 =
         0.02783   -0.00027   -0.00150    0.00079
C66A  1    0.558862    0.832528    0.312888    11.00000    0.02386    0.02087 =
         0.02707    0.00200   -0.00534    0.00028
AFIX  43
H66A  2    0.576104    0.819849    0.335551    11.00000   -1.20000
AFIX   0
C67A  1    0.562244    0.869617    0.311550    11.00000    0.01938    0.02526 =
         0.02611   -0.00222   -0.00225    0.00027
C68A  1    0.537525    0.889193    0.279032    11.00000    0.01872    0.01619 =
         0.02703    0.00102   -0.00237    0.00155
C69A  1    0.500000    0.870288    0.250000    10.50000    0.01387    0.02640 =
         0.01836    0.00000    0.00167    0.00000
C70A  1    0.500000    0.832873    0.250000    10.50000    0.01949    0.01492 =
         0.02635    0.00000    0.00084    0.00000
C71A  1    0.637549    0.875100    0.363825    11.00000    0.02417    0.01631 =
         0.02937    0.00368   -0.00612   -0.00107
C72A  1    0.677922    0.856919    0.342722    11.00000    0.02833    0.02453 =
         0.02641   -0.00282   -0.00274    0.00211
AFIX  43
H72A  2    0.670910    0.851112    0.314557    11.00000   -1.20000
AFIX   0
C73A  1    0.729370    0.847113    0.363268    11.00000    0.02684    0.02846 =
         0.03353   -0.00104    0.00283    0.00375
AFIX  43
H73A  2    0.757214    0.834465    0.348653    11.00000   -1.20000
AFIX   0
C74A  1    0.741245    0.855177    0.404223    11.00000    0.02379    0.02502 =
         0.02972    0.00402    0.00078   -0.00380
C75A  1    0.699892    0.874386    0.424223    11.00000    0.02628    0.03225 =
         0.02371   -0.00046   -0.00289    0.00011
AFIX  43
H75A  2    0.707156    0.881008    0.452125    11.00000   -1.20000
AFIX   0
C76A  1    0.648200    0.884121    0.404357    11.00000    0.02653    0.02536 =
         0.02523   -0.00074   -0.00114   -0.00059
AFIX  43
H76A  2    0.620313    0.896963    0.418720    11.00000   -1.20000
AFIX   0
C77A  1    0.798704    0.845472    0.426453    11.00000    0.02646    0.03507 =
         0.03045    0.00354   -0.00354    0.00235
C78A  1    0.788548    0.828527    0.468071    11.00000    0.03885    0.06445 =
         0.03955    0.01988   -0.00452    0.00780
AFIX 137
H78A  2    0.765837    0.806603    0.464044    11.00000   -1.50000
H78B  2    0.767756    0.845443    0.484876    11.00000   -1.50000
H78C  2    0.825531    0.822655    0.482013    11.00000   -1.50000
AFIX   0
C79A  1    0.834110    0.820040    0.401850    11.00000    0.03369    0.06347 =
         0.04458   -0.00155   -0.00702    0.01559
AFIX 137
H79A  2    0.812107    0.798111    0.395942    11.00000   -1.50000
H79B  2    0.869611    0.814031    0.417678    11.00000   -1.50000
H79C  2    0.843530    0.831516    0.376005    11.00000   -1.50000
AFIX   0
C80A  1    0.833326    0.880359    0.433218    11.00000    0.02998    0.05272 =
         0.05810    0.00479   -0.01341   -0.00333
AFIX 137
H80A  2    0.870046    0.874911    0.447777    11.00000   -1.50000
H80B  2    0.811517    0.897092    0.449582    11.00000   -1.50000
H80C  2    0.840419    0.891244    0.406595    11.00000   -1.50000
AFIX   0
C81A  1    0.500000    0.945982    0.250000    10.50000    0.01997    0.00315 =
         0.02789    0.00000   -0.00082    0.00000
C82A  1    0.594041   -0.052604    0.284511    11.00000    0.02178    0.02082 =
         0.02730    0.00053   -0.00231    0.00243
C83A  1    0.596374   -0.015345    0.279632    11.00000    0.01869    0.02312 =
         0.03184   -0.00250   -0.00426   -0.00172
AFIX  43
H83A  2    0.630969   -0.002839    0.286583    11.00000   -1.20000
AFIX   0
C84A  1    0.549112    0.003092    0.264920    11.00000    0.01895    0.02045 =
         0.03267   -0.00207   -0.00309    0.00059
C85A  1    0.674754   -0.053565    0.331342    11.00000    0.02192    0.01863 =
         0.02813    0.00113   -0.00400   -0.00092
C86A  1    0.733211   -0.059279    0.333059    11.00000    0.02041    0.02333 =
         0.02869    0.00145    0.00173   -0.00137
AFIX  43
H86A  2    0.750306   -0.073417    0.312743    11.00000   -1.20000
AFIX   0
C87A  1    0.766858   -0.044086    0.364908    11.00000    0.01767    0.03370 =
         0.03202    0.00515   -0.00156   -0.00191
AFIX  43
H87A  2    0.807091   -0.048202    0.366201    11.00000   -1.20000
AFIX   0
C88A  1    0.743064   -0.022976    0.394973    11.00000    0.02505    0.02813 =
         0.02661    0.00220   -0.00371   -0.00182
C89A  1    0.683547   -0.019014    0.392673    11.00000    0.03017    0.02659 =
         0.03259   -0.00458   -0.00045   -0.00013
AFIX  43
H89A  2    0.665962   -0.005297    0.413130    11.00000   -1.20000
AFIX   0
C90A  1    0.649361   -0.034313    0.361744    11.00000    0.02077    0.02698 =
         0.03094   -0.00076   -0.00070    0.00025
AFIX  43
H90A  2    0.608841   -0.031650    0.361339    11.00000   -1.20000
AFIX   0
C91A  1    0.779303   -0.004603    0.429468    11.00000    0.03723    0.03452 =
         0.02932   -0.00331   -0.00698   -0.00220
C92A  1    0.761602   -0.019961    0.470831    11.00000    0.04326    0.04758 =
         0.03011    0.00018   -0.00512   -0.00006
AFIX 137
H92A  2    0.767330   -0.045979    0.471078    11.00000   -1.50000
H92B  2    0.721057   -0.014598    0.474508    11.00000   -1.50000
H92C  2    0.785158   -0.009073    0.493218    11.00000   -1.50000
AFIX   0
C93A  1    0.843166   -0.010504    0.424859    11.00000    0.03427    0.05034 =
         0.03803    0.00387   -0.01344   -0.01637
AFIX 137
H93A  2    0.851478   -0.036247    0.425554    11.00000   -1.50000
H93B  2    0.864913    0.001425    0.447429    11.00000   -1.50000
H93C  2    0.854256   -0.000493    0.398624    11.00000   -1.50000
AFIX   0
C94A  1    0.767264    0.035846    0.428462    11.00000    0.06228    0.03878 =
         0.04618   -0.00472   -0.01779   -0.01198
AFIX 137
H94A  2    0.791805    0.047821    0.449525    11.00000   -1.50000
H94B  2    0.726884    0.040138    0.433847    11.00000   -1.50000
H94C  2    0.775418    0.045397    0.401370    11.00000   -1.50000
AFIX   0
MOLE 7
C95A  1    0.545485    0.927619    0.272143    11.00000    0.02022    0.02038 =
         0.02423   -0.00102   -0.00292   -0.00009
C96A  1    0.500000   -0.015545    0.250000    10.50000    0.01638    0.03313 =
         0.02105    0.00000    0.00078    0.00000
MOLE 1
C1B   1    0.377823    0.437827    0.297649    11.00000    0.03704    0.05541 =
         0.10141   -0.01537    0.04103    0.00627
C2B   1    0.391044    0.405918    0.320971    11.00000    0.04775    0.09102 =
         0.05674    0.00247    0.03512    0.00264
C3B   1    0.377148    0.374462    0.297395    11.00000    0.03829    0.05365 =
         0.10011    0.01637    0.03957   -0.00407
C4B   1    0.353189    0.385927    0.256719    11.00000    0.02185    0.08218 =
         0.11338   -0.01340    0.01818   -0.01663
C5B   1    0.353346    0.426424    0.257357    11.00000    0.02263    0.07616 =
         0.12266    0.02936    0.02069    0.01930
C6B   1    0.413379    0.468152    0.300290    11.00000    0.06531    0.05181 =
         0.09542   -0.02250    0.03041    0.02484
C7B   1    0.464179    0.467204    0.327325    11.00000    0.08915    0.06577 =
         0.06700   -0.03720    0.02338    0.01172
C8B   1    0.477193    0.437624    0.349763    11.00000    0.10619    0.09070 =
         0.04622   -0.02534    0.02174    0.01027
C9B   1    0.441613    0.405897    0.347267    11.00000    0.10168    0.09758 =
         0.04391    0.00152    0.04974    0.00246
C10B  1    0.476811    0.374732    0.349766    11.00000    0.09965    0.08779 =
         0.03710    0.02795    0.01746    0.00033
C11B  1    0.463598    0.345265    0.326946    11.00000    0.08712    0.05545 =
         0.06086    0.03267    0.02053   -0.00866
C12B  1    0.412630    0.344572    0.299770    11.00000    0.06323    0.05695 =
         0.08792    0.02697    0.03170   -0.01903
C13B  1    0.425268    0.325571    0.263705    11.00000    0.05741    0.02860 =
         0.09564    0.00127    0.02451   -0.02177
C14B  1    0.401369    0.336653    0.226024    11.00000    0.04441    0.04342 =
         0.10248   -0.01056   -0.01000   -0.02492
C15B  1    0.365809    0.367657    0.222618    11.00000    0.03554    0.08105 =
         0.11669    0.00116   -0.02275   -0.02362
C16B  1    0.377293    0.387872    0.185621    11.00000    0.04289    0.08151 =
         0.07510    0.00713   -0.03271   -0.01647
C17B  1    0.377619    0.424585    0.186138    11.00000    0.04844    0.07568 =
         0.08476    0.00153   -0.03511    0.01932
C18B  1    0.365537    0.444857    0.222997    11.00000    0.03705    0.06905 =
         0.12768    0.00654   -0.01729    0.02811
C19B  1    0.401255    0.475833    0.226486    11.00000    0.04870    0.03542 =
         0.11480    0.01431   -0.00328    0.02390
C20B  1    0.425364    0.487284    0.264026    11.00000    0.06764    0.02814 =
         0.09646    0.00082    0.02573    0.02415
C21B  1    0.538048    0.425037    0.354048    11.00000    0.09044    0.09718 =
         0.03582   -0.01986   -0.01169    0.00095
C22B  1    0.537886    0.386883    0.353687    11.00000    0.08848    0.09769 =
         0.03239    0.01908   -0.01024   -0.00686
C23B  1    0.510215    0.325424    0.305932    11.00000    0.09162    0.03576 =
         0.07584    0.03121   -0.00266    0.00173
C24B  1    0.484777    0.313794    0.267309    11.00000    0.06598    0.01953 =
         0.09096    0.01084    0.00963   -0.00254
C25B  1    0.436634    0.336744    0.190498    11.00000    0.08481    0.04728 =
         0.08352   -0.02843   -0.01784   -0.01738
C26B  1    0.421620    0.368652    0.165467    11.00000    0.08965    0.07078 =
         0.06011   -0.01223   -0.04325   -0.00986
C27B  1    0.485318    0.498932    0.267484    11.00000    0.07854    0.01095 =
         0.10054   -0.01049    0.00902    0.00642
MOLE 7
C28B  1    0.511206    0.486994    0.305833    11.00000    0.10650    0.04029 =
         0.08469   -0.03976   -0.01122    0.00796
C29B  1    0.578237    0.443816    0.334705    11.00000    0.09728    0.06219 =
         0.06039   -0.02369   -0.04129   -0.00180
C30B  1    0.436143    0.475618    0.190452    11.00000    0.08924    0.05392 =
         0.09133    0.03522   -0.01738    0.01677
MOLE 3
C1S   1    0.739293    0.038338    0.672236    11.00000    0.02921    0.05198 =
         0.04742    0.00268   -0.00154    0.00310
C2S   1    0.770511    0.012147    0.654040    11.00000    0.03927    0.03581 =
         0.07012    0.00752    0.00461    0.00378
AFIX  43
H2S   2    0.776100   -0.010228    0.667549    11.00000   -1.20000
AFIX   0
C3S   1    0.794073    0.017621    0.616378    11.00000    0.04388    0.03448 =
         0.06722   -0.01255    0.01031    0.00382
AFIX  43
H3S   2    0.815646   -0.001032    0.604672    11.00000   -1.20000
AFIX   0
C4S   1    0.786888    0.049479    0.595591    11.00000    0.03115    0.04631 =
         0.04298   -0.00373   -0.00033   -0.00172
C5S   1    0.755603    0.076043    0.614067    11.00000    0.04062    0.04088 =
         0.05751    0.00544   -0.00152    0.00449
AFIX  43
H5S   2    0.749991    0.098475    0.600688    11.00000   -1.20000
AFIX   0
C6S   1    0.732728    0.070350    0.651309    11.00000    0.03811    0.04741 =
         0.05922   -0.00705    0.00255    0.00991
AFIX  43
H6S   2    0.711561    0.089091    0.663211    11.00000   -1.20000
AFIX   0
C7S   1    0.812990    0.056336    0.555222    11.00000    0.05282    0.08614 =
         0.06075   -0.00490    0.00987   -0.00432
AFIX 137
H7S1  2    0.843213    0.074464    0.558831    11.00000   -1.50000
H7S2  2    0.783306    0.064970    0.535314    11.00000   -1.50000
H7S3  2    0.829508    0.034055    0.545138    11.00000   -1.50000
AFIX   0
C8S   1    0.714692    0.032967    0.713576    11.00000    0.05149    0.09592 =
         0.05256    0.01166    0.00683    0.00170
AFIX 137
H8S1  2    0.733204    0.049523    0.733446    11.00000   -1.50000
H8S2  2    0.721534    0.008239    0.722683    11.00000   -1.50000
H8S3  2    0.673314    0.037640    0.711527    11.00000   -1.50000
AFIX   0
MOLE 2
C1T   1    0.594655    0.124822    0.673077    11.00000    0.03067    0.05604 =
         0.04525   -0.00294    0.01064   -0.00014
C2T   1    0.573005    0.153989    0.651798    11.00000    0.03846    0.07154 =
         0.03589    0.00485    0.00305   -0.00396
AFIX  43
H2T   2    0.546433    0.150427    0.629144    11.00000   -1.20000
AFIX   0
C3T   1    0.589165    0.188310    0.662750    11.00000    0.03943    0.06110 =
         0.04689    0.01443    0.00538    0.00645
AFIX  43
H3T   2    0.572625    0.207950    0.647884    11.00000   -1.20000
AFIX   0
C4T   1    0.629135    0.195045    0.695053    11.00000    0.03497    0.05063 =
         0.04389    0.00551    0.00652    0.00295
C5T   1    0.650478    0.165610    0.716579    11.00000    0.03322    0.05799 =
         0.03949   -0.00119    0.00096   -0.00069
AFIX  43
H5T   2    0.677448    0.169150    0.739000    11.00000   -1.20000
AFIX   0
C6T   1    0.633479    0.131164    0.706229    11.00000    0.03841    0.05629 =
         0.04456    0.00704    0.00875    0.00632
AFIX  43
H6T   2    0.648432    0.111521    0.721901    11.00000   -1.20000
AFIX   0
C7T   1    0.577640    0.086856    0.660740    11.00000    0.04790    0.07207 =
         0.05945   -0.01208    0.01258   -0.00537
AFIX 137
H7T1  2    0.577524    0.071691    0.685271    11.00000   -1.50000
H7T2  2    0.605223    0.077341    0.641814    11.00000   -1.50000
H7T3  2    0.539205    0.087059    0.647183    11.00000   -1.50000
AFIX   0
C8T   1    0.648003    0.232293    0.706162    11.00000    0.05121    0.05380 =
         0.07474    0.00052    0.00547    0.00280
AFIX 137
H8T1  2    0.640725    0.248164    0.682533    11.00000   -1.50000
H8T2  2    0.689125    0.232250    0.713920    11.00000   -1.50000
H8T3  2    0.626512    0.240850    0.729306    11.00000   -1.50000
AFIX   0
MOLE 5
C1U   1    0.478792    0.199254    0.537474    11.00000    0.03509    0.06492 =
         0.05029    0.00492   -0.00261   -0.01538
C2U   1    0.467815    0.231633    0.518649    11.00000    0.04004    0.08609 =
         0.05136    0.02225    0.00362   -0.02571
AFIX  43
H2U   2    0.492451    0.239832    0.498290    11.00000   -1.20000
AFIX   0
C3U   1    0.421495    0.252603    0.528756    11.00000    0.04514    0.06375 =
         0.05529    0.01558   -0.00712   -0.01604
AFIX  43
H3U   2    0.415352    0.275111    0.515652    11.00000   -1.20000
AFIX   0
C4U   1    0.384174    0.241157    0.557651    11.00000    0.04069    0.06480 =
         0.04257    0.00052   -0.00787   -0.01077
C5U   1    0.394635    0.208155    0.576007    11.00000    0.04210    0.06394 =
         0.04225    0.01042    0.00129   -0.01349
AFIX  43
H5U   2    0.369333    0.199489    0.595689    11.00000   -1.20000
AFIX   0
C6U   1    0.441242    0.187684    0.566134    11.00000    0.04032    0.05023 =
         0.05072    0.00638   -0.00065   -0.01167
AFIX  43
H6U   2    0.447625    0.165220    0.579289    11.00000   -1.20000
AFIX   0
C7U   1    0.530893    0.177157    0.528193    11.00000    0.05127    0.09247 =
         0.07979   -0.00221    0.01548   -0.01078
AFIX 137
H7U1  2    0.541579    0.181911    0.500020    11.00000   -1.50000
H7U2  2    0.521981    0.151651    0.531157    11.00000   -1.50000
H7U3  2    0.562893    0.183585    0.547384    11.00000   -1.50000
AFIX   0
C8U   1    0.333724    0.263398    0.568741    11.00000    0.06541    0.07270 =
         0.06841   -0.00009   -0.00311    0.00465
AFIX 137
H8U1  2    0.324872    0.258618    0.597292    11.00000   -1.50000
H8U2  2    0.300433    0.257268    0.550593    11.00000   -1.50000
H8U3  2    0.342885    0.288850    0.565590    11.00000   -1.50000
AFIX   0
MOLE 4
C1V   1    0.955427    0.196634    0.396592    11.00000    0.03885    0.04901 =
         0.02813   -0.00002   -0.00104    0.00384
C2V   1    0.913520    0.170838    0.396792    11.00000    0.05245    0.04229 =
         0.05007   -0.00844   -0.00434    0.00394
AFIX  43
H2V   2    0.923624    0.146544    0.392271    11.00000   -1.20000
AFIX   0
C3V   1    0.857333    0.179183    0.403352    11.00000    0.04806    0.04827 =
         0.06390   -0.00126   -0.00622   -0.00725
AFIX  43
H3V   2    0.829383    0.160655    0.402935    11.00000   -1.20000
AFIX   0
C4V   1    0.840806    0.214219    0.410570    11.00000    0.03782    0.05476 =
         0.03951    0.00731    0.00021    0.00276
C5V   1    0.882730    0.240059    0.410569    11.00000    0.05185    0.03719 =
         0.04775    0.00561   -0.00122    0.00637
AFIX  43
H5V   2    0.872859    0.264333    0.415459    11.00000   -1.20000
AFIX   0
C6V   1    0.939179    0.231374    0.403563    11.00000    0.04148    0.04235 =
         0.04897    0.00548   -0.00375   -0.00485
AFIX  43
H6V   2    0.967202    0.249846    0.403587    11.00000   -1.20000
AFIX   0
C7V   1    0.779187    0.223846    0.419151    11.00000    0.04189    0.08627 =
         0.07929    0.01067    0.00484    0.00943
AFIX 137
H7V1  2    0.752945    0.211227    0.399703    11.00000   -1.50000
H7V2  2    0.773722    0.249762    0.416045    11.00000   -1.50000
H7V3  2    0.771195    0.216752    0.447232    11.00000   -1.50000
AFIX   0
C8V   1    1.016674    0.187248    0.388983    11.00000    0.04076    0.07857 =
         0.04299    0.00399    0.00055    0.01557
AFIX 137
H8V1  2    1.031241    0.203548    0.368359    11.00000   -1.50000
H8V2  2    1.018589    0.162525    0.379005    11.00000   -1.50000
H8V3  2    1.040109    0.189555    0.414625    11.00000   -1.50000
AFIX   0
MOLE 6
C1W   1    0.313715    0.177852    0.444049    11.00000    0.03178    0.07115 =
         0.03712   -0.01149    0.01120   -0.01138
C2W   1    0.337702    0.151792    0.469873    11.00000    0.03159    0.08816 =
         0.03688   -0.01386    0.00167    0.00349
AFIX  43
H2W   2    0.363887    0.158608    0.491721    11.00000   -1.20000
AFIX   0
C3W   1    0.323983    0.115873    0.464245    11.00000    0.04099    0.08180 =
         0.03443   -0.00040    0.00807    0.01378
AFIX  43
H3W   2    0.341219    0.098550    0.482291    11.00000   -1.20000
AFIX   0
C4W   1    0.285578    0.104583    0.432802    11.00000    0.02928    0.06123 =
         0.03838    0.00000    0.01200    0.00321
C5W   1    0.263119    0.130996    0.407052    11.00000    0.03003    0.05493 =
         0.04106    0.00100    0.00028   -0.00287
AFIX  43
H5W   2    0.237597    0.124273    0.384775    11.00000   -1.20000
AFIX   0
C6W   1    0.276342    0.166756    0.412457    11.00000    0.03818    0.05499 =
         0.04015    0.00157    0.00323   -0.00731
AFIX  43
H6W   2    0.259470    0.184012    0.394157    11.00000   -1.20000
AFIX   0
C7W   1    0.327026    0.216820    0.451103    11.00000    0.06370    0.08396 =
         0.04987   -0.01937    0.01485   -0.02885
AFIX 137
H7W1  2    0.368595    0.220541    0.450919    11.00000   -1.50000
H7W2  2    0.313262    0.224200    0.477727    11.00000   -1.50000
H7W3  2    0.307907    0.231142    0.429263    11.00000   -1.50000
AFIX   0
C8W   1    0.270836    0.065910    0.426720    11.00000    0.04183    0.06003 =
         0.05757    0.00368    0.01276    0.00792
AFIX 137
H8W1  2    0.229232    0.062753    0.427756    11.00000   -1.50000
H8W2  2    0.290271    0.051641    0.448471    11.00000   -1.50000
H8W3  2    0.283337    0.057974    0.399945    11.00000   -1.50000
PART 1  10.70
AFIX   0
MOLE 1
C1X   1    0.554845    0.958992    0.491710    10.70000    0.04443    0.05896 =
         0.06737    0.02116    0.02901    0.02010
C2X   1    0.556425    0.986068    0.463613    10.70000    0.04187    0.07264 =
         0.05744   -0.00309    0.00071    0.02048
AFIX  43
H2X   2    0.538567    0.983014    0.437027    10.70000   -1.20000
AFIX   0
C3X   1    0.584030    1.018023    0.473771    10.70000    0.05490    0.06880 =
         0.06536    0.02806    0.02753    0.02386
AFIX  43
H3X   2    0.584449    1.036701    0.453994    10.70000   -1.20000
AFIX   0
C4X   1    0.611240    1.023357    0.512448    10.70000    0.02897    0.06012 =
         0.06542    0.01053    0.00745    0.00853
C5X   1    0.608193    0.995143    0.539817    10.70000    0.04392    0.07669 =
         0.05276    0.01414    0.01024    0.02211
AFIX  43
H5X   2    0.625307    0.998025    0.566656    10.70000   -1.20000
AFIX   0
C6X   1    0.582615    0.964352    0.530438    10.70000    0.04497    0.06373 =
         0.03774    0.01820    0.02015    0.01888
AFIX  43
H6X   2    0.583038    0.945612    0.550169    10.70000   -1.20000
AFIX   0
C7X   1    0.525222    0.923358    0.482253    10.70000    0.06559    0.07860 =
         0.11674   -0.01828    0.03694    0.00400
AFIX 137
H7X1  2    0.551537    0.903648    0.489575    10.70000   -1.50000
H7X2  2    0.514218    0.922120    0.452894    10.70000   -1.50000
H7X3  2    0.490849    0.921379    0.498204    10.70000   -1.50000
AFIX   0
C8X   1    0.640382    1.058225    0.523752    10.70000    0.05808    0.08435 =
         0.13136   -0.00916    0.00415   -0.00854
AFIX 137
H8X1  2    0.638019    1.062461    0.553278    10.70000   -1.50000
H8X2  2    0.621338    1.077850    0.508461    10.70000   -1.50000
H8X3  2    0.680758    1.057063    0.516877    10.70000   -1.50000
AFIX   0
PART 2 10.30
same 0.005 c1x > c8x
ISOR 0.005 c1x' > C8x'
C1X'  1    0.544954    0.964114    0.464065    10.30000    0.05378    0.05927 =
         0.05555   -0.00114    0.00632    0.00280
C2X'  1    0.558198    0.950422    0.502180    10.30000    0.04463    0.04818 =
         0.04664    0.00346    0.00601    0.00397
AFIX  43
H2X'  2    0.547238    0.926623    0.508556    10.30000   -1.20000
AFIX   0
C3X'  1    0.587588    0.971112    0.531638    10.30000    0.12283    0.12328 =
         0.12201   -0.00008    0.00599    0.00080
AFIX  43
H3X'  2    0.594074    0.961844    0.558601    10.30000   -1.20000
AFIX   0
C4X'  1    0.607876    1.005308    0.522514    10.30000    0.06630    0.06895 =
         0.06787   -0.00057    0.00528    0.00139
C5X'  1    0.593200    1.017977    0.483503    10.30000    0.06285    0.06292 =
         0.06224   -0.00029    0.00342    0.00082
AFIX  43
H5X'  2    0.605395    1.041356    0.476382    10.30000   -1.20000
AFIX   0
C6X'  1    0.563014    0.999147    0.455608    10.30000    0.07835    0.07812 =
         0.07924   -0.00241    0.00481    0.00074
AFIX  43
H6X'  2    0.553445    1.009465    0.429531    10.30000   -1.20000
AFIX   0
C7X'  1    0.509090    0.943400    0.431707    10.30000    0.08240    0.09630 =
         0.09850   -0.01348   -0.00306    0.01170
AFIX 137
H7X4  2    0.534566    0.930655    0.413660    10.30000   -1.50000
H7X5  2    0.484934    0.960139    0.415415    10.30000   -1.50000
H7X6  2    0.484712    0.926088    0.445242    10.30000   -1.50000
AFIX   0
C8X'  1    0.642891    1.026856    0.553702    10.30000    0.10925    0.10638 =
         0.10373   -0.01277   -0.00217    0.00484
AFIX 137
H8X4  2    0.643767    1.051976    0.544986    10.30000   -1.50000
H8X5  2    0.682115    1.017415    0.556009    10.30000   -1.50000
H8X6  2    0.625586    1.025205    0.580413    10.30000   -1.50000
AFIX   0
PART 0
MOLE 8
C1Y   1    0.426881    0.051324    0.356496    11.00000    0.11733    0.06544 =
         0.04740   -0.00377    0.03992   -0.03649
C2Y   1    0.398833    0.081253    0.363674    11.00000    0.05404    0.10325 =
         0.05296    0.00609    0.01853   -0.02220
AFIX  43
H2Y   2    0.359480    0.082467    0.354799    11.00000   -1.20000
AFIX   0
C3Y   1    0.421862    0.109693    0.382413    11.00000    0.06622    0.07146 =
         0.04899    0.00614    0.01568    0.00919
AFIX  43
H3Y   2    0.398715    0.130289    0.386038    11.00000   -1.20000
AFIX   0
C4Y   1    0.477138    0.110264    0.396479    11.00000    0.07323    0.06536 =
         0.04064    0.00937    0.01038   -0.01810
C5Y   1    0.509845    0.080169    0.390827    11.00000    0.04996    0.11570 =
         0.06437    0.05511    0.00691    0.00707
AFIX  43
H5Y   2    0.548943    0.079832    0.400458    11.00000   -1.20000
AFIX   0
C6Y   1    0.485544    0.049543    0.370662    11.00000    0.14801    0.05323 =
         0.07851    0.03446    0.07454    0.04073
AFIX  43
H6Y   2    0.507725    0.028577    0.366768    11.00000   -1.20000
AFIX   0
C7Y   1    0.401300    0.018954    0.335751    11.00000    0.37037    0.14333 =
         0.10200   -0.06309    0.13010   -0.16918
AFIX 137
H7Y1  2    0.366133    0.012159    0.349039    11.00000   -1.50000
H7Y2  2    0.428813   -0.000885    0.337857    11.00000   -1.50000
H7Y3  2    0.392177    0.024359    0.306753    11.00000   -1.50000
AFIX   0
MOLE 7
C8Y   1    0.503242    0.143312    0.417535    11.00000    0.21514    0.11562 =
         0.06270   -0.01248    0.01928   -0.08464
AFIX 137
H8Y1  2    0.475632    0.153629    0.435911    11.00000   -1.50000
H8Y2  2    0.512623    0.161062    0.396758    11.00000   -1.50000
H8Y3  2    0.538259    0.136500    0.433480    11.00000   -1.50000
AFIX   0
C1Z   1    0.753259    0.170098    0.588923    11.00000    0.06051    0.05192 =
         0.16797    0.01925    0.00224   -0.00941
C2Z   1    0.699492    0.162308    0.573158    11.00000    0.05721    0.04571 =
         0.13600    0.00660    0.00590    0.00771
AFIX  43
H2Z   2    0.668184    0.164950    0.590463    11.00000   -1.20000
AFIX   0
C3Z   1    0.687968    0.150564    0.532610    11.00000    0.05993    0.04948 =
         0.14034    0.00654    0.00416    0.01056
AFIX  43
H3Z   2    0.649715    0.144716    0.523726    11.00000   -1.20000
AFIX   0
C4Z   1    0.731082    0.147404    0.505624    11.00000    0.11973    0.05423 =
         0.14830    0.03317    0.06072    0.02361
C5Z   1    0.788942    0.156506    0.522653    11.00000    0.10590    0.08376 =
         0.21538    0.05397    0.08916    0.01756
AFIX  43
H5Z   2    0.821440    0.154618    0.506347    11.00000   -1.20000
AFIX   0
C6Z   1    0.794693    0.167951    0.563296    11.00000    0.07734    0.07591 =
         0.25026    0.05834    0.05719   -0.00670
AFIX  43
H6Z   2    0.831994    0.174820    0.573358    11.00000   -1.20000
AFIX   0
C7Z   1    0.766034    0.180611    0.633099    11.00000    0.14940    0.05810 =
         0.18736   -0.00129   -0.05645   -0.01638
AFIX 137
H7Z1  2    0.806275    0.187981    0.636798    11.00000   -1.50000
H7Z2  2    0.759005    0.160111    0.650950    11.00000   -1.50000
H7Z3  2    0.741119    0.200572    0.640247    11.00000   -1.50000
AFIX   0
C8Z   1    0.719515    0.134757    0.462679    11.00000    0.27844    0.07999 =
         0.16034    0.01822    0.11490    0.03124
AFIX 137
H8Z1  2    0.678172    0.131102    0.457620    11.00000   -1.50000
H8Z2  2    0.739721    0.112100    0.458650    11.00000   -1.50000
H8Z3  2    0.733043    0.152750    0.443517    11.00000   -1.50000
AFIX   0
MOLE 1
N1A   3    0.578394    0.235567    0.280770    11.00000    0.01848    0.02410 =
         0.02708   -0.00054    0.00109   -0.00229
N2A   3    0.462113    0.235649    0.304746    11.00000    0.01792    0.01627 =
         0.02727   -0.00188    0.00030   -0.00193
N3A   3    0.580132    0.579114    0.278178    11.00000    0.01975    0.01839 =
         0.02201   -0.00020    0.00207    0.00209
N4A   3    0.464383    0.578510    0.305556    11.00000    0.01995    0.01586 =
         0.02006   -0.00137   -0.00111    0.00138
N5A   3    0.500000    0.171750    0.250000    10.50000    0.01366    0.02411 =
         0.02519    0.00000   -0.00023    0.00000
N6A   3    0.500000    0.059945    0.250000    10.50000    0.01839    0.01709 =
         0.02961    0.00000   -0.00206    0.00000
N7A   3    0.500000    0.644457    0.250000    10.50000    0.01433    0.02528 =
         0.02458    0.00000    0.00093    0.00000
N8A   3    0.500000    0.757203    0.250000    10.50000    0.02581    0.01730 =
         0.02859    0.00000   -0.00425    0.00000
O1A   4    0.553531    0.312539    0.478456    11.00000    0.03422    0.03823 =
         0.03494   -0.01102   -0.00626    0.00225
O2A   4    0.577101    0.505506    0.480227    11.00000    0.04325    0.02650 =
         0.02508    0.00612   -0.00853   -0.00708
O3A   4    0.593260    0.059916    0.272877    11.00000    0.02643    0.01951 =
         0.06862    0.00049   -0.01299   -0.00181
O4A   4    0.555229    0.757388    0.309789    11.00000    0.04420    0.01935 =
         0.03834    0.00277   -0.01772   -0.00101
O5A   4    0.585942    0.887695    0.345140    11.00000    0.02215    0.02201 =
         0.02872   -0.00319   -0.00679    0.00033
O6A   4    0.642539   -0.070044    0.298988    11.00000    0.02048    0.02089 =
         0.03052   -0.00310   -0.00811    0.00288
ZN1   5    0.500000    0.586956    0.250000    10.50000    0.01763    0.01467 =
         0.02141    0.00000    0.00037    0.00000
ZN2   5    0.500000    0.228730    0.250000    10.50000    0.01704    0.01709 =
         0.02590    0.00000    0.00148    0.00000
HKLF 4
REM  mo_LPH005PerC60_0m in C2/c
REM R1 =  0.0629 for   15703 Fo > 4sig(Fo)  and  0.1343 for all   28317 data
REM   1909 parameters refined using     66 restraints
END
WGHT      0.0653     60.5308
REM Highest difference peak  0.659,  deepest hole -0.733,  1-sigma level  0.066
Q1    1   0.5193  0.3488  0.3316  11.00000  0.05    0.66
Q2    1   0.5000  0.6091  0.2500  10.50000  0.05    0.62
Q3    1   0.5000  0.5648  0.2500  10.50000  0.05    0.56
Q4    1   0.3534  0.4078  0.2283  11.00000  0.05    0.51
Q5    1   0.5203  0.4650  0.3340  11.00000  0.05    0.51
Q6    1   0.7907  0.1434  0.4905  11.00000  0.05    0.45
Q7    1   0.5258  0.5856  0.2278  11.00000  0.05    0.41
Q8    1   0.5468  0.5869  0.2773  11.00000  0.05    0.39
Q9    1   0.5361  0.4951  0.2747  11.00000  0.05    0.37
Q10   1   0.5000  0.2503  0.2500  10.50000  0.05    0.36
Q11   1   0.4809  0.4126  0.3513  11.00000  0.05    0.35
Q12   1   0.4826  0.5708  0.2899  11.00000  0.05    0.34
Q13   1   0.4354  0.5839  0.2985  11.00000  0.05    0.34
Q14   1   0.8051  0.1850  0.6014  11.00000  0.05    0.33
Q15   1   0.4334  0.4466  0.3305  11.00000  0.05    0.33
Q16   1   0.4284  0.4300  0.3383  11.00000  0.05    0.33
Q17   1   0.5273  0.2310  0.2278  11.00000  0.05    0.33
Q18   1   0.4294  0.3827  0.3367  11.00000  0.05    0.32
Q19   1   0.4809  0.0262  0.3568  11.00000  0.05    0.32
Q20   1   0.4737  0.2552  0.2262  11.00000  0.05    0.32
Q21   1   0.6812 -0.0789  0.2784  11.00000  0.05    0.31
Q22   1   0.4507  0.0023  0.3539  11.00000  0.05    0.30
Q23   1   0.4876  0.2438  0.2899  11.00000  0.05    0.30
Q24   1   0.4321  0.3638  0.3278  11.00000  0.05    0.30
Q25   1   0.5000  0.2043  0.2500  10.50000  0.05    0.30
Q26   1   0.4486  0.3307  0.2974  11.00000  0.05    0.29
Q27   1   0.8108  0.1559  0.5387  11.00000  0.05    0.29
Q28   1   0.3696  0.4470  0.2630  11.00000  0.05    0.29
Q29   1   0.5323  0.3128  0.2688  11.00000  0.05    0.29
Q30   1   0.7814  0.1708  0.5631  11.00000  0.05    0.29
Q31   1   0.5616  0.5725  0.3698  11.00000  0.05    0.29
Q32   1   0.2898  0.5796  0.3067  11.00000  0.05    0.28
;
_shelx_res_checksum              27128
loop_
_space_group_symop_operation_xyz
'x, y, z'
'-x, y, -z+1/2'
'x+1/2, y+1/2, z'
'-x+1/2, y+1/2, -z+1/2'
'-x, -y, -z'
'x, -y, z-1/2'
'-x+1/2, -y+1/2, -z'
'x+1/2, -y+1/2, z-1/2'
loop_
_atom_site_label
_atom_site_type_symbol
_atom_site_fract_x
_atom_site_fract_y
_atom_site_fract_z
_atom_site_U_iso_or_equiv
_atom_site_adp_type
_atom_site_occupancy
_atom_site_site_symmetry_order
_atom_site_calc_flag
_atom_site_refinement_flags_posn
_atom_site_refinement_flags_adp
_atom_site_refinement_flags_occupancy
_atom_site_disorder_assembly
_atom_site_disorder_group
C1A C 0.62992(14) 0.23170(9) 0.26339(11) 0.0224(8) Uani 1 1 d . . . . .
C2A C 0.67562(15) 0.23431(9) 0.29439(11) 0.0276(8) Uani 1 1 d . . . . .
H2A H 0.7155 0.2322 0.2903 0.033 Uiso 1 1 calc R U . . .
C3A C 0.65100(15) 0.24033(10) 0.33057(12) 0.0288(8) Uani 1 1 d . . . . .
H3A H 0.6704 0.2442 0.3565 0.035 Uiso 1 1 calc R U . . .
C4A C 0.58977(14) 0.23973(9) 0.32218(11) 0.0239(8) Uani 1 1 d . . . . .
C5A C 0.54826(14) 0.24161(9) 0.35173(11) 0.0237(8) Uani 1 1 d . . . . .
C6A C 0.56885(14) 0.24694(9) 0.39543(11) 0.0244(8) Uani 1 1 d . . . . .
C7A C 0.55060(15) 0.27730(9) 0.41587(11) 0.0251(8) Uani 1 1 d . . . . .
H7A H 0.5246 0.2935 0.4024 0.030 Uiso 1 1 calc R U . . .
C8A C 0.57057(15) 0.28383(10) 0.45613(12) 0.0285(8) Uani 1 1 d . . . . .
C9A C 0.60999(15) 0.26086(10) 0.47578(12) 0.0318(9) Uani 1 1 d . . . . .
H9A H 0.6246 0.2658 0.5029 0.038 Uiso 1 1 calc R U . . .
C10A C 0.62753(15) 0.23075(10) 0.45537(12) 0.0316(9) Uani 1 1 d . . . . .
H10A H 0.6542 0.2148 0.4687 0.038 Uiso 1 1 calc R U . . .
C11A C 0.60684(15) 0.22344(10) 0.41566(12) 0.0292(8) Uani 1 1 d . . . . .
H11A H 0.6187 0.2023 0.4022 0.035 Uiso 1 1 calc R U . . .
C12A C 0.48846(14) 0.23814(9) 0.34331(11) 0.0232(8) Uani 1 1 d . . . . .
C13A C 0.44607(15) 0.23427(10) 0.37364(12) 0.0299(9) Uani 1 1 d . . . . .
H13A H 0.4527 0.2355 0.4026 0.036 Uiso 1 1 calc R U . . .
C14A C 0.39496(15) 0.22850(10) 0.35312(11) 0.0295(8) Uani 1 1 d . . . . .
H14A H 0.3592 0.2242 0.3650 0.035 Uiso 1 1 calc R U . . .
C15A C 0.40493(15) 0.23002(9) 0.31015(11) 0.0249(8) Uani 1 1 d . . . . .
C16A C 0.36197(14) 0.22682(9) 0.27835(11) 0.0232(8) Uani 1 1 d . . . . .
C17A C 0.30336(14) 0.21556(10) 0.29006(11) 0.0253(8) Uani 1 1 d . . . . .
C18A C 0.29136(15) 0.17892(10) 0.29329(11) 0.0278(8) Uani 1 1 d . . . . .
C19A C 0.23722(15) 0.16841(10) 0.30393(12) 0.0302(9) Uani 1 1 d . . . . .
H19A H 0.2290 0.1435 0.3058 0.036 Uiso 1 1 calc R U . . .
C20A C 0.19465(15) 0.19289(11) 0.31189(12) 0.0322(9) Uani 1 1 d . . . . .
C21A C 0.20684(15) 0.22890(11) 0.30818(12) 0.0324(9) Uani 1 1 d . . . . .
H21A H 0.1779 0.2460 0.3134 0.039 Uiso 1 1 calc R U . . .
C22A C 0.26069(15) 0.24084(10) 0.29696(12) 0.0284(8) Uani 1 1 d . . . . .
C23A C 0.33598(16) 0.15109(10) 0.28484(14) 0.0385(10) Uani 1 1 d . . . . .
H23A H 0.3657 0.1512 0.3071 0.058 Uiso 1 1 calc R U . . .
H23B H 0.3534 0.1566 0.2588 0.058 Uiso 1 1 calc R U . . .
H23C H 0.3179 0.1274 0.2831 0.058 Uiso 1 1 calc R U . . .
C24A C 0.13582(16) 0.18035(12) 0.32376(14) 0.0451(11) Uani 1 1 d . . . . .
H24A H 0.1072 0.1988 0.3163 0.068 Uiso 1 1 calc R U . . .
H24B H 0.1364 0.1761 0.3534 0.068 Uiso 1 1 calc R U . . .
H24C H 0.1259 0.1581 0.3092 0.068 Uiso 1 1 calc R U . . .
C25A C 0.27253(17) 0.28011(10) 0.29137(14) 0.0403(10) Uani 1 1 d . . . . .
H25A H 0.2825 0.2846 0.2630 0.060 Uiso 1 1 calc R U . . .
H25B H 0.3046 0.2874 0.3101 0.060 Uiso 1 1 calc R U . . .
H25C H 0.2383 0.2940 0.2974 0.060 Uiso 1 1 calc R U . . .
C26A C 0.50062(16) 0.32959(10) 0.46512(12) 0.0311(9) Uani 1 1 d . . . . .
H26A H 0.4714 0.3114 0.4569 0.037 Uiso 1 1 calc R U . . .
H26B H 0.5066 0.3453 0.4413 0.037 Uiso 1 1 calc R U . . .
C27A C 0.48112(17) 0.35124(10) 0.50055(12) 0.0326(9) Uani 1 1 d . . . . .
H27A H 0.4800 0.3354 0.5249 0.039 Uiso 1 1 calc R U . . .
H27B H 0.4414 0.3595 0.4939 0.039 Uiso 1 1 calc R U . . .
C28A C 0.51807(17) 0.38368(9) 0.51188(12) 0.0321(9) Uani 1 1 d . . . . .
H28A H 0.5044 0.3943 0.5374 0.039 Uiso 1 1 calc R U . . .
H28B H 0.5581 0.3756 0.5176 0.039 Uiso 1 1 calc R U . . .
C29A C 0.51788(16) 0.41234(9) 0.47924(11) 0.0299(8) Uani 1 1 d . . . . .
H29A H 0.4777 0.4183 0.4707 0.036 Uiso 1 1 calc R U . . .
H29B H 0.5368 0.4030 0.4549 0.036 Uiso 1 1 calc R U . . .
C30A C 0.54871(16) 0.44625(9) 0.49424(11) 0.0300(8) Uani 1 1 d . . . . .
H30A H 0.5309 0.4550 0.5193 0.036 Uiso 1 1 calc R U . . .
H30B H 0.5893 0.4405 0.5016 0.036 Uiso 1 1 calc R U . . .
C31A C 0.54632(17) 0.47548(9) 0.46248(11) 0.0307(9) Uani 1 1 d . . . . .
H31A H 0.5644 0.4674 0.4372 0.037 Uiso 1 1 calc R U . . .
H31B H 0.5060 0.4822 0.4553 0.037 Uiso 1 1 calc R U . . .
C32A C 0.58519(15) 0.53479(9) 0.45596(11) 0.0248(8) Uani 1 1 d . . . . .
C33A C 0.61573(15) 0.56272(9) 0.47461(11) 0.0264(8) Uani 1 1 d . . . . .
H33A H 0.6291 0.5607 0.5025 0.032 Uiso 1 1 calc R U . . .
C34A C 0.62664(14) 0.59333(10) 0.45276(11) 0.0268(8) Uani 1 1 d . . . . .
H34A H 0.6480 0.6123 0.4655 0.032 Uiso 1 1 calc R U . . .
C35A C 0.60654(14) 0.59668(9) 0.41213(11) 0.0244(8) Uani 1 1 d . . . . .
H35A H 0.6140 0.6179 0.3973 0.029 Uiso 1 1 calc R U . . .
C36A C 0.57556(14) 0.56892(9) 0.39320(10) 0.0211(7) Uani 1 1 d . . . . .
C37A C 0.56522(14) 0.53774(9) 0.41529(11) 0.0235(8) Uani 1 1 d . . . . .
H37A H 0.5445 0.5185 0.4025 0.028 Uiso 1 1 calc R U . . .
C38A C 0.63116(14) 0.58183(8) 0.25958(11) 0.0201(7) Uani 1 1 d . . . . .
C39A C 0.67796(14) 0.57851(9) 0.29002(11) 0.0243(8) Uani 1 1 d . . . . .
H39A H 0.7177 0.5798 0.2852 0.029 Uiso 1 1 calc R U . . .
C40A C 0.65461(14) 0.57325(9) 0.32645(11) 0.0242(8) Uani 1 1 d . . . . .
H40A H 0.6749 0.5693 0.3520 0.029 Uiso 1 1 calc R U . . .
C41A C 0.59324(14) 0.57478(8) 0.31951(11) 0.0203(7) Uani 1 1 d . . . . .
C42A C 0.55310(14) 0.57221(8) 0.34987(10) 0.0203(7) Uani 1 1 d . . . . .
C43A C 0.49271(14) 0.57411(8) 0.34294(10) 0.0191(7) Uani 1 1 d . . . . .
C44A C 0.45183(14) 0.57395(9) 0.37473(11) 0.0242(8) Uani 1 1 d . . . . .
H44A H 0.4601 0.5708 0.4033 0.029 Uiso 1 1 calc R U . . .
C45A C 0.39957(15) 0.57906(9) 0.35597(11) 0.0243(8) Uani 1 1 d . . . . .
H45A H 0.3641 0.5806 0.3690 0.029 Uiso 1 1 calc R U . . .
C46A C 0.40746(14) 0.58179(8) 0.31276(11) 0.0196(7) Uani 1 1 d . . . . .
C47A C 0.36251(14) 0.58562(8) 0.28263(10) 0.0191(7) Uani 1 1 d . . . . .
C48A C 0.30440(14) 0.59476(10) 0.29723(11) 0.0250(8) Uani 1 1 d . . . . .
C49A C 0.26513(15) 0.56777(10) 0.30686(11) 0.0288(8) Uani 1 1 d . . . . .
C50A C 0.21291(16) 0.57762(12) 0.32196(13) 0.0385(10) Uani 1 1 d . . . . .
H50A H 0.1866 0.5594 0.3287 0.046 Uiso 1 1 calc R U . . .
C51A C 0.19793(16) 0.61305(12) 0.32749(13) 0.0390(10) Uani 1 1 d . . . . .
C52A C 0.23679(16) 0.63923(12) 0.31780(13) 0.0384(10) Uani 1 1 d . . . . .
H52A H 0.2270 0.6637 0.3216 0.046 Uiso 1 1 calc R U . . .
C53A C 0.28974(15) 0.63089(10) 0.30267(11) 0.0280(8) Uani 1 1 d . . . . .
C54A C 0.28065(16) 0.52899(10) 0.30118(13) 0.0377(10) Uani 1 1 d . . . . .
H54A H 0.3140 0.5230 0.3193 0.056 Uiso 1 1 calc R U . . .
H54B H 0.2899 0.5249 0.2726 0.056 Uiso 1 1 calc R U . . .
H54C H 0.2481 0.5138 0.3080 0.056 Uiso 1 1 calc R U . . .
C55A C 0.14019(18) 0.62303(15) 0.34368(16) 0.0649(16) Uani 1 1 d . . . . .
H55A H 0.1425 0.6220 0.3737 0.097 Uiso 1 1 calc R U . . .
H55B H 0.1109 0.6062 0.3329 0.097 Uiso 1 1 calc R U . . .
H55C H 0.1299 0.6474 0.3348 0.097 Uiso 1 1 calc R U . . .
C56A C 0.33078(16) 0.66055(10) 0.29295(13) 0.0345(9) Uani 1 1 d . . . . .
H56A H 0.3593 0.6634 0.3158 0.052 Uiso 1 1 calc R U . . .
H56B H 0.3095 0.6830 0.2888 0.052 Uiso 1 1 calc R U . . .
H56C H 0.3503 0.6546 0.2679 0.052 Uiso 1 1 calc R U . . .
C57A C 0.49584(15) 0.15338(9) 0.28489(12) 0.0277(8) Uani 1 1 d . . . . .
H57A H 0.4931 0.1663 0.3098 0.033 Uiso 1 1 calc R U . . .
C58A C 0.49533(15) 0.11658(9) 0.28611(11) 0.0273(8) Uani 1 1 d . . . . .
H58A H 0.4918 0.1041 0.3113 0.033 Uiso 1 1 calc R U . . .
C59A C 0.5000 0.09851(12) 0.2500 0.0222(11) Uani 1 2 d S T P . .
C60A C 0.55107(14) 0.04266(9) 0.26330(12) 0.0255(8) Uani 1 1 d . . . . .
C61A C 0.47979(14) 0.66303(9) 0.28095(11) 0.0241(8) Uani 1 1 d . . . . .
H61A H 0.4657 0.6501 0.3035 0.029 Uiso 1 1 calc R U . . .
C62A C 0.47815(14) 0.70009(9) 0.28226(11) 0.0238(8) Uani 1 1 d . . . . .
H62A H 0.4624 0.7122 0.3047 0.029 Uiso 1 1 calc R U . . .
C63A C 0.5000 0.71899(12) 0.2500 0.0223(11) Uani 1 2 d S T P . .
C64A C 0.53049(15) 0.77473(9) 0.28273(12) 0.0279(8) Uani 1 1 d . . . . .
C65A C 0.53052(14) 0.81401(9) 0.28139(11) 0.0236(8) Uani 1 1 d . . . . .
C66A C 0.55886(14) 0.83253(9) 0.31289(11) 0.0241(8) Uani 1 1 d . . . . .
H66A H 0.5761 0.8198 0.3356 0.029 Uiso 1 1 calc R U . . .
C67A C 0.56224(14) 0.86962(9) 0.31155(11) 0.0237(8) Uani 1 1 d . . . . .
C68A C 0.53752(14) 0.88919(8) 0.27903(11) 0.0208(7) Uani 1 1 d . . . . .
C69A C 0.5000 0.87029(12) 0.2500 0.0195(10) Uani 1 2 d S T P . .
C70A C 0.5000 0.83287(12) 0.2500 0.0203(10) Uani 1 2 d S T P . .
C71A C 0.63755(14) 0.87510(9) 0.36382(11) 0.0235(8) Uani 1 1 d . . . . .
C72A C 0.67792(15) 0.85692(9) 0.34272(11) 0.0266(8) Uani 1 1 d . . . . .
H72A H 0.6709 0.8511 0.3146 0.032 Uiso 1 1 calc R U . . .
C73A C 0.72937(15) 0.84711(10) 0.36327(12) 0.0296(8) Uani 1 1 d . . . . .
H73A H 0.7572 0.8345 0.3487 0.035 Uiso 1 1 calc R U . . .
C74A C 0.74125(15) 0.85518(9) 0.40422(11) 0.0262(8) Uani 1 1 d . . . . .
C75A C 0.69989(15) 0.87439(9) 0.42422(11) 0.0276(8) Uani 1 1 d . . . . .
H75A H 0.7072 0.8810 0.4521 0.033 Uiso 1 1 calc R U . . .
C76A C 0.64820(15) 0.88412(9) 0.40436(11) 0.0258(8) Uani 1 1 d . . . . .
H76A H 0.6203 0.8970 0.4187 0.031 Uiso 1 1 calc R U . . .
C77A C 0.79870(15) 0.84547(10) 0.42645(12) 0.0308(9) Uani 1 1 d . . . . .
C78A C 0.78855(18) 0.82853(13) 0.46807(13) 0.0478(12) Uani 1 1 d . . . . .
H78A H 0.7658 0.8066 0.4640 0.072 Uiso 1 1 calc R U . . .
H78B H 0.7678 0.8454 0.4849 0.072 Uiso 1 1 calc R U . . .
H78C H 0.8255 0.8227 0.4820 0.072 Uiso 1 1 calc R U . . .
C79A C 0.83411(18) 0.82004(13) 0.40185(14) 0.0475(11) Uani 1 1 d . . . . .
H79A H 0.8121 0.7981 0.3959 0.071 Uiso 1 1 calc R U . . .
H79B H 0.8696 0.8140 0.4177 0.071 Uiso 1 1 calc R U . . .
H79C H 0.8435 0.8315 0.3760 0.071 Uiso 1 1 calc R U . . .
C80A C 0.83333(17) 0.88036(12) 0.43322(15) 0.0474(11) Uani 1 1 d . . . . .
H80A H 0.8700 0.8749 0.4478 0.071 Uiso 1 1 calc R U . . .
H80B H 0.8115 0.8971 0.4496 0.071 Uiso 1 1 calc R U . . .
H80C H 0.8404 0.8912 0.4066 0.071 Uiso 1 1 calc R U . . .
C81A C 0.5000 0.94598(11) 0.2500 0.0171(10) Uani 1 2 d S T P . .
C82A C 0.59404(14) -0.05260(9) 0.28451(11) 0.0234(8) Uani 1 1 d . . . . .
C83A C 0.59637(14) -0.01535(9) 0.27963(11) 0.0247(8) Uani 1 1 d . . . . .
H83A H 0.6310 -0.0028 0.2866 0.030 Uiso 1 1 calc R U . . .
C84A C 0.54911(14) 0.00309(9) 0.26492(11) 0.0242(8) Uani 1 1 d . . . . .
C85A C 0.67475(14) -0.05357(9) 0.33134(11) 0.0231(8) Uani 1 1 d . . . . .
C86A C 0.73321(14) -0.05928(9) 0.33306(11) 0.0241(8) Uani 1 1 d . . . . .
H86A H 0.7503 -0.0734 0.3127 0.029 Uiso 1 1 calc R U . . .
C87A C 0.76686(15) -0.04409(10) 0.36491(11) 0.0279(8) Uani 1 1 d . . . . .
H87A H 0.8071 -0.0482 0.3662 0.033 Uiso 1 1 calc R U . . .
C88A C 0.74306(15) -0.02298(9) 0.39497(11) 0.0268(8) Uani 1 1 d . . . . .
C89A C 0.68355(15) -0.01901(10) 0.39267(12) 0.0299(8) Uani 1 1 d . . . . .
H89A H 0.6660 -0.0053 0.4131 0.036 Uiso 1 1 calc R U . . .
C90A C 0.64936(15) -0.03431(9) 0.36174(11) 0.0263(8) Uani 1 1 d . . . . .
H90A H 0.6088 -0.0317 0.3613 0.032 Uiso 1 1 calc R U . . .
C91A C 0.77930(17) -0.00460(10) 0.42947(12) 0.0340(9) Uani 1 1 d . . . . .
C92A C 0.76160(18) -0.01996(12) 0.47083(12) 0.0405(10) Uani 1 1 d . . . . .
H92A H 0.7673 -0.0460 0.4711 0.061 Uiso 1 1 calc R U . . .
H92B H 0.7211 -0.0146 0.4745 0.061 Uiso 1 1 calc R U . . .
H92C H 0.7852 -0.0091 0.4932 0.061 Uiso 1 1 calc R U . . .
C93A C 0.84317(16) -0.01050(12) 0.42486(13) 0.0414(11) Uani 1 1 d . . . . .
H93A H 0.8515 -0.0362 0.4256 0.062 Uiso 1 1 calc R U . . .
H93B H 0.8649 0.0014 0.4474 0.062 Uiso 1 1 calc R U . . .
H93C H 0.8543 -0.0005 0.3986 0.062 Uiso 1 1 calc R U . . .
C94A C 0.7673(2) 0.03585(11) 0.42846(14) 0.0498(12) Uani 1 1 d . . . . .
H94A H 0.7918 0.0478 0.4495 0.075 Uiso 1 1 calc R U . . .
H94B H 0.7269 0.0401 0.4338 0.075 Uiso 1 1 calc R U . . .
H94C H 0.7754 0.0454 0.4014 0.075 Uiso 1 1 calc R U . . .
C95A C 0.54549(14) 0.92762(9) 0.27214(11) 0.0217(7) Uani 1 1 d . . . . .
C96A C 0.5000 -0.01554(13) 0.2500 0.0235(11) Uani 1 2 d S T P . .
C1B C 0.3778(2) 0.43783(14) 0.2976(2) 0.0634(16) Uani 1 1 d . . . . .
C2B C 0.3910(2) 0.40592(17) 0.32097(17) 0.0641(15) Uani 1 1 d . . . . .
C3B C 0.3771(2) 0.37446(14) 0.2974(2) 0.0628(16) Uani 1 1 d . . . . .
C4B C 0.3532(2) 0.38593(17) 0.2567(2) 0.0720(17) Uani 1 1 d . . . . .
C5B C 0.3533(2) 0.42642(16) 0.2574(2) 0.0733(18) Uani 1 1 d . . . . .
C6B C 0.4134(2) 0.46815(14) 0.3003(2) 0.0700(17) Uani 1 1 d . . . . .
C7B C 0.4642(3) 0.46720(17) 0.32733(19) 0.0733(17) Uani 1 1 d . . . . .
C8B C 0.4772(3) 0.4376(2) 0.34976(18) 0.0804(19) Uani 1 1 d . . . . .
C9B C 0.4416(3) 0.40590(19) 0.34727(17) 0.0795(19) Uani 1 1 d . . . . .
C10B C 0.4768(3) 0.37473(18) 0.34977(16) 0.0744(17) Uani 1 1 d . . . . .
C11B C 0.4636(3) 0.34527(15) 0.32695(18) 0.0673(16) Uani 1 1 d . . . . .
C12B C 0.4126(2) 0.34457(14) 0.2998(2) 0.0684(16) Uani 1 1 d . . . . .
C13B C 0.4253(2) 0.32557(12) 0.2637(2) 0.0599(15) Uani 1 1 d . . . . .
C14B C 0.4014(2) 0.33665(13) 0.2260(2) 0.0639(15) Uani 1 1 d . . . . .
C15B C 0.3658(2) 0.36766(17) 0.2226(2) 0.0786(19) Uani 1 1 d . . . . .
C16B C 0.3773(2) 0.38787(17) 0.18562(19) 0.0677(16) Uani 1 1 d . . . . .
C17B C 0.3776(2) 0.42459(17) 0.1861(2) 0.0709(17) Uani 1 1 d . . . . .
C18B C 0.3655(2) 0.44486(16) 0.2230(2) 0.0786(19) Uani 1 1 d . . . . .
C19B C 0.4013(2) 0.47583(13) 0.2265(2) 0.0666(16) Uani 1 1 d . . . . .
C20B C 0.4254(2) 0.48728(12) 0.2640(2) 0.0634(15) Uani 1 1 d . . . . .
C21B C 0.5380(3) 0.4250(2) 0.35405(17) 0.0750(17) Uani 1 1 d . . . . .
C22B C 0.5379(3) 0.38688(19) 0.35369(16) 0.0733(17) Uani 1 1 d . . . . .
C23B C 0.5102(3) 0.32542(13) 0.30593(19) 0.0680(16) Uani 1 1 d . . . . .
C24B C 0.4848(2) 0.31379(11) 0.26731(18) 0.0586(14) Uani 1 1 d . . . . .
C25B C 0.4366(3) 0.33674(14) 0.1905(2) 0.0726(17) Uani 1 1 d . . . . .
C26B C 0.4216(3) 0.36865(16) 0.16547(19) 0.0751(18) Uani 1 1 d . . . . .
C27B C 0.4853(2) 0.49893(10) 0.26748(19) 0.0632(15) Uani 1 1 d . . . . .
C28B C 0.5112(3) 0.48699(14) 0.3058(2) 0.0777(19) Uani 1 1 d . . . . .
C29B C 0.5782(3) 0.44382(16) 0.33470(19) 0.0748(18) Uani 1 1 d . . . . .
C30B C 0.4361(3) 0.47562(16) 0.1905(2) 0.0789(18) Uani 1 1 d . . . . .
C1S C 0.73929(17) 0.03834(12) 0.67224(14) 0.0430(11) Uani 1 1 d . . . . .
C2S C 0.77051(18) 0.01215(12) 0.65404(16) 0.0483(12) Uani 1 1 d . . . . .
H2S H 0.7761 -0.0102 0.6675 0.058 Uiso 1 1 calc R U . . .
C3S C 0.79407(19) 0.01762(11) 0.61638(15) 0.0483(12) Uani 1 1 d . . . . .
H3S H 0.8156 -0.0010 0.6047 0.058 Uiso 1 1 calc R U . . .
C4S C 0.78689(17) 0.04948(12) 0.59559(13) 0.0402(10) Uani 1 1 d . . . . .
C5S C 0.75560(18) 0.07604(12) 0.61407(15) 0.0465(11) Uani 1 1 d . . . . .
H5S H 0.7500 0.0985 0.6007 0.056 Uiso 1 1 calc R U . . .
C6S C 0.73273(18) 0.07035(12) 0.65131(15) 0.0482(11) Uani 1 1 d . . . . .
H6S H 0.7116 0.0891 0.6632 0.058 Uiso 1 1 calc R U . . .
C7S C 0.8130(2) 0.05634(15) 0.55522(16) 0.0663(15) Uani 1 1 d . . . . .
H7S1 H 0.8432 0.0745 0.5588 0.100 Uiso 1 1 calc R U . . .
H7S2 H 0.7833 0.0650 0.5353 0.100 Uiso 1 1 calc R U . . .
H7S3 H 0.8295 0.0341 0.5451 0.100 Uiso 1 1 calc R U . . .
C8S C 0.7147(2) 0.03297(16) 0.71358(15) 0.0665(15) Uani 1 1 d . . . . .
H8S1 H 0.7332 0.0495 0.7334 0.100 Uiso 1 1 calc R U . . .
H8S2 H 0.7215 0.0082 0.7227 0.100 Uiso 1 1 calc R U . . .
H8S3 H 0.6733 0.0376 0.7115 0.100 Uiso 1 1 calc R U . . .
C1T C 0.59465(18) 0.12482(12) 0.67308(14) 0.0437(11) Uani 1 1 d . . . . .
C2T C 0.57300(19) 0.15399(14) 0.65180(14) 0.0486(12) Uani 1 1 d . . . . .
H2T H 0.5464 0.1504 0.6291 0.058 Uiso 1 1 calc R U . . .
C3T C 0.58917(19) 0.18831(13) 0.66275(14) 0.0490(12) Uani 1 1 d . . . . .
H3T H 0.5726 0.2080 0.6479 0.059 Uiso 1 1 calc R U . . .
C4T C 0.62913(18) 0.19505(12) 0.69505(14) 0.0430(11) Uani 1 1 d . . . . .
C5T C 0.65048(18) 0.16561(12) 0.71658(14) 0.0436(11) Uani 1 1 d . . . . .
H5T H 0.6774 0.1692 0.7390 0.052 Uiso 1 1 calc R U . . .
C6T C 0.63348(18) 0.13116(13) 0.70623(14) 0.0462(11) Uani 1 1 d . . . . .
H6T H 0.6484 0.1115 0.7219 0.055 Uiso 1 1 calc R U . . .
C7T C 0.5776(2) 0.08686(13) 0.66074(16) 0.0595(14) Uani 1 1 d . . . . .
H7T1 H 0.5775 0.0717 0.6853 0.089 Uiso 1 1 calc R U . . .
H7T2 H 0.6052 0.0773 0.6418 0.089 Uiso 1 1 calc R U . . .
H7T3 H 0.5392 0.0871 0.6472 0.089 Uiso 1 1 calc R U . . .
C8T C 0.6480(2) 0.23229(13) 0.70616(17) 0.0598(14) Uani 1 1 d . . . . .
H8T1 H 0.6407 0.2482 0.6825 0.090 Uiso 1 1 calc R U . . .
H8T2 H 0.6891 0.2322 0.7139 0.090 Uiso 1 1 calc R U . . .
H8T3 H 0.6265 0.2408 0.7293 0.090 Uiso 1 1 calc R U . . .
C1U C 0.47879(19) 0.19925(13) 0.53747(15) 0.0503(12) Uani 1 1 d . . . . .
C2U C 0.4678(2) 0.23163(15) 0.51865(15) 0.0591(14) Uani 1 1 d . . . . .
H2U H 0.4925 0.2398 0.4983 0.071 Uiso 1 1 calc R U . . .
C3U C 0.4215(2) 0.25260(14) 0.52876(15) 0.0550(13) Uani 1 1 d . . . . .
H3U H 0.4154 0.2751 0.5157 0.066 Uiso 1 1 calc R U . . .
C4U C 0.38417(19) 0.24116(13) 0.55765(14) 0.0497(12) Uani 1 1 d . . . . .
C5U C 0.39463(19) 0.20815(13) 0.57601(14) 0.0495(12) Uani 1 1 d . . . . .
H5U H 0.3693 0.1995 0.5957 0.059 Uiso 1 1 calc R U . . .
C6U C 0.44124(19) 0.18768(12) 0.56613(14) 0.0472(11) Uani 1 1 d . . . . .
H6U H 0.4476 0.1652 0.5793 0.057 Uiso 1 1 calc R U . . .
C7U C 0.5309(2) 0.17716(16) 0.52819(18) 0.0741(17) Uani 1 1 d . . . . .
H7U1 H 0.5416 0.1819 0.5000 0.111 Uiso 1 1 calc R U . . .
H7U2 H 0.5220 0.1517 0.5312 0.111 Uiso 1 1 calc R U . . .
H7U3 H 0.5629 0.1836 0.5474 0.111 Uiso 1 1 calc R U . . .
C8U C 0.3337(2) 0.26340(15) 0.56874(17) 0.0691(15) Uani 1 1 d . . . . .
H8U1 H 0.3249 0.2586 0.5973 0.104 Uiso 1 1 calc R U . . .
H8U2 H 0.3004 0.2573 0.5506 0.104 Uiso 1 1 calc R U . . .
H8U3 H 0.3429 0.2889 0.5656 0.104 Uiso 1 1 calc R U . . .
C1V C 0.95543(18) 0.19663(12) 0.39659(12) 0.0388(10) Uani 1 1 d . . . . .
C2V C 0.9135(2) 0.17084(12) 0.39679(14) 0.0485(11) Uani 1 1 d . . . . .
H2V H 0.9236 0.1465 0.3923 0.058 Uiso 1 1 calc R U . . .
C3V C 0.8573(2) 0.17918(13) 0.40335(15) 0.0537(12) Uani 1 1 d . . . . .
H3V H 0.8294 0.1607 0.4029 0.064 Uiso 1 1 calc R U . . .
C4V C 0.84081(18) 0.21422(12) 0.41057(13) 0.0441(11) Uani 1 1 d . . . . .
C5V C 0.88273(19) 0.24006(12) 0.41057(14) 0.0457(11) Uani 1 1 d . . . . .
H5V H 0.8729 0.2643 0.4155 0.055 Uiso 1 1 calc R U . . .
C6V C 0.93918(19) 0.23137(12) 0.40356(14) 0.0445(11) Uani 1 1 d . . . . .
H6V H 0.9672 0.2498 0.4036 0.053 Uiso 1 1 calc R U . . .
C7V C 0.7792(2) 0.22385(16) 0.41915(18) 0.0691(15) Uani 1 1 d . . . . .
H7V1 H 0.7529 0.2112 0.3997 0.104 Uiso 1 1 calc R U . . .
H7V2 H 0.7737 0.2498 0.4160 0.104 Uiso 1 1 calc R U . . .
H7V3 H 0.7712 0.2168 0.4472 0.104 Uiso 1 1 calc R U . . .
C8V C 1.01667(18) 0.18725(14) 0.38898(14) 0.0542(13) Uani 1 1 d . . . . .
H8V1 H 1.0312 0.2035 0.3684 0.081 Uiso 1 1 calc R U . . .
H8V2 H 1.0186 0.1625 0.3790 0.081 Uiso 1 1 calc R U . . .
H8V3 H 1.0401 0.1896 0.4146 0.081 Uiso 1 1 calc R U . . .
C1W C 0.31371(18) 0.17785(13) 0.44405(14) 0.0464(11) Uani 1 1 d . . . . .
C2W C 0.33770(18) 0.15179(15) 0.46987(14) 0.0522(13) Uani 1 1 d . . . . .
H2W H 0.3639 0.1586 0.4917 0.063 Uiso 1 1 calc R U . . .
C3W C 0.32398(19) 0.11587(15) 0.46424(14) 0.0522(12) Uani 1 1 d . . . . .
H3W H 0.3412 0.0986 0.4823 0.063 Uiso 1 1 calc R U . . .
C4W C 0.28558(17) 0.10458(12) 0.43280(13) 0.0426(11) Uani 1 1 d . . . . .
C5W C 0.26312(17) 0.13100(12) 0.40705(14) 0.0421(10) Uani 1 1 d . . . . .
H5W H 0.2376 0.1243 0.3848 0.050 Uiso 1 1 calc R U . . .
C6W C 0.27634(18) 0.16676(12) 0.41246(14) 0.0444(11) Uani 1 1 d . . . . .
H6W H 0.2595 0.1840 0.3942 0.053 Uiso 1 1 calc R U . . .
C7W C 0.3270(2) 0.21682(15) 0.45110(16) 0.0654(15) Uani 1 1 d . . . . .
H7W1 H 0.3686 0.2205 0.4509 0.098 Uiso 1 1 calc R U . . .
H7W2 H 0.3133 0.2242 0.4777 0.098 Uiso 1 1 calc R U . . .
H7W3 H 0.3079 0.2311 0.4293 0.098 Uiso 1 1 calc R U . . .
C8W C 0.27084(19) 0.06591(12) 0.42672(15) 0.0528(12) Uani 1 1 d . . . . .
H8W1 H 0.2292 0.0628 0.4278 0.079 Uiso 1 1 calc R U . . .
H8W2 H 0.2903 0.0516 0.4485 0.079 Uiso 1 1 calc R U . . .
H8W3 H 0.2833 0.0580 0.3999 0.079 Uiso 1 1 calc R U . . .
C1X C 0.5548(4) 0.9590(3) 0.4917(3) 0.056(3) Uani 0.7 1 d D . P A 1
C2X C 0.5564(4) 0.9861(3) 0.4636(3) 0.057(2) Uani 0.7 1 d D . P A 1
H2X H 0.5386 0.9830 0.4370 0.069 Uiso 0.7 1 calc R U P A 1
C3X C 0.5840(7) 1.0180(3) 0.4738(4) 0.062(4) Uani 0.7 1 d D . P A 1
H3X H 0.5844 1.0367 0.4540 0.075 Uiso 0.7 1 calc R U P A 1
C4X C 0.6112(3) 1.0234(2) 0.5124(2) 0.0513(19) Uani 0.7 1 d D . P A 1
C5X C 0.6082(3) 0.9951(2) 0.5398(3) 0.058(2) Uani 0.7 1 d D . P A 1
H5X H 0.6253 0.9980 0.5667 0.069 Uiso 0.7 1 calc R U P A 1
C6X C 0.5826(4) 0.9644(3) 0.5304(2) 0.048(3) Uani 0.7 1 d D . P A 1
H6X H 0.5830 0.9456 0.5502 0.058 Uiso 0.7 1 calc R U P A 1
C7X C 0.5252(4) 0.9234(2) 0.4823(3) 0.086(3) Uani 0.7 1 d D . P A 1
H7X1 H 0.5515 0.9036 0.4896 0.129 Uiso 0.7 1 calc R U P A 1
H7X2 H 0.5142 0.9221 0.4529 0.129 Uiso 0.7 1 calc R U P A 1
H7X3 H 0.4908 0.9214 0.4982 0.129 Uiso 0.7 1 calc R U P A 1
C8X C 0.6404(4) 1.0582(2) 0.5238(3) 0.091(3) Uani 0.7 1 d D . P A 1
H8X1 H 0.6380 1.0625 0.5533 0.137 Uiso 0.7 1 calc R U P A 1
H8X2 H 0.6213 1.0778 0.5085 0.137 Uiso 0.7 1 calc R U P A 1
H8X3 H 0.6808 1.0571 0.5169 0.137 Uiso 0.7 1 calc R U P A 1
C1X' C 0.5450(8) 0.9641(4) 0.4641(5) 0.056(6) Uani 0.3 1 d D U P B 2
C2X' C 0.5582(11) 0.9504(5) 0.5022(6) 0.046(7) Uani 0.3 1 d D U P B 2
H2X' H 0.5472 0.9266 0.5086 0.056 Uiso 0.3 1 calc R U P B 2
C3X' C 0.588(2) 0.9711(8) 0.5316(7) 0.12(2) Uani 0.3 1 d D U P B 2
H3X' H 0.5941 0.9618 0.5586 0.147 Uiso 0.3 1 calc R U P B 2
C4X' C 0.6079(11) 1.0053(5) 0.5225(5) 0.068(9) Uani 0.3 1 d D U P B 2
C5X' C 0.593(2) 1.0180(7) 0.4835(7) 0.063(12) Uani 0.3 1 d D U P B 2
H5X' H 0.6054 1.0414 0.4764 0.075 Uiso 0.3 1 calc R U P B 2
C6X' C 0.5630(13) 0.9991(6) 0.4556(6) 0.079(11) Uani 0.3 1 d D U P B 2
H6X' H 0.5534 1.0095 0.4295 0.094 Uiso 0.3 1 calc R U P B 2
C7X' C 0.5091(8) 0.9434(5) 0.4317(6) 0.093(7) Uani 0.3 1 d D U P B 2
H7X4 H 0.5346 0.9307 0.4137 0.139 Uiso 0.3 1 calc R U P B 2
H7X5 H 0.4849 0.9601 0.4154 0.139 Uiso 0.3 1 calc R U P B 2
H7X6 H 0.4847 0.9261 0.4452 0.139 Uiso 0.3 1 calc R U P B 2
C8X' C 0.6429(10) 1.0269(6) 0.5537(6) 0.107(8) Uani 0.3 1 d D U P B 2
H8X4 H 0.6438 1.0520 0.5450 0.160 Uiso 0.3 1 calc R U P B 2
H8X5 H 0.6821 1.0174 0.5560 0.160 Uiso 0.3 1 calc R U P B 2
H8X6 H 0.6256 1.0252 0.5804 0.160 Uiso 0.3 1 calc R U P B 2
C1Y C 0.4269(3) 0.05132(17) 0.35650(17) 0.0755(19) Uani 1 1 d . . . . .
C2Y C 0.3988(2) 0.08125(18) 0.36367(17) 0.0696(16) Uani 1 1 d . . . . .
H2Y H 0.3595 0.0825 0.3548 0.083 Uiso 1 1 calc R U . . .
C3Y C 0.4219(2) 0.10969(16) 0.38241(16) 0.0618(14) Uani 1 1 d . . . . .
H3Y H 0.3987 0.1303 0.3860 0.074 Uiso 1 1 calc R U . . .
C4Y C 0.4771(3) 0.11026(15) 0.39648(15) 0.0595(14) Uani 1 1 d . . . . .
C5Y C 0.5098(2) 0.0802(2) 0.39083(18) 0.0765(19) Uani 1 1 d . . . . .
H5Y H 0.5489 0.0798 0.4005 0.092 Uiso 1 1 calc R U . . .
C6Y C 0.4855(4) 0.04954(16) 0.3707(2) 0.091(3) Uani 1 1 d . . . . .
H6Y H 0.5077 0.0286 0.3668 0.109 Uiso 1 1 calc R U . . .
C7Y C 0.4013(5) 0.0190(2) 0.3358(2) 0.201(6) Uani 1 1 d . . . . .
H7Y1 H 0.3661 0.0122 0.3490 0.302 Uiso 1 1 calc R U . . .
H7Y2 H 0.4288 -0.0009 0.3379 0.302 Uiso 1 1 calc R U . . .
H7Y3 H 0.3922 0.0244 0.3068 0.302 Uiso 1 1 calc R U . . .
C8Y C 0.5032(4) 0.1433(2) 0.4175(2) 0.131(3) Uani 1 1 d . . . . .
H8Y1 H 0.4756 0.1536 0.4359 0.196 Uiso 1 1 calc R U . . .
H8Y2 H 0.5126 0.1611 0.3968 0.196 Uiso 1 1 calc R U . . .
H8Y3 H 0.5383 0.1365 0.4335 0.196 Uiso 1 1 calc R U . . .
C1Z C 0.7533(3) 0.17010(16) 0.5889(3) 0.094(2) Uani 1 1 d . . . . .
C2Z C 0.6995(2) 0.16231(14) 0.5732(2) 0.0796(19) Uani 1 1 d . . . . .
H2Z H 0.6682 0.1650 0.5905 0.096 Uiso 1 1 calc R U . . .
C3Z C 0.6880(3) 0.15056(15) 0.5326(3) 0.083(2) Uani 1 1 d . . . . .
H3Z H 0.6497 0.1447 0.5237 0.100 Uiso 1 1 calc R U . . .
C4Z C 0.7311(4) 0.14740(17) 0.5056(3) 0.106(3) Uani 1 1 d . . . . .
C5Z C 0.7889(4) 0.1565(2) 0.5227(4) 0.132(4) Uani 1 1 d . . . . .
H5Z H 0.8214 0.1546 0.5063 0.159 Uiso 1 1 calc R U . . .
C6Z C 0.7947(4) 0.1680(2) 0.5633(4) 0.133(4) Uani 1 1 d . . . . .
H6Z H 0.8320 0.1748 0.5734 0.159 Uiso 1 1 calc R U . . .
C7Z C 0.7660(4) 0.18061(18) 0.6331(3) 0.134(3) Uani 1 1 d . . . . .
H7Z1 H 0.8063 0.1880 0.6368 0.201 Uiso 1 1 calc R U . . .
H7Z2 H 0.7590 0.1601 0.6509 0.201 Uiso 1 1 calc R U . . .
H7Z3 H 0.7411 0.2006 0.6402 0.201 Uiso 1 1 calc R U . . .
C8Z C 0.7195(5) 0.1348(2) 0.4627(3) 0.169(5) Uani 1 1 d . . . . .
H8Z1 H 0.6782 0.1311 0.4576 0.254 Uiso 1 1 calc R U . . .
H8Z2 H 0.7397 0.1121 0.4586 0.254 Uiso 1 1 calc R U . . .
H8Z3 H 0.7330 0.1527 0.4435 0.254 Uiso 1 1 calc R U . . .
N1A N 0.57839(11) 0.23557(7) 0.28077(9) 0.0232(7) Uani 1 1 d . . . . .
N2A N 0.46211(11) 0.23565(7) 0.30475(9) 0.0205(6) Uani 1 1 d . . . . .
N3A N 0.58013(11) 0.57911(7) 0.27818(9) 0.0200(6) Uani 1 1 d . . . . .
N4A N 0.46438(11) 0.57851(7) 0.30556(8) 0.0187(6) Uani 1 1 d . . . . .
N5A N 0.5000 0.17175(10) 0.2500 0.0210(9) Uani 1 2 d S T P . .
N6A N 0.5000 0.05995(10) 0.2500 0.0218(9) Uani 1 2 d S T P . .
N7A N 0.5000 0.64446(10) 0.2500 0.0214(9) Uani 1 2 d S T P . .
N8A N 0.5000 0.75720(10) 0.2500 0.0241(9) Uani 1 2 d S T P . .
O1A O 0.55353(11) 0.31254(7) 0.47846(8) 0.0361(6) Uani 1 1 d . . . . .
O2A O 0.57710(11) 0.50551(6) 0.48023(8) 0.0319(6) Uani 1 1 d . . . . .
O3A O 0.59326(11) 0.05992(6) 0.27288(9) 0.0387(7) Uani 1 1 d . . . . .
O4A O 0.55523(11) 0.75739(6) 0.30979(8) 0.0346(6) Uani 1 1 d . . . . .
O5A O 0.58594(9) 0.88769(6) 0.34514(7) 0.0246(5) Uani 1 1 d . . . . .
O6A O 0.64254(9) -0.07004(6) 0.29899(7) 0.0243(5) Uani 1 1 d . . . . .
Zn1 Zn 0.5000 0.58696(2) 0.2500 0.01792(13) Uani 1 2 d S T P . .
Zn2 Zn 0.5000 0.22873(2) 0.2500 0.02000(14) Uani 1 2 d S T P . .
loop_
_atom_site_aniso_label
_atom_site_aniso_U_11
_atom_site_aniso_U_22
_atom_site_aniso_U_33
_atom_site_aniso_U_23
_atom_site_aniso_U_13
_atom_site_aniso_U_12
C1A 0.0193(18) 0.0207(17) 0.027(2) 0.0013(15) 0.0021(15) 0.0008(13)
C2A 0.0179(18) 0.033(2) 0.032(2) 0.0009(17) 0.0006(16) 0.0001(15)
C3A 0.0210(19) 0.032(2) 0.033(2) 0.0005(17) -0.0044(16) -0.0030(15)
C4A 0.0212(18) 0.0202(18) 0.030(2) -0.0011(15) 0.0009(16) -0.0018(14)
C5A 0.0231(18) 0.0174(17) 0.030(2) 0.0004(15) -0.0009(16) -0.0017(13)
C6A 0.0168(17) 0.0267(19) 0.030(2) 0.0014(16) -0.0003(15) -0.0049(14)
C7A 0.0263(19) 0.0261(19) 0.023(2) 0.0030(15) -0.0030(15) -0.0032(14)
C8A 0.0262(19) 0.028(2) 0.031(2) -0.0043(17) 0.0011(16) -0.0048(15)
C9A 0.026(2) 0.040(2) 0.029(2) 0.0012(18) -0.0039(17) -0.0041(16)
C10A 0.0241(19) 0.039(2) 0.031(2) 0.0092(18) -0.0018(17) 0.0006(16)
C11A 0.0240(19) 0.031(2) 0.033(2) -0.0009(17) 0.0005(16) 0.0026(15)
C12A 0.0220(18) 0.0204(18) 0.027(2) -0.0009(15) -0.0014(15) -0.0011(13)
C13A 0.0252(19) 0.040(2) 0.025(2) -0.0005(17) 0.0025(16) -0.0028(16)
C14A 0.0198(18) 0.040(2) 0.029(2) -0.0041(18) 0.0052(16) -0.0065(16)
C15A 0.0239(19) 0.0209(17) 0.030(2) 0.0001(16) 0.0038(16) -0.0022(14)
C16A 0.0174(17) 0.0195(17) 0.033(2) -0.0019(15) 0.0046(15) 0.0011(13)
C17A 0.0187(18) 0.033(2) 0.025(2) 0.0012(16) 0.0004(15) -0.0021(14)
C18A 0.0229(19) 0.031(2) 0.029(2) 0.0050(16) 0.0014(16) 0.0011(15)
C19A 0.0214(19) 0.035(2) 0.034(2) 0.0092(17) -0.0023(16) -0.0059(15)
C20A 0.0201(19) 0.047(2) 0.030(2) 0.0075(18) -0.0003(16) -0.0027(16)
C21A 0.0227(19) 0.043(2) 0.032(2) -0.0046(18) 0.0046(16) 0.0041(16)
C22A 0.0218(19) 0.032(2) 0.032(2) -0.0026(17) 0.0032(16) 0.0000(15)
C23A 0.027(2) 0.028(2) 0.060(3) 0.008(2) -0.0016(19) -0.0032(16)
C24A 0.022(2) 0.061(3) 0.054(3) 0.011(2) 0.0091(19) -0.0033(19)
C25A 0.029(2) 0.032(2) 0.061(3) -0.009(2) 0.008(2) 0.0046(16)
C26A 0.035(2) 0.029(2) 0.029(2) -0.0016(17) -0.0028(17) -0.0017(16)
C27A 0.038(2) 0.031(2) 0.029(2) -0.0001(17) 0.0028(18) -0.0025(17)
C28A 0.040(2) 0.026(2) 0.030(2) 0.0000(17) 0.0035(18) -0.0012(16)
C29A 0.035(2) 0.030(2) 0.025(2) -0.0009(17) 0.0032(16) -0.0051(16)
C30A 0.036(2) 0.029(2) 0.025(2) 0.0001(16) 0.0007(17) 0.0000(16)
C31A 0.038(2) 0.0260(19) 0.027(2) 0.0006(16) -0.0033(17) -0.0059(16)
C32A 0.0269(19) 0.0206(18) 0.027(2) 0.0022(15) 0.0005(16) 0.0017(14)
C33A 0.028(2) 0.029(2) 0.021(2) -0.0038(16) -0.0037(16) 0.0008(15)
C34A 0.0219(18) 0.0311(19) 0.027(2) -0.0079(17) -0.0035(15) -0.0010(15)
C35A 0.0242(18) 0.0250(19) 0.0238(19) -0.0029(15) 0.0005(15) 0.0008(14)
C36A 0.0183(17) 0.0225(18) 0.0225(19) -0.0033(15) 0.0008(14) 0.0031(13)
C37A 0.0257(18) 0.0235(18) 0.0210(19) -0.0007(15) -0.0015(15) -0.0006(14)
C38A 0.0180(17) 0.0167(16) 0.026(2) -0.0020(14) 0.0003(15) -0.0009(12)
C39A 0.0161(17) 0.0264(18) 0.030(2) 0.0008(16) -0.0007(15) 0.0017(14)
C40A 0.0194(18) 0.0249(19) 0.028(2) -0.0003(16) -0.0018(15) 0.0007(14)
C41A 0.0208(17) 0.0157(16) 0.024(2) -0.0004(14) -0.0023(15) 0.0011(13)
C42A 0.0233(18) 0.0137(16) 0.0236(19) -0.0005(14) -0.0020(15) -0.0015(13)
C43A 0.0201(17) 0.0129(16) 0.0240(19) -0.0029(14) -0.0007(14) -0.0031(13)
C44A 0.0263(19) 0.0276(19) 0.0188(19) 0.0011(15) 0.0012(15) -0.0024(15)
C45A 0.0197(18) 0.0282(18) 0.025(2) -0.0033(15) 0.0043(15) -0.0024(14)
C46A 0.0197(17) 0.0147(16) 0.0241(19) -0.0010(14) -0.0008(15) -0.0003(12)
C47A 0.0200(17) 0.0122(16) 0.0253(19) 0.0012(14) 0.0017(14) 0.0001(12)
C48A 0.0186(17) 0.034(2) 0.0224(19) -0.0025(16) 0.0001(14) 0.0021(15)
C49A 0.0202(19) 0.039(2) 0.027(2) -0.0006(17) 0.0009(16) -0.0028(16)
C50A 0.021(2) 0.058(3) 0.037(2) 0.000(2) 0.0016(17) -0.0108(18)
C51A 0.022(2) 0.057(3) 0.038(3) -0.017(2) 0.0036(18) 0.0025(18)
C52A 0.024(2) 0.049(3) 0.043(3) -0.012(2) 0.0032(18) 0.0040(18)
C53A 0.0207(19) 0.036(2) 0.028(2) -0.0064(17) -0.0002(16) 0.0030(15)
C54A 0.029(2) 0.039(2) 0.045(3) 0.005(2) 0.0023(19) -0.0090(17)
C55A 0.024(2) 0.098(4) 0.074(4) -0.032(3) 0.018(2) -0.004(2)
C56A 0.031(2) 0.026(2) 0.046(3) -0.0064(18) 0.0000(18) 0.0048(16)
C57A 0.035(2) 0.0213(18) 0.027(2) -0.0010(16) 0.0033(17) 0.0005(15)
C58A 0.034(2) 0.0211(18) 0.026(2) 0.0046(16) 0.0020(16) 0.0023(15)
C59A 0.018(2) 0.016(2) 0.032(3) 0.000 -0.001(2) 0.000
C60A 0.0231(19) 0.0178(17) 0.035(2) -0.0007(16) -0.0028(16) -0.0014(14)
C61A 0.0241(18) 0.0215(18) 0.027(2) 0.0021(15) 0.0011(15) 0.0000(14)
C62A 0.0242(18) 0.0185(17) 0.029(2) -0.0037(15) 0.0013(16) 0.0022(14)
C63A 0.019(2) 0.022(3) 0.025(3) 0.000 -0.003(2) 0.000
C64A 0.0271(19) 0.0221(18) 0.034(2) 0.0007(17) -0.0050(17) 0.0007(15)
C65A 0.0219(18) 0.0209(18) 0.028(2) -0.0003(15) -0.0015(15) 0.0008(14)
C66A 0.0239(18) 0.0209(18) 0.027(2) 0.0020(15) -0.0053(15) 0.0003(14)
C67A 0.0194(17) 0.0253(18) 0.026(2) -0.0022(16) -0.0023(15) 0.0003(14)
C68A 0.0187(17) 0.0162(17) 0.027(2) 0.0010(14) -0.0024(15) 0.0015(13)
C69A 0.014(2) 0.026(3) 0.018(3) 0.000 0.0017(19) 0.000
C70A 0.019(2) 0.015(2) 0.026(3) 0.000 0.001(2) 0.000
C71A 0.0242(18) 0.0163(17) 0.029(2) 0.0037(15) -0.0061(15) -0.0011(13)
C72A 0.028(2) 0.0245(19) 0.026(2) -0.0028(16) -0.0027(16) 0.0021(15)
C73A 0.027(2) 0.028(2) 0.034(2) -0.0010(17) 0.0028(17) 0.0038(15)
C74A 0.0238(19) 0.0250(19) 0.030(2) 0.0040(16) 0.0008(16) -0.0038(14)
C75A 0.0263(19) 0.032(2) 0.024(2) -0.0005(16) -0.0029(16) 0.0001(15)
C76A 0.0265(19) 0.0254(19) 0.025(2) -0.0007(16) -0.0011(16) -0.0006(15)
C77A 0.026(2) 0.035(2) 0.030(2) 0.0035(17) -0.0035(17) 0.0023(16)
C78A 0.039(2) 0.064(3) 0.040(3) 0.020(2) -0.005(2) 0.008(2)
C79A 0.034(2) 0.063(3) 0.045(3) -0.002(2) -0.007(2) 0.016(2)
C80A 0.030(2) 0.053(3) 0.058(3) 0.005(2) -0.013(2) -0.0033(19)
C81A 0.020(2) 0.003(2) 0.028(3) 0.000 -0.001(2) 0.000
C82A 0.0218(18) 0.0208(18) 0.027(2) 0.0005(15) -0.0023(15) 0.0024(14)
C83A 0.0187(18) 0.0231(18) 0.032(2) -0.0025(16) -0.0043(15) -0.0017(14)
C84A 0.0189(18) 0.0204(18) 0.033(2) -0.0021(15) -0.0031(15) 0.0006(13)
C85A 0.0219(18) 0.0186(17) 0.028(2) 0.0011(15) -0.0040(15) -0.0009(13)
C86A 0.0204(18) 0.0233(18) 0.029(2) 0.0015(15) 0.0017(15) -0.0014(14)
C87A 0.0177(18) 0.034(2) 0.032(2) 0.0051(17) -0.0016(16) -0.0019(15)
C88A 0.0251(19) 0.0281(19) 0.027(2) 0.0022(16) -0.0037(16) -0.0018(15)
C89A 0.030(2) 0.0266(19) 0.033(2) -0.0046(17) -0.0004(17) -0.0001(15)
C90A 0.0208(18) 0.0270(19) 0.031(2) -0.0008(16) -0.0007(16) 0.0002(14)
C91A 0.037(2) 0.035(2) 0.029(2) -0.0033(18) -0.0070(18) -0.0022(17)
C92A 0.043(2) 0.048(3) 0.030(2) 0.000(2) -0.0051(19) -0.0001(19)
C93A 0.034(2) 0.050(3) 0.038(3) 0.004(2) -0.0134(19) -0.0164(19)
C94A 0.062(3) 0.039(2) 0.046(3) -0.005(2) -0.018(2) -0.012(2)
C95A 0.0202(17) 0.0204(18) 0.024(2) -0.0010(15) -0.0029(15) -0.0001(13)
C96A 0.016(2) 0.033(3) 0.021(3) 0.000 0.001(2) 0.000
C1B 0.037(3) 0.055(3) 0.101(5) -0.015(3) 0.041(3) 0.006(2)
C2B 0.048(3) 0.091(4) 0.057(3) 0.002(3) 0.035(3) 0.003(3)
C3B 0.038(3) 0.054(3) 0.100(5) 0.016(3) 0.040(3) -0.004(2)
C4B 0.022(2) 0.082(4) 0.113(5) -0.013(4) 0.018(3) -0.017(2)
C5B 0.023(2) 0.076(4) 0.123(6) 0.029(4) 0.021(3) 0.019(2)
C6B 0.065(4) 0.052(3) 0.095(5) -0.022(3) 0.030(3) 0.025(3)
C7B 0.089(5) 0.066(4) 0.067(4) -0.037(3) 0.023(4) 0.012(3)
C8B 0.106(5) 0.091(5) 0.046(4) -0.025(3) 0.022(3) 0.010(4)
C9B 0.102(5) 0.098(5) 0.044(3) 0.002(3) 0.050(3) 0.002(4)
C10B 0.100(5) 0.088(5) 0.037(3) 0.028(3) 0.017(3) 0.000(4)
C11B 0.087(4) 0.055(3) 0.061(4) 0.033(3) 0.021(3) -0.009(3)
C12B 0.063(4) 0.057(3) 0.088(4) 0.027(3) 0.032(3) -0.019(3)
C13B 0.057(3) 0.029(2) 0.096(5) 0.001(3) 0.025(3) -0.022(2)
C14B 0.044(3) 0.043(3) 0.102(5) -0.011(3) -0.010(3) -0.025(2)
C15B 0.036(3) 0.081(4) 0.117(6) 0.001(4) -0.023(3) -0.024(3)
C16B 0.043(3) 0.082(4) 0.075(4) 0.007(3) -0.033(3) -0.016(3)
C17B 0.048(3) 0.076(4) 0.085(5) 0.002(4) -0.035(3) 0.019(3)
C18B 0.037(3) 0.069(4) 0.128(6) 0.007(4) -0.017(3) 0.028(3)
C19B 0.049(3) 0.035(3) 0.115(5) 0.014(3) -0.003(3) 0.024(2)
C20B 0.068(4) 0.028(2) 0.096(5) 0.001(3) 0.026(3) 0.024(2)
C21B 0.090(5) 0.097(5) 0.036(3) -0.020(3) -0.012(3) 0.001(4)
C22B 0.088(5) 0.098(5) 0.032(3) 0.019(3) -0.010(3) -0.007(4)
C23B 0.092(4) 0.036(3) 0.076(4) 0.031(3) -0.003(4) 0.002(3)
C24B 0.066(4) 0.020(2) 0.091(5) 0.011(2) 0.010(3) -0.003(2)
C25B 0.085(4) 0.047(3) 0.084(5) -0.028(3) -0.018(4) -0.017(3)
C26B 0.090(5) 0.071(4) 0.060(4) -0.012(3) -0.043(4) -0.010(4)
C27B 0.079(4) 0.0110(19) 0.101(5) -0.010(2) 0.009(3) 0.006(2)
C28B 0.106(5) 0.040(3) 0.085(5) -0.040(3) -0.011(4) 0.008(3)
C29B 0.097(5) 0.062(4) 0.060(4) -0.024(3) -0.041(4) -0.002(3)
C30B 0.089(5) 0.054(4) 0.091(5) 0.035(3) -0.017(4) 0.017(3)
C1S 0.029(2) 0.052(3) 0.047(3) 0.003(2) -0.002(2) 0.0031(19)
C2S 0.039(3) 0.036(2) 0.070(3) 0.008(2) 0.005(2) 0.0038(19)
C3S 0.044(3) 0.034(2) 0.067(3) -0.013(2) 0.010(2) 0.0038(19)
C4S 0.031(2) 0.046(3) 0.043(3) -0.004(2) -0.0003(19) -0.0017(18)
C5S 0.041(3) 0.041(2) 0.058(3) 0.005(2) -0.002(2) 0.0045(19)
C6S 0.038(3) 0.047(3) 0.059(3) -0.007(2) 0.003(2) 0.010(2)
C7S 0.053(3) 0.086(4) 0.061(4) -0.005(3) 0.010(3) -0.004(3)
C8S 0.051(3) 0.096(4) 0.053(3) 0.012(3) 0.007(3) 0.002(3)
C1T 0.031(2) 0.056(3) 0.045(3) -0.003(2) 0.011(2) 0.000(2)
C2T 0.038(3) 0.072(3) 0.036(3) 0.005(2) 0.003(2) -0.004(2)
C3T 0.039(3) 0.061(3) 0.047(3) 0.014(2) 0.005(2) 0.006(2)
C4T 0.035(2) 0.051(3) 0.044(3) 0.006(2) 0.007(2) 0.003(2)
C5T 0.033(2) 0.058(3) 0.039(3) -0.001(2) 0.0010(19) -0.001(2)
C6T 0.038(2) 0.056(3) 0.045(3) 0.007(2) 0.009(2) 0.006(2)
C7T 0.048(3) 0.072(4) 0.059(3) -0.012(3) 0.013(2) -0.005(2)
C8T 0.051(3) 0.054(3) 0.075(4) 0.001(3) 0.005(3) 0.003(2)
C1U 0.035(2) 0.065(3) 0.050(3) 0.005(3) -0.003(2) -0.015(2)
C2U 0.040(3) 0.086(4) 0.051(3) 0.022(3) 0.004(2) -0.026(3)
C3U 0.045(3) 0.064(3) 0.055(3) 0.016(3) -0.007(2) -0.016(2)
C4U 0.041(3) 0.065(3) 0.043(3) 0.001(2) -0.008(2) -0.011(2)
C5U 0.042(3) 0.064(3) 0.042(3) 0.010(2) 0.001(2) -0.013(2)
C6U 0.040(3) 0.050(3) 0.051(3) 0.006(2) -0.001(2) -0.012(2)
C7U 0.051(3) 0.092(4) 0.080(4) -0.002(3) 0.015(3) -0.011(3)
C8U 0.065(4) 0.073(4) 0.068(4) 0.000(3) -0.003(3) 0.005(3)
C1V 0.039(2) 0.049(3) 0.028(2) 0.0000(19) -0.0010(19) 0.0038(19)
C2V 0.052(3) 0.042(3) 0.050(3) -0.008(2) -0.004(2) 0.004(2)
C3V 0.048(3) 0.048(3) 0.064(3) -0.001(2) -0.006(2) -0.007(2)
C4V 0.038(2) 0.055(3) 0.040(3) 0.007(2) 0.000(2) 0.003(2)
C5V 0.052(3) 0.037(2) 0.048(3) 0.006(2) -0.001(2) 0.006(2)
C6V 0.041(3) 0.042(3) 0.049(3) 0.005(2) -0.004(2) -0.0048(19)
C7V 0.042(3) 0.086(4) 0.079(4) 0.011(3) 0.005(3) 0.009(3)
C8V 0.041(3) 0.079(4) 0.043(3) 0.004(3) 0.001(2) 0.016(2)
C1W 0.032(2) 0.071(3) 0.037(3) -0.011(2) 0.011(2) -0.011(2)
C2W 0.032(2) 0.088(4) 0.037(3) -0.014(3) 0.002(2) 0.003(2)
C3W 0.041(3) 0.082(4) 0.034(3) 0.000(3) 0.008(2) 0.014(2)
C4W 0.029(2) 0.061(3) 0.038(3) 0.000(2) 0.012(2) 0.0032(19)
C5W 0.030(2) 0.055(3) 0.041(3) 0.001(2) 0.0003(19) -0.0029(19)
C6W 0.038(2) 0.055(3) 0.040(3) 0.002(2) 0.003(2) -0.007(2)
C7W 0.064(3) 0.084(4) 0.050(3) -0.019(3) 0.015(3) -0.029(3)
C8W 0.042(3) 0.060(3) 0.058(3) 0.004(2) 0.013(2) 0.008(2)
C1X 0.044(5) 0.059(5) 0.067(7) 0.021(5) 0.029(5) 0.020(4)
C2X 0.042(5) 0.073(7) 0.057(6) -0.003(5) 0.001(4) 0.020(5)
C3X 0.055(8) 0.069(8) 0.065(7) 0.028(6) 0.028(6) 0.024(5)
C4X 0.029(4) 0.060(5) 0.065(5) 0.011(4) 0.007(3) 0.009(3)
C5X 0.044(4) 0.077(6) 0.053(5) 0.014(5) 0.010(4) 0.022(4)
C6X 0.045(5) 0.064(5) 0.038(5) 0.018(4) 0.020(4) 0.019(4)
C7X 0.066(6) 0.079(6) 0.117(8) -0.018(6) 0.037(5) 0.004(5)
C8X 0.058(5) 0.084(7) 0.131(9) -0.009(6) 0.004(6) -0.009(5)
C1X' 0.054(7) 0.059(7) 0.056(7) -0.001(5) 0.006(5) 0.003(5)
C2X' 0.045(8) 0.048(8) 0.047(8) 0.003(5) 0.006(5) 0.004(5)
C3X' 0.12(2) 0.12(2) 0.12(2) 0.000(5) 0.006(5) 0.001(5)
C4X' 0.066(10) 0.069(10) 0.068(10) -0.001(5) 0.005(5) 0.001(5)
C5X' 0.063(13) 0.063(13) 0.062(13) 0.000(5) 0.003(5) 0.001(5)
C6X' 0.078(12) 0.078(12) 0.079(12) -0.002(5) 0.005(5) 0.001(5)
C7X' 0.082(10) 0.096(10) 0.098(10) -0.013(8) -0.003(8) 0.012(8)
C8X' 0.109(11) 0.106(11) 0.104(11) -0.013(9) -0.002(9) 0.005(9)
C1Y 0.117(6) 0.065(4) 0.047(3) -0.004(3) 0.040(4) -0.036(4)
C2Y 0.054(3) 0.103(5) 0.053(3) 0.006(3) 0.019(3) -0.022(3)
C3Y 0.066(4) 0.071(4) 0.049(3) 0.006(3) 0.016(3) 0.009(3)
C4Y 0.073(4) 0.065(3) 0.041(3) 0.009(3) 0.010(3) -0.018(3)
C5Y 0.050(3) 0.116(6) 0.064(4) 0.055(4) 0.007(3) 0.007(3)
C6Y 0.148(7) 0.053(4) 0.079(5) 0.034(3) 0.075(5) 0.041(4)
C7Y 0.370(16) 0.143(8) 0.102(6) -0.063(6) 0.130(8) -0.169(9)
C8Y 0.215(10) 0.116(6) 0.063(4) -0.012(4) 0.019(5) -0.085(6)
C1Z 0.061(4) 0.052(4) 0.168(8) 0.019(4) 0.002(5) -0.009(3)
C2Z 0.057(4) 0.046(3) 0.136(6) 0.007(4) 0.006(4) 0.008(3)
C3Z 0.060(4) 0.049(3) 0.140(7) 0.007(4) 0.004(4) 0.011(3)
C4Z 0.120(7) 0.054(4) 0.148(8) 0.033(4) 0.061(6) 0.024(4)
C5Z 0.106(7) 0.084(6) 0.215(12) 0.054(7) 0.089(8) 0.018(5)
C6Z 0.077(5) 0.076(5) 0.250(13) 0.058(7) 0.057(8) -0.007(4)
C7Z 0.149(8) 0.058(4) 0.187(10) -0.001(5) -0.056(7) -0.016(4)
C8Z 0.278(14) 0.080(6) 0.160(9) 0.018(6) 0.115(9) 0.031(7)
N1A 0.0185(15) 0.0241(16) 0.0271(17) -0.0005(13) 0.0011(13) -0.0023(11)
N2A 0.0179(15) 0.0163(14) 0.0273(17) -0.0019(12) 0.0003(13) -0.0019(11)
N3A 0.0198(15) 0.0184(14) 0.0220(16) -0.0002(12) 0.0021(12) 0.0021(11)
N4A 0.0200(15) 0.0159(13) 0.0201(16) -0.0014(12) -0.0011(12) 0.0014(11)
N5A 0.014(2) 0.024(2) 0.025(2) 0.000 -0.0002(17) 0.000
N6A 0.018(2) 0.017(2) 0.030(2) 0.000 -0.0021(18) 0.000
N7A 0.014(2) 0.025(2) 0.025(2) 0.000 0.0009(17) 0.000
N8A 0.026(2) 0.017(2) 0.029(2) 0.000 -0.0043(19) 0.000
O1A 0.0342(15) 0.0382(16) 0.0349(16) -0.0110(13) -0.0063(12) 0.0022(12)
O2A 0.0432(16) 0.0265(14) 0.0251(14) 0.0061(11) -0.0085(12) -0.0071(11)
O3A 0.0264(14) 0.0195(13) 0.069(2) 0.0005(13) -0.0130(14) -0.0018(11)
O4A 0.0442(16) 0.0193(13) 0.0383(16) 0.0028(12) -0.0177(13) -0.0010(11)
O5A 0.0221(12) 0.0220(12) 0.0287(14) -0.0032(11) -0.0068(11) 0.0003(10)
O6A 0.0205(12) 0.0209(12) 0.0305(14) -0.0031(11) -0.0081(10) 0.0029(9)
Zn1 0.0176(3) 0.0147(3) 0.0214(3) 0.000 0.0004(2) 0.000
Zn2 0.0170(3) 0.0171(3) 0.0259(3) 0.000 0.0015(2) 0.000
loop_
_atom_type_symbol
_atom_type_description
_atom_type_scat_dispersion_real
_atom_type_scat_dispersion_imag
_atom_type_scat_source
C C 0.0033 0.0016 'International Tables Vol C Tables 4.2.6.8 and 6.1.1.4'
H H 0.0000 0.0000 'International Tables Vol C Tables 4.2.6.8 and 6.1.1.4'
N N 0.0061 0.0033 'International Tables Vol C Tables 4.2.6.8 and 6.1.1.4'
O O 0.0106 0.0060 'International Tables Vol C Tables 4.2.6.8 and 6.1.1.4'
Zn Zn 0.2839 1.4301 'International Tables Vol C Tables 4.2.6.8 and 6.1.1.4'
loop_
_geom_angle_atom_site_label_1
_geom_angle_atom_site_label_2
_geom_angle_atom_site_label_3
_geom_angle
_geom_angle_site_symmetry_1
_geom_angle_site_symmetry_3
N1A C1A C16A 125.8(3) . 2_655
N1A C1A C2A 109.9(3) . .
C16A C1A C2A 124.3(3) 2_655 .
C3A C2A C1A 107.0(3) . .
C2A C3A C4A 106.9(3) . .
N1A C4A C5A 125.2(3) . .
N1A C4A C3A 109.3(3) . .
C5A C4A C3A 125.5(3) . .
C4A C5A C12A 124.8(3) . .
C4A C5A C6A 117.5(3) . .
C12A C5A C6A 117.7(3) . .
C11A C6A C7A 119.3(3) . .
C11A C6A C5A 122.4(3) . .
C7A C6A C5A 118.3(3) . .
C6A C7A C8A 119.9(3) . .
O1A C8A C9A 116.2(3) . .
O1A C8A C7A 123.2(3) . .
C9A C8A C7A 120.6(3) . .
C10A C9A C8A 119.0(4) . .
C9A C10A C11A 120.9(3) . .
C10A C11A C6A 120.2(3) . .
N2A C12A C5A 125.1(3) . .
N2A C12A C13A 109.3(3) . .
C5A C12A C13A 125.4(3) . .
C14A C13A C12A 107.1(3) . .
C13A C14A C15A 107.2(3) . .
N2A C15A C16A 125.4(3) . .
N2A C15A C14A 109.7(3) . .
C16A C15A C14A 124.9(3) . .
C1A C16A C15A 125.5(3) 2_655 .
C1A C16A C17A 117.0(3) 2_655 .
C15A C16A C17A 117.4(3) . .
C22A C17A C18A 120.0(3) . .
C22A C17A C16A 121.2(3) . .
C18A C17A C16A 118.8(3) . .
C19A C18A C17A 119.0(3) . .
C19A C18A C23A 119.9(3) . .
C17A C18A C23A 121.1(3) . .
C18A C19A C20A 122.2(4) . .
C21A C20A C19A 118.3(3) . .
C21A C20A C24A 121.0(3) . .
C19A C20A C24A 120.7(4) . .
C20A C21A C22A 121.6(3) . .
C17A C22A C21A 118.9(3) . .
C17A C22A C25A 120.1(3) . .
C21A C22A C25A 121.0(3) . .
O1A C26A C27A 107.1(3) . .
C26A C27A C28A 115.2(3) . .
C29A C28A C27A 114.3(3) . .
C28A C29A C30A 112.2(3) . .
C31A C30A C29A 112.4(3) . .
O2A C31A C30A 106.7(3) . .
O2A C32A C33A 115.4(3) . .
O2A C32A C37A 124.5(3) . .
C33A C32A C37A 120.0(3) . .
C34A C33A C32A 120.1(3) . .
C33A C34A C35A 120.4(3) . .
C34A C35A C36A 120.0(3) . .
C35A C36A C37A 119.4(3) . .
C35A C36A C42A 120.8(3) . .
C37A C36A C42A 119.8(3) . .
C32A C37A C36A 120.1(3) . .
N3A C38A C47A 125.5(3) . 2_655
N3A C38A C39A 109.5(3) . .
C47A C38A C39A 124.9(3) 2_655 .
C40A C39A C38A 107.1(3) . .
C39A C40A C41A 107.4(3) . .
N3A C41A C42A 125.2(3) . .
N3A C41A C40A 109.2(3) . .
C42A C41A C40A 125.5(3) . .
C41A C42A C43A 125.3(3) . .
C41A C42A C36A 117.5(3) . .
C43A C42A C36A 117.1(3) . .
N4A C43A C42A 125.5(3) . .
N4A C43A C44A 109.5(3) . .
C42A C43A C44A 124.9(3) . .
C45A C44A C43A 106.7(3) . .
C44A C45A C46A 107.4(3) . .
N4A C46A C47A 125.9(3) . .
N4A C46A C45A 109.6(3) . .
C47A C46A C45A 124.4(3) . .
C38A C47A C46A 124.4(3) 2_655 .
C38A C47A C48A 118.5(3) 2_655 .
C46A C47A C48A 117.1(3) . .
C53A C48A C49A 119.6(3) . .
C53A C48A C47A 119.2(3) . .
C49A C48A C47A 121.2(3) . .
C50A C49A C48A 118.9(4) . .
C50A C49A C54A 121.3(3) . .
C48A C49A C54A 119.8(3) . .
C51A C50A C49A 122.2(4) . .
C52A C51A C50A 118.3(3) . .
C52A C51A C55A 120.7(4) . .
C50A C51A C55A 121.0(4) . .
C51A C52A C53A 121.9(4) . .
C52A C53A C48A 119.1(3) . .
C52A C53A C56A 119.7(3) . .
C48A C53A C56A 121.1(3) . .
N5A C57A C58A 122.6(4) . .
C59A C58A C57A 117.9(4) . .
C58A C59A C58A 120.8(4) 2_655 .
C58A C59A N6A 119.6(2) 2_655 .
C58A C59A N6A 119.6(2) . .
O3A C60A N6A 120.3(3) . .
O3A C60A C84A 123.4(3) . .
N6A C60A C84A 116.3(3) . .
N7A C61A C62A 123.7(3) . .
C61A C62A C63A 118.3(3) . .
C62A C63A C62A 118.8(4) . 2_655
C62A C63A N8A 120.6(2) . .
C62A C63A N8A 120.6(2) 2_655 .
O4A C64A N8A 120.3(3) . .
O4A C64A C65A 123.5(3) . .
N8A C64A C65A 116.2(3) . .
C66A C65A C70A 119.9(3) . .
C66A C65A C64A 118.7(3) . .
C70A C65A C64A 121.4(3) . .
C65A C66A C67A 120.2(3) . .
O5A C67A C66A 119.0(3) . .
O5A C67A C68A 119.0(3) . .
C66A C67A C68A 121.8(3) . .
C67A C68A C69A 117.4(3) . .
C67A C68A C95A 125.5(3) . .
C69A C68A C95A 117.1(3) . .
C70A C69A C68A 119.3(2) . 2_655
C70A C69A C68A 119.3(2) . .
C68A C69A C68A 121.4(4) 2_655 .
C69A C70A C65A 120.0(2) . .
C69A C70A C65A 120.0(2) . 2_655
C65A C70A C65A 119.9(4) . 2_655
C72A C71A C76A 120.5(3) . .
C72A C71A O5A 122.9(3) . .
C76A C71A O5A 116.5(3) . .
C71A C72A C73A 119.0(3) . .
C74A C73A C72A 122.2(3) . .
C73A C74A C75A 117.0(3) . .
C73A C74A C77A 122.2(3) . .
C75A C74A C77A 120.7(3) . .
C76A C75A C74A 121.5(3) . .
C71A C76A C75A 119.7(3) . .
C79A C77A C78A 108.9(3) . .
C79A C77A C74A 112.6(3) . .
C78A C77A C74A 110.3(3) . .
C79A C77A C80A 108.0(3) . .
C78A C77A C80A 109.0(4) . .
C74A C77A C80A 107.9(3) . .
C95A C81A C95A 122.7(4) . 2_655
C95A C81A C96A 118.7(2) . 1_565
C95A C81A C96A 118.7(2) 2_655 1_565
O6A C82A C95A 119.6(3) . 1_545
O6A C82A C83A 118.4(3) . .
C95A C82A C83A 121.9(3) 1_545 .
C84A C83A C82A 120.3(3) . .
C83A C84A C96A 120.1(3) . .
C83A C84A C60A 119.3(3) . .
C96A C84A C60A 120.5(3) . .
C86A C85A C90A 120.6(3) . .
C86A C85A O6A 117.0(3) . .
C90A C85A O6A 122.3(3) . .
C85A C86A C87A 119.2(3) . .
C86A C87A C88A 121.7(3) . .
C87A C88A C89A 116.9(3) . .
C87A C88A C91A 122.9(3) . .
C89A C88A C91A 120.2(3) . .
C90A C89A C88A 122.3(3) . .
C89A C90A C85A 119.2(3) . .
C93A C91A C94A 108.6(3) . .
C93A C91A C88A 111.7(3) . .
C94A C91A C88A 109.3(3) . .
C93A C91A C92A 109.8(3) . .
C94A C91A C92A 109.1(3) . .
C88A C91A C92A 108.3(3) . .
C82A C95A C81A 117.7(3) 1_565 .
C82A C95A C68A 125.5(3) 1_565 .
C81A C95A C68A 116.8(3) . .
C84A C96A C84A 120.7(5) 2_655 .
C84A C96A C81A 119.6(2) 2_655 1_545
C84A C96A C81A 119.6(2) . 1_545
C6B C1B C2B 121.6(6) . .
C6B C1B C5B 119.4(6) . .
C2B C1B C5B 107.3(5) . .
C9B C2B C3B 118.8(6) . .
C9B C2B C1B 117.9(6) . .
C3B C2B C1B 111.0(5) . .
C12B C3B C2B 120.7(6) . .
C12B C3B C4B 118.7(6) . .
C2B C3B C4B 108.1(5) . .
C15B C4B C3B 120.4(6) . .
C15B C4B C5B 121.1(6) . .
C3B C4B C5B 106.1(5) . .
C18B C5B C1B 120.2(6) . .
C18B C5B C4B 119.7(7) . .
C1B C5B C4B 107.6(5) . .
C1B C6B C20B 119.6(6) . .
C1B C6B C7B 118.9(6) . .
C20B C6B C7B 109.4(6) . .
C8B C7B C6B 120.5(6) . .
C8B C7B C28B 119.9(6) . .
C6B C7B C28B 107.2(6) . .
C7B C8B C9B 121.7(7) . .
C7B C8B C21B 119.6(7) . .
C9B C8B C21B 106.7(6) . .
C2B C9B C10B 119.6(6) . .
C2B C9B C8B 119.3(6) . .
C10B C9B C8B 109.7(6) . .
C11B C10B C9B 121.1(6) . .
C11B C10B C22B 118.9(6) . .
C9B C10B C22B 107.6(6) . .
C10B C11B C12B 120.6(6) . .
C10B C11B C23B 119.9(6) . .
C12B C11B C23B 107.6(5) . .
C3B C12B C13B 120.2(6) . .
C3B C12B C11B 119.3(6) . .
C13B C12B C11B 108.6(5) . .
C14B C13B C12B 119.7(5) . .
C14B C13B C24B 120.1(5) . .
C12B C13B C24B 108.7(5) . .
C13B C14B C15B 121.2(6) . .
C13B C14B C25B 119.2(5) . .
C15B C14B C25B 106.6(6) . .
C4B C15B C14B 119.7(6) . .
C4B C15B C16B 118.5(6) . .
C14B C15B C16B 110.7(6) . .
C17B C16B C26B 119.9(6) . .
C17B C16B C15B 120.5(6) . .
C26B C16B C15B 106.5(6) . .
C16B C17B C29B 119.5(6) . 2_655
C16B C17B C18B 121.8(6) . .
C29B C17B C18B 107.5(6) 2_655 .
C5B C18B C19B 119.4(7) . .
C5B C18B C17B 118.3(6) . .
C19B C18B C17B 110.5(6) . .
C20B C19B C18B 121.9(6) . .
C20B C19B C30B 119.5(5) . .
C18B C19B C30B 106.1(6) . .
C19B C20B C6B 119.4(6) . .
C19B C20B C27B 120.2(5) . .
C6B C20B C27B 108.2(6) . .
C29B C21B C22B 121.1(6) . .
C29B C21B C8B 118.1(7) . .
C22B C21B C8B 108.1(6) . .
C26B C22B C21B 120.6(6) 2_655 .
C26B C22B C10B 119.7(6) 2_655 .
C21B C22B C10B 107.8(6) . .
C25B C23B C24B 121.7(6) 2_655 .
C25B C23B C11B 120.1(6) 2_655 .
C24B C23B C11B 105.8(5) . .
C24B C24B C23B 121.2(6) 2_655 .
C24B C24B C13B 117.8(7) 2_655 .
C23B C24B C13B 109.4(5) . .
C23B C25B C14B 119.9(6) 2_655 .
C23B C25B C26B 120.5(6) 2_655 .
C14B C25B C26B 108.3(6) . .
C22B C26B C16B 119.8(6) 2_655 .
C22B C26B C25B 120.8(6) 2_655 .
C16B C26B C25B 107.7(6) . .
C27B C27B C28B 121.6(7) 2_655 .
C27B C27B C20B 117.0(7) 2_655 .
C28B C27B C20B 109.6(5) . .
C30B C28B C27B 122.6(7) 2_655 .
C30B C28B C7B 119.9(6) 2_655 .
C27B C28B C7B 105.7(6) . .
C21B C29B C17B 119.1(6) . 2_655
C21B C29B C30B 122.3(7) . 2_655
C17B C29B C30B 106.6(6) 2_655 2_655
C28B C30B C19B 119.0(7) 2_655 .
C28B C30B C29B 120.2(7) 2_655 2_655
C19B C30B C29B 109.4(6) . 2_655
C2S C1S C6S 116.8(4) . .
C2S C1S C8S 121.8(4) . .
C6S C1S C8S 121.4(4) . .
C1S C2S C3S 121.4(4) . .
C4S C3S C2S 121.4(4) . .
C3S C4S C5S 117.3(4) . .
C3S C4S C7S 122.4(4) . .
C5S C4S C7S 120.3(4) . .
C6S C5S C4S 120.8(4) . .
C5S C6S C1S 122.3(4) . .
C2T C1T C6T 117.7(4) . .
C2T C1T C7T 121.3(4) . .
C6T C1T C7T 120.9(4) . .
C1T C2T C3T 121.1(4) . .
C2T C3T C4T 121.8(4) . .
C5T C4T C3T 116.8(4) . .
C5T C4T C8T 121.4(4) . .
C3T C4T C8T 121.8(4) . .
C6T C5T C4T 121.5(4) . .
C5T C6T C1T 120.9(4) . .
C2U C1U C6U 117.8(5) . .
C2U C1U C7U 121.6(4) . .
C6U C1U C7U 120.5(5) . .
C1U C2U C3U 121.3(4) . .
C4U C3U C2U 120.8(5) . .
C3U C4U C5U 117.8(5) . .
C3U C4U C8U 121.5(5) . .
C5U C4U C8U 120.8(4) . .
C6U C5U C4U 121.0(4) . .
C5U C6U C1U 121.2(4) . .
C6V C1V C2V 117.3(4) . .
C6V C1V C8V 121.3(4) . .
C2V C1V C8V 121.4(4) . .
C1V C2V C3V 121.8(4) . .
C2V C3V C4V 121.0(4) . .
C5V C4V C3V 117.3(4) . .
C5V C4V C7V 120.9(4) . .
C3V C4V C7V 121.8(4) . .
C4V C5V C6V 121.2(4) . .
C1V C6V C5V 121.4(4) . .
C6W C1W C2W 117.7(4) . .
C6W C1W C7W 121.5(5) . .
C2W C1W C7W 120.8(4) . .
C1W C2W C3W 120.9(4) . .
C2W C3W C4W 121.7(5) . .
C5W C4W C3W 116.3(4) . .
C5W C4W C8W 122.0(4) . .
C3W C4W C8W 121.7(4) . .
C6W C5W C4W 122.5(4) . .
C5W C6W C1W 121.0(4) . .
C2X C1X C6X 118.1(9) . .
C2X C1X C7X 122.5(9) . .
C6X C1X C7X 119.4(9) . .
C1X C2X C3X 120.2(9) . .
C2X C3X C4X 121.5(10) . .
C5X C4X C3X 116.0(7) . .
C5X C4X C8X 122.4(8) . .
C3X C4X C8X 121.6(8) . .
C6X C5X C4X 123.2(8) . .
C5X C6X C1X 120.9(9) . .
C2X' C1X' C6X' 118.1(10) . .
C2X' C1X' C7X' 122.2(10) . .
C6X' C1X' C7X' 119.7(11) . .
C1X' C2X' C3X' 120.3(11) . .
C2X' C3X' C4X' 121.4(12) . .
C5X' C4X' C3X' 115.9(9) . .
C5X' C4X' C8X' 122.7(10) . .
C3X' C4X' C8X' 121.5(9) . .
C6X' C5X' C4X' 123.3(10) . .
C5X' C6X' C1X' 120.9(10) . .
C2Y C1Y C6Y 117.3(6) . .
C2Y C1Y C7Y 125.0(9) . .
C6Y C1Y C7Y 117.7(8) . .
C1Y C2Y C3Y 124.4(6) . .
C2Y C3Y C4Y 121.9(6) . .
C3Y C4Y C5Y 118.0(5) . .
C3Y C4Y C8Y 121.4(6) . .
C5Y C4Y C8Y 120.6(6) . .
C4Y C5Y C6Y 120.5(6) . .
C5Y C6Y C1Y 117.9(5) . .
C6Z C1Z C2Z 116.1(9) . .
C6Z C1Z C7Z 120.5(8) . .
C2Z C1Z C7Z 123.4(8) . .
C1Z C2Z C3Z 123.4(7) . .
C4Z C3Z C2Z 121.1(7) . .
C3Z C4Z C5Z 115.1(9) . .
C3Z C4Z C8Z 121.7(9) . .
C5Z C4Z C8Z 123.2(9) . .
C6Z C5Z C4Z 118.2(8) . .
C1Z C6Z C5Z 125.9(10) . .
C1A N1A C4A 106.8(3) . .
C1A N1A Zn2 124.4(2) . .
C4A N1A Zn2 128.2(2) . .
C15A N2A C12A 106.7(3) . .
C15A N2A Zn2 123.9(2) . .
C12A N2A Zn2 127.8(2) . .
C38A N3A C41A 106.7(3) . .
C38A N3A Zn1 125.6(2) . .
C41A N3A Zn1 127.2(2) . .
C46A N4A C43A 106.8(3) . .
C46A N4A Zn1 125.3(2) . .
C43A N4A Zn1 127.3(2) . .
C57A N5A C57A 118.3(4) 2_655 .
C57A N5A Zn2 120.9(2) 2_655 .
C57A N5A Zn2 120.9(2) . .
C60A N6A C60A 125.3(4) . 2_655
C60A N6A C59A 117.33(19) . .
C60A N6A C59A 117.33(19) 2_655 .
C61A N7A C61A 117.2(4) . 2_655
C61A N7A Zn1 121.4(2) . .
C61A N7A Zn1 121.4(2) 2_655 .
C64A N8A C64A 124.9(4) 2_655 .
C64A N8A C63A 117.6(2) 2_655 .
C64A N8A C63A 117.6(2) . .
C8A O1A C26A 117.0(3) . .
C32A O2A C31A 118.1(3) . .
C67A O5A C71A 118.9(3) . .
C82A O6A C85A 116.9(3) . .
N4A Zn1 N4A 162.35(15) . 2_655
N4A Zn1 N3A 88.50(11) . 2_655
N4A Zn1 N3A 89.00(11) 2_655 2_655
N4A Zn1 N3A 89.00(11) . .
N4A Zn1 N3A 88.51(11) 2_655 .
N3A Zn1 N3A 163.69(15) 2_655 .
N4A Zn1 N7A 98.82(7) . .
N4A Zn1 N7A 98.83(7) 2_655 .
N3A Zn1 N7A 98.15(7) 2_655 .
N3A Zn1 N7A 98.15(7) . .
N2A Zn2 N2A 165.51(15) 2_655 .
N2A Zn2 N1A 88.33(11) 2_655 2_655
N2A Zn2 N1A 89.88(11) . 2_655
N2A Zn2 N1A 89.88(11) 2_655 .
N2A Zn2 N1A 88.33(11) . .
N1A Zn2 N1A 165.76(15) 2_655 .
N2A Zn2 N5A 97.25(7) 2_655 .
N2A Zn2 N5A 97.24(7) . .
N1A Zn2 N5A 97.12(8) 2_655 .
N1A Zn2 N5A 97.12(8) . .
loop_
_geom_bond_atom_site_label_1
_geom_bond_atom_site_label_2
_geom_bond_distance
_geom_bond_site_symmetry_2
C1A N1A 1.362(4) .
C1A C16A 1.396(5) 2_655
C1A C2A 1.436(5) .
C2A C3A 1.356(5) .
C3A C4A 1.441(5) .
C4A N1A 1.372(5) .
C4A C5A 1.401(5) .
C5A C12A 1.415(5) .
C5A C6A 1.494(5) .
C6A C11A 1.390(5) .
C6A C7A 1.392(5) .
C7A C8A 1.393(5) .
C8A O1A 1.365(4) .
C8A C9A 1.390(5) .
C9A C10A 1.378(5) .
C10A C11A 1.387(5) .
C12A N2A 1.375(4) .
C12A C13A 1.440(5) .
C13A C14A 1.355(5) .
C14A C15A 1.433(5) .
C15A N2A 1.371(4) .
C15A C16A 1.411(5) .
C16A C1A 1.396(5) 2_655
C16A C17A 1.498(5) .
C17A C22A 1.397(5) .
C17A C18A 1.401(5) .
C18A C19A 1.383(5) .
C18A C23A 1.506(5) .
C19A C20A 1.383(5) .
C20A C21A 1.380(5) .
C20A C24A 1.518(5) .
C21A C22A 1.399(5) .
C22A C25A 1.504(5) .
C26A O1A 1.437(4) .
C26A C27A 1.499(5) .
C27A C28A 1.521(5) .
C28A C29A 1.509(5) .
C29A C30A 1.524(5) .
C30A C31A 1.503(5) .
C31A O2A 1.437(4) .
C32A O2A 1.368(4) .
C32A C33A 1.386(5) .
C32A C37A 1.388(5) .
C33A C34A 1.377(5) .
C34A C35A 1.389(5) .
C35A C36A 1.390(5) .
C36A C37A 1.396(5) .
C36A C42A 1.488(5) .
C38A N3A 1.366(4) .
C38A C47A 1.399(5) 2_655
C38A C39A 1.444(5) .
C39A C40A 1.346(5) .
C40A C41A 1.440(5) .
C41A N3A 1.377(4) .
C41A C42A 1.399(5) .
C42A C43A 1.418(4) .
C43A N4A 1.368(4) .
C43A C44A 1.443(5) .
C44A C45A 1.351(5) .
C45A C46A 1.434(5) .
C46A N4A 1.366(4) .
C46A C47A 1.408(5) .
C47A C38A 1.399(5) 2_655
C47A C48A 1.498(5) .
C48A C53A 1.404(5) .
C48A C49A 1.407(5) .
C49A C50A 1.386(5) .
C49A C54A 1.505(5) .
C50A C51A 1.382(6) .
C51A C52A 1.380(6) .
C51A C55A 1.517(5) .
C52A C53A 1.388(5) .
C53A C56A 1.507(5) .
C57A N5A 1.336(4) .
C57A C58A 1.374(5) .
C58A C59A 1.366(4) .
C59A C58A 1.366(4) 2_655
C59A N6A 1.439(6) .
C60A O3A 1.204(4) .
C60A N6A 1.404(4) .
C60A C84A 1.478(5) .
C61A N7A 1.330(4) .
C61A C62A 1.384(5) .
C62A C63A 1.385(4) .
C63A C62A 1.385(4) 2_655
C63A N8A 1.426(6) .
C64A O4A 1.217(4) .
C64A N8A 1.413(4) .
C64A C65A 1.466(5) .
C65A C66A 1.379(5) .
C65A C70A 1.407(4) .
C66A C67A 1.387(5) .
C67A O5A 1.379(4) .
C67A C68A 1.389(5) .
C68A C69A 1.442(4) .
C68A C95A 1.465(4) .
C69A C70A 1.396(6) .
C69A C68A 1.442(4) 2_655
C70A C65A 1.407(4) 2_655
C71A C72A 1.373(5) .
C71A C76A 1.375(5) .
C71A O5A 1.403(4) .
C72A C73A 1.394(5) .
C73A C74A 1.384(5) .
C74A C75A 1.390(5) .
C74A C77A 1.535(5) .
C75A C76A 1.389(5) .
C77A C79A 1.514(5) .
C77A C78A 1.526(5) .
C77A C80A 1.542(5) .
C81A C95A 1.429(4) .
C81A C95A 1.429(4) 2_655
C81A C96A 1.436(6) 1_565
C82A O6A 1.369(4) .
C82A C95A 1.395(5) 1_545
C82A C83A 1.401(5) .
C83A C84A 1.366(5) .
C84A C96A 1.406(4) .
C85A C86A 1.379(5) .
C85A C90A 1.381(5) .
C85A O6A 1.406(4) .
C86A C87A 1.391(5) .
C87A C88A 1.394(5) .
C88A C89A 1.395(5) .
C88A C91A 1.535(5) .
C89A C90A 1.378(5) .
C91A C93A 1.521(5) .
C91A C94A 1.535(6) .
C91A C92A 1.541(6) .
C95A C82A 1.395(5) 1_565
C96A C84A 1.406(4) 2_655
C96A C81A 1.435(6) 1_545
C1B C6B 1.403(7) .
C1B C2B 1.438(8) .
C1B C5B 1.470(8) .
C2B C9B 1.424(8) .
C2B C3B 1.432(8) .
C3B C12B 1.389(7) .
C3B C4B 1.477(8) .
C4B C15B 1.349(8) .
C4B C5B 1.511(8) .
C5B C18B 1.357(8) .
C6B C20B 1.421(8) .
C6B C7B 1.442(8) .
C7B C8B 1.351(8) .
C7B C28B 1.522(9) .
C8B C9B 1.446(9) .
C8B C21B 1.495(9) .
C9B C10B 1.424(8) .
C10B C11B 1.355(8) .
C10B C22B 1.495(9) .
C11B C12B 1.448(8) .
C11B C23B 1.508(8) .
C12B C13B 1.417(8) .
C13B C14B 1.387(8) .
C13B C24B 1.455(7) .
C14B C15B 1.425(8) .
C14B C25B 1.454(8) .
C15B C16B 1.459(8) .
C16B C17B 1.370(8) .
C16B C26B 1.443(9) .
C17B C29B 1.451(9) 2_655
C17B C18B 1.459(9) .
C18B C19B 1.426(8) .
C19B C20B 1.389(8) .
C19B C30B 1.462(9) .
C20B C27B 1.464(8) .
C21B C29B 1.352(9) .
C21B C22B 1.424(9) .
C22B C26B 1.343(8) 2_655
C23B C25B 1.310(8) 2_655
C23B C24B 1.433(8) .
C24B C24B 1.363(10) 2_655
C25B C23B 1.310(8) 2_655
C25B C26B 1.476(8) .
C26B C22B 1.343(8) 2_655
C27B C27B 1.359(11) 2_655
C27B C28B 1.433(8) .
C28B C30B 1.300(8) 2_655
C29B C17B 1.452(9) 2_655
C29B C30B 1.472(8) 2_655
C30B C28B 1.300(8) 2_655
C30B C29B 1.472(8) 2_655
C1S C2S 1.371(6) .
C1S C6S 1.380(6) .
C1S C8S 1.505(6) .
C2S C3S 1.385(6) .
C3S C4S 1.375(6) .
C4S C5S 1.386(6) .
C4S C7S 1.500(6) .
C5S C6S 1.367(6) .
C1T C2T 1.374(6) .
C1T C6T 1.396(6) .
C1T C7T 1.520(6) .
C2T C3T 1.377(6) .
C3T C4T 1.395(6) .
C4T C5T 1.383(6) .
C4T C8T 1.497(6) .
C5T C6T 1.382(6) .
C1U C2U 1.374(7) .
C1U C6U 1.381(6) .
C1U C7U 1.512(7) .
C2U C3U 1.387(7) .
C3U C4U 1.382(6) .
C4U C5U 1.386(6) .
C4U C8U 1.499(7) .
C5U C6U 1.380(6) .
C1V C6V 1.373(6) .
C1V C2V 1.372(6) .
C1V C8V 1.504(6) .
C2V C3V 1.374(6) .
C3V C4V 1.386(6) .
C4V C5V 1.373(6) .
C4V C7V 1.521(6) .
C5V C6V 1.386(6) .
C1W C6W 1.380(6) .
C1W C2W 1.386(7) .
C1W C7W 1.502(7) .
C2W C3W 1.388(7) .
C3W C4W 1.393(6) .
C4W C5W 1.381(6) .
C4W C8W 1.494(6) .
C5W C6W 1.379(6) .
C1X C2X 1.366(14) .
C1X C6X 1.405(11) .
C1X C7X 1.523(11) .
C2X C3X 1.388(14) .
C3X C4X 1.398(15) .
C4X C5X 1.384(12) .
C4X C8X 1.505(10) .
C5X C6X 1.324(14) .
C1X' C2X' 1.365(14) .
C1X' C6X' 1.405(12) .
C1X' C7X' 1.524(12) .
C2X' C3X' 1.387(15) .
C3X' C4X' 1.398(16) .
C4X' C5X' 1.384(13) .
C4X' C8X' 1.505(11) .
C5X' C6X' 1.324(15) .
C1Y C2Y 1.321(8) .
C1Y C6Y 1.424(9) .
C1Y C7Y 1.494(8) .
C2Y C3Y 1.325(8) .
C3Y C4Y 1.347(7) .
C4Y C5Y 1.375(8) .
C4Y C8Y 1.524(8) .
C5Y C6Y 1.422(9) .
C1Z C6Z 1.311(11) .
C1Z C2Z 1.363(8) .
C1Z C7Z 1.509(11) .
C2Z C3Z 1.406(9) .
C3Z C4Z 1.374(9) .
C4Z C5Z 1.474(12) .
C4Z C8Z 1.490(12) .
C5Z C6Z 1.393(13) .
N1A Zn2 2.058(3) .
N2A Zn2 2.047(3) .
N3A Zn1 2.063(3) .
N4A Zn1 2.055(3) .
N5A C57A 1.336(4) 2_655
N5A Zn2 2.126(4) .
N6A C60A 1.404(4) 2_655
N7A C61A 1.330(4) 2_655
N7A Zn1 2.146(4) .
N8A C64A 1.413(4) 2_655
Zn1 N4A 2.055(3) 2_655
Zn1 N3A 2.063(3) 2_655
Zn2 N2A 2.047(3) 2_655
Zn2 N1A 2.058(3) 2_655
loop_
_geom_torsion_atom_site_label_1
_geom_torsion_atom_site_label_2
_geom_torsion_atom_site_label_3
_geom_torsion_atom_site_label_4
_geom_torsion
_geom_torsion_site_symmetry_1
_geom_torsion_site_symmetry_4
N1A C1A C2A C3A -0.9(4) . .
C16A C1A C2A C3A 177.6(3) 2_655 .
C1A C2A C3A C4A 2.7(4) . .
C2A C3A C4A N1A -3.7(4) . .
C2A C3A C4A C5A 173.9(3) . .
N1A C4A C5A C12A 2.5(5) . .
C3A C4A C5A C12A -174.7(3) . .
N1A C4A C5A C6A -178.8(3) . .
C3A C4A C5A C6A 4.0(5) . .
C4A C5A C6A C11A -57.8(5) . .
C12A C5A C6A C11A 121.0(4) . .
C4A C5A C6A C7A 119.9(4) . .
C12A C5A C6A C7A -61.3(4) . .
C11A C6A C7A C8A 0.1(5) . .
C5A C6A C7A C8A -177.7(3) . .
C6A C7A C8A O1A -178.4(3) . .
C6A C7A C8A C9A 2.0(5) . .
O1A C8A C9A C10A 178.0(3) . .
C7A C8A C9A C10A -2.3(5) . .
C8A C9A C10A C11A 0.6(6) . .
C9A C10A C11A C6A 1.4(6) . .
C7A C6A C11A C10A -1.8(5) . .
C5A C6A C11A C10A 175.9(3) . .
C4A C5A C12A N2A -6.1(5) . .
C6A C5A C12A N2A 175.1(3) . .
C4A C5A C12A C13A 169.5(3) . .
C6A C5A C12A C13A -9.2(5) . .
N2A C12A C13A C14A 1.7(4) . .
C5A C12A C13A C14A -174.5(3) . .
C12A C13A C14A C15A -2.0(4) . .
C13A C14A C15A N2A 1.7(4) . .
C13A C14A C15A C16A -177.2(3) . .
N2A C15A C16A C1A -5.4(5) . 2_655
C14A C15A C16A C1A 173.4(3) . 2_655
N2A C15A C16A C17A 171.5(3) . .
C14A C15A C16A C17A -9.7(5) . .
C1A C16A C17A C22A -87.4(4) 2_655 .
C15A C16A C17A C22A 95.4(4) . .
C1A C16A C17A C18A 91.4(4) 2_655 .
C15A C16A C17A C18A -85.8(4) . .
C22A C17A C18A C19A -0.9(5) . .
C16A C17A C18A C19A -179.7(3) . .
C22A C17A C18A C23A 178.2(4) . .
C16A C17A C18A C23A -0.6(5) . .
C17A C18A C19A C20A -0.6(6) . .
C23A C18A C19A C20A -179.8(4) . .
C18A C19A C20A C21A 1.3(6) . .
C18A C19A C20A C24A -179.6(4) . .
C19A C20A C21A C22A -0.4(6) . .
C24A C20A C21A C22A -179.5(4) . .
C18A C17A C22A C21A 1.8(6) . .
C16A C17A C22A C21A -179.4(3) . .
C18A C17A C22A C25A -176.8(4) . .
C16A C17A C22A C25A 2.0(6) . .
C20A C21A C22A C17A -1.1(6) . .
C20A C21A C22A C25A 177.5(4) . .
O1A C26A C27A C28A 68.7(4) . .
C26A C27A C28A C29A 65.2(4) . .
C27A C28A C29A C30A 172.2(3) . .
C28A C29A C30A C31A -177.4(3) . .
C29A C30A C31A O2A -179.5(3) . .
O2A C32A C33A C34A 179.5(3) . .
C37A C32A C33A C34A -0.4(5) . .
C32A C33A C34A C35A 0.9(5) . .
C33A C34A C35A C36A -0.5(5) . .
C34A C35A C36A C37A -0.4(5) . .
C34A C35A C36A C42A 179.3(3) . .
O2A C32A C37A C36A 179.7(3) . .
C33A C32A C37A C36A -0.4(5) . .
C35A C36A C37A C32A 0.8(5) . .
C42A C36A C37A C32A -178.8(3) . .
N3A C38A C39A C40A 1.0(4) . .
C47A C38A C39A C40A -176.4(3) 2_655 .
C38A C39A C40A C41A -2.5(4) . .
C39A C40A C41A N3A 3.2(4) . .
C39A C40A C41A C42A -176.9(3) . .
N3A C41A C42A C43A -0.8(5) . .
C40A C41A C42A C43A 179.3(3) . .
N3A C41A C42A C36A -177.8(3) . .
C40A C41A C42A C36A 2.3(5) . .
C35A C36A C42A C41A 64.8(4) . .
C37A C36A C42A C41A -115.5(3) . .
C35A C36A C42A C43A -112.4(3) . .
C37A C36A C42A C43A 67.2(4) . .
C41A C42A C43A N4A 0.5(5) . .
C36A C42A C43A N4A 177.4(3) . .
C41A C42A C43A C44A -175.4(3) . .
C36A C42A C43A C44A 1.5(5) . .
N4A C43A C44A C45A -1.3(4) . .
C42A C43A C44A C45A 175.1(3) . .
C43A C44A C45A C46A 1.0(4) . .
C44A C45A C46A N4A -0.3(4) . .
C44A C45A C46A C47A 177.0(3) . .
N4A C46A C47A C38A 9.0(5) . 2_655
C45A C46A C47A C38A -167.9(3) . 2_655
N4A C46A C47A C48A -170.3(3) . .
C45A C46A C47A C48A 12.8(5) . .
C38A C47A C48A C53A -92.0(4) 2_655 .
C46A C47A C48A C53A 87.4(4) . .
C38A C47A C48A C49A 90.2(4) 2_655 .
C46A C47A C48A C49A -90.5(4) . .
C53A C48A C49A C50A -0.7(5) . .
C47A C48A C49A C50A 177.2(3) . .
C53A C48A C49A C54A -179.9(3) . .
C47A C48A C49A C54A -2.0(5) . .
C48A C49A C50A C51A 0.6(6) . .
C54A C49A C50A C51A 179.8(4) . .
C49A C50A C51A C52A -0.4(6) . .
C49A C50A C51A C55A 179.4(4) . .
C50A C51A C52A C53A 0.3(6) . .
C55A C51A C52A C53A -179.5(4) . .
C51A C52A C53A C48A -0.3(6) . .
C51A C52A C53A C56A -179.4(4) . .
C49A C48A C53A C52A 0.5(5) . .
C47A C48A C53A C52A -177.4(3) . .
C49A C48A C53A C56A 179.6(3) . .
C47A C48A C53A C56A 1.7(5) . .
N5A C57A C58A C59A 0.8(5) . .
C57A C58A C59A C58A -0.4(2) . 2_655
C57A C58A C59A N6A 179.6(2) . .
N7A C61A C62A C63A -1.6(5) . .
C61A C62A C63A C62A 0.7(2) . 2_655
C61A C62A C63A N8A -179.3(2) . .
O4A C64A C65A C66A -1.6(6) . .
N8A C64A C65A C66A 179.0(3) . .
O4A C64A C65A C70A -178.3(3) . .
N8A C64A C65A C70A 2.3(5) . .
C70A C65A C66A C67A -6.5(5) . .
C64A C65A C66A C67A 176.7(3) . .
C65A C66A C67A O5A 173.8(3) . .
C65A C66A C67A C68A 0.1(5) . .
O5A C67A C68A C69A -163.6(3) . .
C66A C67A C68A C69A 10.1(5) . .
O5A C67A C68A C95A 15.2(5) . .
C66A C67A C68A C95A -171.1(3) . .
C67A C68A C69A C70A -14.3(3) . .
C95A C68A C69A C70A 166.9(2) . .
C67A C68A C69A C68A 165.8(3) . 2_655
C95A C68A C69A C68A -13.1(2) . 2_655
C68A C69A C70A C65A -171.7(2) 2_655 .
C68A C69A C70A C65A 8.3(2) . .
C68A C69A C70A C65A 8.3(2) 2_655 2_655
C68A C69A C70A C65A -171.7(2) . 2_655
C66A C65A C70A C69A 2.1(4) . .
C64A C65A C70A C69A 178.8(2) . .
C66A C65A C70A C65A -177.9(4) . 2_655
C64A C65A C70A C65A -1.2(2) . 2_655
C76A C71A C72A C73A 1.3(5) . .
O5A C71A C72A C73A 176.5(3) . .
C71A C72A C73A C74A -0.2(5) . .
C72A C73A C74A C75A -1.4(5) . .
C72A C73A C74A C77A -177.9(3) . .
C73A C74A C75A C76A 1.9(5) . .
C77A C74A C75A C76A 178.5(3) . .
C72A C71A C76A C75A -0.8(5) . .
O5A C71A C76A C75A -176.3(3) . .
C74A C75A C76A C71A -0.9(5) . .
C73A C74A C77A C79A -12.0(5) . .
C75A C74A C77A C79A 171.5(3) . .
C73A C74A C77A C78A -133.9(4) . .
C75A C74A C77A C78A 49.6(5) . .
C73A C74A C77A C80A 107.1(4) . .
C75A C74A C77A C80A -69.4(4) . .
O6A C82A C83A C84A 179.4(3) . .
C95A C82A C83A C84A 4.4(6) 1_545 .
C82A C83A C84A C96A -7.6(5) . .
C82A C83A C84A C60A 174.9(3) . .
O3A C60A C84A C83A 3.0(6) . .
N6A C60A C84A C83A -176.6(3) . .
O3A C60A C84A C96A -174.5(3) . .
N6A C60A C84A C96A 5.9(5) . .
C90A C85A C86A C87A -2.8(5) . .
O6A C85A C86A C87A -178.9(3) . .
C85A C86A C87A C88A -0.5(5) . .
C86A C87A C88A C89A 2.7(5) . .
C86A C87A C88A C91A -177.4(3) . .
C87A C88A C89A C90A -1.6(5) . .
C91A C88A C89A C90A 178.5(3) . .
C88A C89A C90A C85A -1.6(6) . .
C86A C85A C90A C89A 3.8(5) . .
O6A C85A C90A C89A 179.7(3) . .
C87A C88A C91A C93A 3.5(5) . .
C89A C88A C91A C93A -176.6(3) . .
C87A C88A C91A C94A 123.7(4) . .
C89A C88A C91A C94A -56.4(5) . .
C87A C88A C91A C92A -117.5(4) . .
C89A C88A C91A C92A 62.4(4) . .
C95A C81A C95A C82A 165.4(4) 2_655 1_565
C96A C81A C95A C82A -14.6(4) 1_565 1_565
C95A C81A C95A C68A -13.1(2) 2_655 .
C96A C81A C95A C68A 166.9(2) 1_565 .
C67A C68A C95A C82A 28.8(6) . 1_565
C69A C68A C95A C82A -152.4(3) . 1_565
C67A C68A C95A C81A -152.8(3) . .
C69A C68A C95A C81A 26.0(4) . .
C83A C84A C96A C84A 179.5(4) . 2_655
C60A C84A C96A C84A -3.0(2) . 2_655
C83A C84A C96A C81A -0.5(4) . 1_545
C60A C84A C96A C81A 177.0(2) . 1_545
C6B C1B C2B C9B 0.2(7) . .
C5B C1B C2B C9B 142.9(5) . .
C6B C1B C2B C3B -141.7(5) . .
C5B C1B C2B C3B 1.0(5) . .
C9B C2B C3B C12B -0.7(7) . .
C1B C2B C3B C12B 140.9(5) . .
C9B C2B C3B C4B -142.1(5) . .
C1B C2B C3B C4B -0.5(5) . .
C12B C3B C4B C15B -0.2(7) . .
C2B C3B C4B C15B 142.1(5) . .
C12B C3B C4B C5B -142.5(5) . .
C2B C3B C4B C5B -0.2(5) . .
C6B C1B C5B C18B 0.7(7) . .
C2B C1B C5B C18B -143.0(5) . .
C6B C1B C5B C4B 142.6(5) . .
C2B C1B C5B C4B -1.1(5) . .
C15B C4B C5B C18B 1.0(8) . .
C3B C4B C5B C18B 142.9(5) . .
C15B C4B C5B C1B -141.2(5) . .
C3B C4B C5B C1B 0.8(5) . .
C2B C1B C6B C20B 138.1(5) . .
C5B C1B C6B C20B -0.2(7) . .
C2B C1B C6B C7B -0.4(7) . .
C5B C1B C6B C7B -138.8(5) . .
C1B C6B C7B C8B -0.1(8) . .
C20B C6B C7B C8B -142.5(5) . .
C1B C6B C7B C28B 141.8(5) . .
C20B C6B C7B C28B -0.6(5) . .
C6B C7B C8B C9B 0.8(8) . .
C28B C7B C8B C9B -136.4(6) . .
C6B C7B C8B C21B 138.6(6) . .
C28B C7B C8B C21B 1.4(8) . .
C3B C2B C9B C10B -0.4(7) . .
C1B C2B C9B C10B -139.4(5) . .
C3B C2B C9B C8B 139.4(5) . .
C1B C2B C9B C8B 0.4(7) . .
C7B C8B C9B C2B -1.0(8) . .
C21B C8B C9B C2B -143.4(5) . .
C7B C8B C9B C10B 142.4(6) . .
C21B C8B C9B C10B 0.0(6) . .
C2B C9B C10B C11B 1.2(8) . .
C8B C9B C10B C11B -142.0(6) . .
C2B C9B C10B C22B 142.8(5) . .
C8B C9B C10B C22B -0.5(6) . .
C9B C10B C11B C12B -0.9(8) . .
C22B C10B C11B C12B -138.3(5) . .
C9B C10B C11B C23B 137.2(6) . .
C22B C10B C11B C23B -0.2(7) . .
C2B C3B C12B C13B -137.6(5) . .
C4B C3B C12B C13B -0.1(7) . .
C2B C3B C12B C11B 1.0(7) . .
C4B C3B C12B C11B 138.4(5) . .
C10B C11B C12B C3B -0.2(7) . .
C23B C11B C12B C3B -142.8(5) . .
C10B C11B C12B C13B 142.7(5) . .
C23B C11B C12B C13B 0.1(5) . .
C3B C12B C13B C14B -0.9(7) . .
C11B C12B C13B C14B -143.4(5) . .
C3B C12B C13B C24B 142.5(5) . .
C11B C12B C13B C24B 0.0(5) . .
C12B C13B C14B C15B 2.3(7) . .
C24B C13B C14B C15B -137.0(5) . .
C12B C13B C14B C25B 138.5(5) . .
C24B C13B C14B C25B -0.7(7) . .
C3B C4B C15B C14B 1.5(8) . .
C5B C4B C15B C14B 138.1(6) . .
C3B C4B C15B C16B -139.3(5) . .
C5B C4B C15B C16B -2.6(8) . .
C13B C14B C15B C4B -2.5(8) . .
C25B C14B C15B C4B -143.5(5) . .
C13B C14B C15B C16B 140.9(5) . .
C25B C14B C15B C16B 0.0(6) . .
C4B C15B C16B C17B 2.7(8) . .
C14B C15B C16B C17B -141.2(5) . .
C4B C15B C16B C26B 143.9(5) . .
C14B C15B C16B C26B -0.1(6) . .
C26B C16B C17B C29B 1.8(8) . 2_655
C15B C16B C17B C29B 137.9(6) . 2_655
C26B C16B C17B C18B -137.3(6) . .
C15B C16B C17B C18B -1.2(8) . .
C1B C5B C18B C19B -1.4(7) . .
C4B C5B C18B C19B -138.8(5) . .
C1B C5B C18B C17B 138.0(5) . .
C4B C5B C18B C17B 0.6(8) . .
C16B C17B C18B C5B -0.5(8) . .
C29B C17B C18B C5B -143.8(5) 2_655 .
C16B C17B C18B C19B 142.3(5) . .
C29B C17B C18B C19B -1.0(6) 2_655 .
C5B C18B C19B C20B 1.7(8) . .
C17B C18B C19B C20B -140.6(5) . .
C5B C18B C19B C30B 143.4(5) . .
C17B C18B C19B C30B 1.1(6) . .
C18B C19B C20B C6B -1.3(7) . .
C30B C19B C20B C6B -138.1(5) . .
C18B C19B C20B C27B 136.6(5) . .
C30B C19B C20B C27B -0.2(7) . .
C1B C6B C20B C19B 0.6(7) . .
C7B C6B C20B C19B 142.6(5) . .
C1B C6B C20B C27B -141.9(5) . .
C7B C6B C20B C27B 0.2(5) . .
C7B C8B C21B C29B -0.6(8) . .
C9B C8B C21B C29B 142.7(6) . .
C7B C8B C21B C22B -142.9(6) . .
C9B C8B C21B C22B 0.5(6) . .
C29B C21B C22B C26B 1.0(9) . 2_655
C8B C21B C22B C26B 141.9(6) . 2_655
C29B C21B C22B C10B -141.7(6) . .
C8B C21B C22B C10B -0.8(6) . .
C11B C10B C22B C26B 0.3(8) . 2_655
C9B C10B C22B C26B -142.2(6) . 2_655
C11B C10B C22B C21B 143.3(5) . .
C9B C10B C22B C21B 0.8(6) . .
C10B C11B C23B C25B -0.4(8) . 2_655
C12B C11B C23B C25B 142.5(5) . 2_655
C10B C11B C23B C24B -143.0(5) . .
C12B C11B C23B C24B -0.1(5) . .
C25B C23B C24B C24B 0.5(7) 2_655 2_655
C11B C23B C24B C24B 142.4(4) . 2_655
C25B C23B C24B C13B -141.8(5) 2_655 .
C11B C23B C24B C13B 0.1(5) . .
C14B C13B C24B C24B -0.6(6) . 2_655
C12B C13B C24B C24B -143.8(4) . 2_655
C14B C13B C24B C23B 143.1(5) . .
C12B C13B C24B C23B -0.1(5) . .
C13B C14B C25B C23B 2.0(7) . 2_655
C15B C14B C25B C23B 143.9(5) . 2_655
C13B C14B C25B C26B -141.8(5) . .
C15B C14B C25B C26B 0.1(6) . .
C17B C16B C26B C22B -1.8(8) . 2_655
C15B C16B C26B C22B -143.3(5) . 2_655
C17B C16B C26B C25B 141.6(5) . .
C15B C16B C26B C25B 0.1(6) . .
C23B C25B C26B C22B -0.8(8) 2_655 2_655
C14B C25B C26B C22B 142.8(6) . 2_655
C23B C25B C26B C16B -143.7(5) 2_655 .
C14B C25B C26B C16B -0.1(6) . .
C19B C20B C27B C27B 1.9(6) . 2_655
C6B C20B C27B C27B 144.0(4) . 2_655
C19B C20B C27B C28B -141.8(5) . .
C6B C20B C27B C28B 0.3(5) . .
C27B C27B C28B C30B 0.2(7) 2_655 2_655
C20B C27B C28B C30B 141.9(5) . 2_655
C27B C27B C28B C7B -142.4(4) 2_655 .
C20B C27B C28B C7B -0.6(5) . .
C8B C7B C28B C30B -0.8(8) . 2_655
C6B C7B C28B C30B -143.1(5) . 2_655
C8B C7B C28B C27B 142.9(5) . .
C6B C7B C28B C27B 0.7(5) . .
C22B C21B C29B C17B -1.0(8) . 2_655
C8B C21B C29B C17B -138.2(6) . 2_655
C22B C21B C29B C30B 136.5(6) . 2_655
C8B C21B C29B C30B -0.7(8) . 2_655
C20B C19B C30B C28B -1.6(7) . 2_655
C18B C19B C30B C28B -144.4(5) . 2_655
C20B C19B C30B C29B 142.0(5) . 2_655
C18B C19B C30B C29B -0.8(6) . 2_655
C6S C1S C2S C3S -0.2(7) . .
C8S C1S C2S C3S -178.6(4) . .
C1S C2S C3S C4S -0.3(7) . .
C2S C3S C4S C5S 0.7(7) . .
C2S C3S C4S C7S 178.7(4) . .
C3S C4S C5S C6S -0.4(6) . .
C7S C4S C5S C6S -178.5(4) . .
C4S C5S C6S C1S -0.1(7) . .
C2S C1S C6S C5S 0.5(7) . .
C8S C1S C6S C5S 178.8(4) . .
C6T C1T C2T C3T 0.1(6) . .
C7T C1T C2T C3T -179.1(4) . .
C1T C2T C3T C4T 1.7(7) . .
C2T C3T C4T C5T -2.1(6) . .
C2T C3T C4T C8T 178.2(4) . .
C3T C4T C5T C6T 0.7(6) . .
C8T C4T C5T C6T -179.5(4) . .
C4T C5T C6T C1T 1.1(6) . .
C2T C1T C6T C5T -1.5(6) . .
C7T C1T C6T C5T 177.7(4) . .
C6U C1U C2U C3U 1.7(7) . .
C7U C1U C2U C3U -176.8(5) . .
C1U C2U C3U C4U -1.3(8) . .
C2U C3U C4U C5U -0.1(7) . .
C2U C3U C4U C8U -179.6(5) . .
C3U C4U C5U C6U 0.9(7) . .
C8U C4U C5U C6U -179.5(4) . .
C4U C5U C6U C1U -0.4(7) . .
C2U C1U C6U C5U -0.9(7) . .
C7U C1U C6U C5U 177.7(5) . .
C6V C1V C2V C3V 0.5(7) . .
C8V C1V C2V C3V -179.4(4) . .
C1V C2V C3V C4V -0.8(7) . .
C2V C3V C4V C5V 0.5(7) . .
C2V C3V C4V C7V -178.2(5) . .
C3V C4V C5V C6V 0.1(7) . .
C7V C4V C5V C6V 178.7(4) . .
C2V C1V C6V C5V 0.1(7) . .
C8V C1V C6V C5V 180.0(4) . .
C4V C5V C6V C1V -0.4(7) . .
C6W C1W C2W C3W -0.6(6) . .
C7W C1W C2W C3W 177.8(4) . .
C1W C2W C3W C4W -0.4(7) . .
C2W C3W C4W C5W 1.5(6) . .
C2W C3W C4W C8W 180.0(4) . .
C3W C4W C5W C6W -1.7(6) . .
C8W C4W C5W C6W 179.8(4) . .
C4W C5W C6W C1W 0.8(7) . .
C2W C1W C6W C5W 0.5(6) . .
C7W C1W C6W C5W -178.0(4) . .
C6X C1X C2X C3X -1.1(16) . .
C7X C1X C2X C3X -180.0(11) . .
C1X C2X C3X C4X 0.6(19) . .
C2X C3X C4X C5X -0.8(17) . .
C2X C3X C4X C8X -179.0(11) . .
C3X C4X C5X C6X 1.7(12) . .
C8X C4X C5X C6X 179.8(8) . .
C4X C5X C6X C1X -2.2(13) . .
C2X C1X C6X C5X 1.9(15) . .
C7X C1X C6X C5X -179.2(8) . .
C6X' C1X' C2X' C3X' 1(5) . .
C7X' C1X' C2X' C3X' -176(3) . .
C1X' C2X' C3X' C4X' -4(6) . .
C2X' C3X' C4X' C5X' 4(6) . .
C2X' C3X' C4X' C8X' -176(3) . .
C3X' C4X' C5X' C6X' -2(7) . .
C8X' C4X' C5X' C6X' 179(4) . .
C4X' C5X' C6X' C1X' -1(7) . .
C2X' C1X' C6X' C5X' 2(6) . .
C7X' C1X' C6X' C5X' 179(4) . .
C6Y C1Y C2Y C3Y 1.2(8) . .
C7Y C1Y C2Y C3Y 179.4(6) . .
C1Y C2Y C3Y C4Y -0.8(9) . .
C2Y C3Y C4Y C5Y 0.1(8) . .
C2Y C3Y C4Y C8Y 179.3(5) . .
C3Y C4Y C5Y C6Y 0.0(8) . .
C8Y C4Y C5Y C6Y -179.1(5) . .
C4Y C5Y C6Y C1Y 0.4(8) . .
C2Y C1Y C6Y C5Y -1.0(8) . .
C7Y C1Y C6Y C5Y -179.3(5) . .
C6Z C1Z C2Z C3Z 3.6(9) . .
C7Z C1Z C2Z C3Z -176.3(6) . .
C1Z C2Z C3Z C4Z -2.3(9) . .
C2Z C3Z C4Z C5Z 1.0(9) . .
C2Z C3Z C4Z C8Z 179.6(6) . .
C3Z C4Z C5Z C6Z -1.3(10) . .
C8Z C4Z C5Z C6Z -179.8(7) . .
C2Z C1Z C6Z C5Z -4.0(12) . .
C7Z C1Z C6Z C5Z 175.9(8) . .
C4Z C5Z C6Z C1Z 3.0(13) . .
C16A C1A N1A C4A -179.9(3) 2_655 .
C2A C1A N1A C4A -1.4(4) . .
C16A C1A N1A Zn2 8.1(5) 2_655 .
C2A C1A N1A Zn2 -173.4(2) . .
C5A C4A N1A C1A -174.5(3) . .
C3A C4A N1A C1A 3.1(4) . .
C5A C4A N1A Zn2 -2.9(5) . .
C3A C4A N1A Zn2 174.7(2) . .
C16A C15A N2A C12A 178.3(3) . .
C14A C15A N2A C12A -0.7(4) . .
C16A C15A N2A Zn2 -15.2(5) . .
C14A C15A N2A Zn2 165.8(2) . .
C5A C12A N2A C15A 175.7(3) . .
C13A C12A N2A C15A -0.6(4) . .
C5A C12A N2A Zn2 9.9(5) . .
C13A C12A N2A Zn2 -166.4(2) . .
C47A C38A N3A C41A 178.3(3) 2_655 .
C39A C38A N3A C41A 1.0(3) . .
C47A C38A N3A Zn1 -9.1(4) 2_655 .
C39A C38A N3A Zn1 173.6(2) . .
C42A C41A N3A C38A 177.6(3) . .
C40A C41A N3A C38A -2.5(3) . .
C42A C41A N3A Zn1 5.2(5) . .
C40A C41A N3A Zn1 -174.9(2) . .
C47A C46A N4A C43A -177.8(3) . .
C45A C46A N4A C43A -0.5(3) . .
C47A C46A N4A Zn1 11.2(4) . .
C45A C46A N4A Zn1 -171.6(2) . .
C42A C43A N4A C46A -175.3(3) . .
C44A C43A N4A C46A 1.1(3) . .
C42A C43A N4A Zn1 -4.5(4) . .
C44A C43A N4A Zn1 172.0(2) . .
C58A C57A N5A C57A -0.4(3) . 2_655
C58A C57A N5A Zn2 179.6(3) . .
O3A C60A N6A C60A 177.6(4) . 2_655
C84A C60A N6A C60A -2.9(2) . 2_655
O3A C60A N6A C59A -2.4(4) . .
C84A C60A N6A C59A 177.1(2) . .
C58A C59A N6A C60A 102.2(2) 2_655 .
C58A C59A N6A C60A -77.8(2) . .
C58A C59A N6A C60A -77.8(2) 2_655 2_655
C58A C59A N6A C60A 102.2(2) . 2_655
C62A C61A N7A C61A 0.8(2) . 2_655
C62A C61A N7A Zn1 -179.2(2) . .
O4A C64A N8A C64A 179.5(4) . 2_655
C65A C64A N8A C64A -1.1(2) . 2_655
O4A C64A N8A C63A -0.5(4) . .
C65A C64A N8A C63A 178.9(2) . .
C62A C63A N8A C64A -120.2(2) . 2_655
C62A C63A N8A C64A 59.8(2) 2_655 2_655
C62A C63A N8A C64A 59.8(2) . .
C62A C63A N8A C64A -120.2(2) 2_655 .
C9A C8A O1A C26A -159.9(3) . .
C7A C8A O1A C26A 20.4(5) . .
C27A C26A O1A C8A 161.6(3) . .
C33A C32A O2A C31A -179.3(3) . .
C37A C32A O2A C31A 0.6(5) . .
C30A C31A O2A C32A 174.7(3) . .
C66A C67A O5A C71A 45.9(4) . .
C68A C67A O5A C71A -140.2(3) . .
C72A C71A O5A C67A 28.8(5) . .
C76A C71A O5A C67A -155.8(3) . .
C95A C82A O6A C85A -143.2(3) 1_545 .
C83A C82A O6A C85A 41.7(4) . .
C86A C85A O6A C82A -149.0(3) . .
C90A C85A O6A C82A 35.0(5) . .
