#------------------------------------------------------------------------------
#$Date: 2017-03-05 07:33:09 +0200 (Sun, 05 Mar 2017) $
#$Revision: 193914 $
#$URL: file:///home/coder/svn-repositories/cod/cif/7/22/73/7227354.cif $
#------------------------------------------------------------------------------
#
# This file is available in the Crystallography Open Database (COD),
# http://www.crystallography.net/
#
# All data on this site have been placed in the public domain by the
# contributors.
#
data_7227354
loop_
_publ_author_name
'Chahal, Mandeep K.'
'Sankar, Muniappan'
'Butcher, Ray J.'
_publ_section_title
;
 An insight into the communication between \b-olefin/phenyl
 olefin-mediated acceptors and porphyrin \p-system: a way to establish
 porphyrin based chemodosimeters and chemosensors.
;
_journal_issue                   6
_journal_name_full               'Physical chemistry chemical physics : PCCP'
_journal_page_first              4530
_journal_page_last               4540
_journal_paper_doi               10.1039/c6cp08396j
_journal_volume                  19
_journal_year                    2017
_chemical_formula_moiety         'C232 H140 N20 Ni4 O16, C1 H1 Cl3'
_chemical_formula_sum            'C233 H141 Cl3 N20 Ni4 O16'
_chemical_formula_weight         3817.84
_chemical_name_common
;
 2-Nitro-12,13-bis(4-formylphenyl)-5,10,15,20-tetraphenylporphyrin nickel(II) complex
;
_chemical_name_systematic
;
 2-Nitro-12,13-bis(4-formylphenyl)-5,10,15,20-tetraphenylporphyrinatonickel(II)
;
_space_group_crystal_system      triclinic
_space_group_IT_number           2
_space_group_name_Hall           '-P 1'
_space_group_name_H-M_alt        'P -1'
_symmetry_space_group_name_Hall  '-P 1'
_symmetry_space_group_name_H-M   'P -1'
_atom_sites_solution_hydrogens   geom
_audit_block_doi                 10.5517/ccdc.csd.cc1n16lh
_audit_creation_method           SHELXL-2014/7
_audit_update_record
;
2016-12-02 deposited with the CCDC.
2017-01-04 downloaded from the CCDC.
;
_cell_angle_alpha                90.79(3)
_cell_angle_beta                 103.49(3)
_cell_angle_gamma                96.01(3)
_cell_formula_units_Z            1
_cell_length_a                   13.236(3)
_cell_length_b                   16.471(3)
_cell_length_c                   24.435(5)
_cell_measurement_reflns_used    25
_cell_measurement_temperature    299(2)
_cell_measurement_theta_max      25.25
_cell_measurement_theta_min      1.62
_cell_volume                     5148(2)
_computing_cell_refinement       'Bruker Apex 2'
_computing_data_collection       'Bruker Apex 2'
_computing_data_reduction        'Bruker SAINT'
_computing_molecular_graphics    'ORTEP3 (WINGX)'
_computing_publication_material  'ShelXL (Sheldrick, 2008)'
_computing_structure_refinement  'SHELXL-2014/7 (Sheldrick, 2014)'
_computing_structure_solution    'Shelxt (Shedlrick, 2015)'
_diffrn_ambient_temperature      299(2)
_diffrn_measured_fraction_theta_full 0.991
_diffrn_measured_fraction_theta_max 0.991
_diffrn_measurement_device_type  'Bruker Apex 2 CCD diffractometer'
_diffrn_measurement_method       '\w scans'
_diffrn_radiation_type           MoK\a
_diffrn_radiation_wavelength     0.71073
_diffrn_reflns_av_R_equivalents  0.0885
_diffrn_reflns_av_unetI/netI     0.1160
_diffrn_reflns_Laue_measured_fraction_full 0.991
_diffrn_reflns_Laue_measured_fraction_max 0.991
_diffrn_reflns_limit_h_max       12
_diffrn_reflns_limit_h_min       -15
_diffrn_reflns_limit_k_max       19
_diffrn_reflns_limit_k_min       -19
_diffrn_reflns_limit_l_max       29
_diffrn_reflns_limit_l_min       -29
_diffrn_reflns_number            73930
_diffrn_reflns_point_group_measured_fraction_full 0.991
_diffrn_reflns_point_group_measured_fraction_max 0.991
_diffrn_reflns_theta_full        25.253
_diffrn_reflns_theta_max         25.253
_diffrn_reflns_theta_min         1.620
_exptl_absorpt_coefficient_mu    0.466
_exptl_absorpt_correction_type   multi-scan
_exptl_absorpt_process_details   '(SADABS; Bruker, 2000)'
_exptl_crystal_colour            Red
_exptl_crystal_density_diffrn    1.232
_exptl_crystal_description       Square
_exptl_crystal_F_000             1970
_exptl_crystal_recrystallization_method
'Re-crystallisation from solvent: Chloroform and hexane'
_exptl_crystal_size_max          0.3
_exptl_crystal_size_mid          0.2
_exptl_crystal_size_min          0.2
_refine_diff_density_max         1.131
_refine_diff_density_min         -0.441
_refine_diff_density_rms         0.073
_refine_ls_extinction_method     none
_refine_ls_goodness_of_fit_ref   0.969
_refine_ls_hydrogen_treatment    constr
_refine_ls_matrix_type           full
_refine_ls_number_parameters     1241
_refine_ls_number_reflns         18457
_refine_ls_number_restraints     1476
_refine_ls_restrained_S_all      0.956
_refine_ls_R_factor_all          0.1700
_refine_ls_R_factor_gt           0.0748
_refine_ls_shift/su_max          0.001
_refine_ls_shift/su_mean         0.000
_refine_ls_structure_factor_coef Fsqd
_refine_ls_weighting_details
'w=1/[\s^2^(Fo^2^)+(0.1401P)^2^] where P=(Fo^2^+2Fc^2^)/3'
_refine_ls_weighting_scheme      calc
_refine_ls_wR_factor_gt          0.1995
_refine_ls_wR_factor_ref         0.2566
_reflns_Friedel_coverage         0.000
_reflns_number_gt                8326
_reflns_number_total             18457
_reflns_threshold_expression     'I > 2\s(I)'
_cod_data_source_file            c6cp08396j2.cif
_cod_data_source_block           shelx
_cod_depositor_comments
'Adding full bibliography for 7227352--7227354.cif.'
_cod_original_cell_volume        5147.6(19)
_cod_database_code               7227354
_shelx_shelxl_version_number     2014/7
_shelx_space_group_comment
;
The symmetry employed for this shelxl refinement is uniquely defined
by the following loop, which should always be used as a source of
symmetry information in preference to the above space-group names.
They are only intended as comments.
;
_shelx_res_file
;

    shelx.res created by SHELXL-2014/7


TITL shelxt_a.res in P-1
CELL  0.71073  13.2360  16.4710  24.4350   90.794  103.492   96.007
ZERR     1.00   0.0026   0.0033   0.0049    0.030    0.030    0.030
LATT   1
SFAC  C    H    N    O    NI    Cl
UNIT  233 141 20 16 4 3
temp 26
L.S. 15
acta 51
conf
bond $h
htab
EQIV $1 -x+2, -y+1, -z+1
HTAB C18B N2A_$1
EQIV $2 x-1, y-1, z
HTAB C1S O4A_$2
eadp c21a c21c
eadp c22a c22c
eadp c23a c23c
eadp c24a c24c
eadp c25a c25c
eadp c26a c26c
eadp c53a c53c
eadp c54a c54c
eadp c55a c55c
eadp c56a c56c
eadp c57a c57c
eadp c58a c58c
eadp c21b c21d
eadp c22b c22d
eadp c23b c23d
eadp c24b c24d
eadp c25b c25d
eadp c26b c26d
eadp c47b c47d
eadp c48b c48d
eadp c49b c49d
eadp c50b c50d
eadp c51b c51d
eadp c52b c52d
isor .005 cl1 cl2 cl3
omit     1   0   2
omit    -2  -1   3
omit     1   2   3
omit    -1   1   6
omit     1   3   1
omit     0   0   1
omit     0   1   0
omit     1   2   1
omit     1   3   4
omit    -1  -2   1
omit    -3  -2   1
omit     0  -4   3
omit     3   1   2
omit     1   1   1
omit    -1  -2   2
omit    -1   1   4
omit     2  -4   1
omit     2   3   5
omit     2   5   2
omit     0   3   8
omit    -1   1   0
omit     2   4   3
omit     0  -1   2
omit    -2   1   0
omit    -1   1   3
rigu
ABIN
WGHT    0.140100
FVAR       0.08226   0.31601   0.46391   0.57630   0.73313
NI1   5    0.301317    0.690449    0.277137    11.00000    0.05035    0.04514 =
         0.05611   -0.00730   -0.00888    0.00813
O1A   4    0.072305    0.333470    0.293404    11.00000    0.12711    0.10552 =
         0.26552    0.00534    0.03830   -0.03050
O2A   4    0.224255    0.336486    0.274814    11.00000    0.12200    0.07861 =
         0.14948   -0.01231    0.00182    0.01582
O3A   4    1.000993    1.063051    0.423464    11.00000    0.09174    0.25293 =
         0.14985   -0.06090    0.01098   -0.05295
O4A   4    0.717010    1.174650    0.113935    11.00000    0.20581    0.15110 =
         0.17299    0.07543    0.05203    0.00919
N1A   3    0.210312    0.590483    0.274672    11.00000    0.05297    0.04968 =
         0.05827   -0.01278   -0.00473    0.00610
N2A   3    0.389513    0.658592    0.344854    11.00000    0.05656    0.04106 =
         0.05030    0.00058   -0.00656    0.00323
N3A   3    0.398853    0.785684    0.276521    11.00000    0.05301    0.04472 =
         0.04980   -0.00432   -0.00744    0.00487
N4A   3    0.209046    0.725458    0.212068    11.00000    0.05450    0.04783 =
         0.06464   -0.01065   -0.00863    0.01281
N5A   3    0.150085    0.369540    0.283367    11.00000    0.09237    0.06783 =
         0.14442   -0.00881   -0.00812   -0.00660
C1A   1    0.110458    0.573245    0.240240    11.00000    0.04719    0.05476 =
         0.06926   -0.02285   -0.00613    0.00368
C2A   1    0.075243    0.489131    0.244823    11.00000    0.06443    0.06322 =
         0.09101   -0.01770   -0.00214   -0.00315
AFIX  43
H2AA  2    0.010102    0.462276    0.227314    11.00000   -1.20000
AFIX   0
C3A   1    0.154058    0.455995    0.279257    11.00000    0.06669    0.05916 =
         0.08506   -0.00698   -0.00173    0.00271
C4A   1    0.235793    0.518659    0.300639    11.00000    0.05545    0.04842 =
         0.06741   -0.00577    0.00068    0.00080
C5A   1    0.321589    0.513993    0.345624    11.00000    0.06318    0.04453 =
         0.06731   -0.00166   -0.00320    0.00103
C6A   1    0.388943    0.583197    0.368281    11.00000    0.05594    0.04995 =
         0.05850   -0.00117    0.00048    0.00221
C7A   1    0.460787    0.587467    0.422422    11.00000    0.07207    0.05008 =
         0.06542    0.00598   -0.01206   -0.00054
AFIX  43
H7AA  2    0.475263    0.544397    0.446178    11.00000   -1.20000
AFIX   0
C8A   1    0.502331    0.663954    0.432081    11.00000    0.07339    0.05660 =
         0.05338    0.00380   -0.01072   -0.00518
AFIX  43
H8AA  2    0.550055    0.685112    0.464632    11.00000   -1.20000
AFIX   0
C9A   1    0.461035    0.709091    0.383508    11.00000    0.05397    0.04827 =
         0.04622    0.00105   -0.00372    0.00187
C10A  1    0.500635    0.787001    0.374707    11.00000    0.05720    0.04736 =
         0.04483   -0.00281   -0.00847    0.00946
C11A  1    0.479958    0.819362    0.320561    11.00000    0.05294    0.04053 =
         0.04867   -0.00392   -0.00372    0.01028
C12A  1    0.542902    0.884553    0.301219    11.00000    0.05526    0.04237 =
         0.05236    0.00202    0.00046    0.00692
C13A  1    0.502951    0.887720    0.244094    11.00000    0.05873    0.04470 =
         0.05790   -0.00187   -0.00278    0.01054
C14A  1    0.409025    0.829913    0.229598    11.00000    0.06449    0.04645 =
         0.04920   -0.00313   -0.00332    0.01514
C15A  1    0.328981    0.830436    0.181563    11.00000    0.06517    0.04568 =
         0.05617   -0.00715   -0.00852    0.01268
C16A  1    0.231964    0.786392    0.177770    11.00000    0.06809    0.05618 =
         0.05572   -0.00830   -0.01380    0.01770
C17A  1    0.137192    0.800628    0.136440    11.00000    0.08074    0.06661 =
         0.07543   -0.00338   -0.02687    0.01973
AFIX  43
H17A  2    0.131790    0.838327    0.108203    11.00000   -1.20000
AFIX   0
C18A  1    0.059348    0.749006    0.146918    11.00000    0.06799    0.06287 =
         0.10010   -0.00553   -0.02828    0.01586
AFIX  43
H18A  2   -0.010954    0.746654    0.128638    11.00000   -1.20000
AFIX   0
C19A  1    0.103404    0.698298    0.191074    11.00000    0.05681    0.05319 =
         0.08209   -0.01484   -0.01590    0.01330
C20A  1    0.056199    0.626146    0.204815    11.00000    0.05307    0.05906 =
         0.07852   -0.02070   -0.00988    0.01218
AFIX  66
PART   1
C21A  1    0.329525    0.441216    0.374254    21.00000    0.07251    0.04252 =
         0.06405   -0.00094   -0.01554   -0.00677
C22A  1    0.249315    0.412830    0.399409    21.00000    0.08185    0.05452 =
         0.07922    0.01645   -0.00233    0.00859
AFIX  43
H22A  2    0.192983    0.442812    0.397740    21.00000   -1.20000
AFIX  65
C23A  1    0.253300    0.339632    0.427059    21.00000    0.09824    0.05936 =
         0.08246    0.01951   -0.01005    0.00832
AFIX  43
H23A  2    0.199635    0.320640    0.443890    21.00000   -1.20000
AFIX  65
C24A  1    0.337495    0.294820    0.429555    21.00000    0.09760    0.05490 =
         0.07551    0.00885   -0.01859    0.00736
AFIX  43
H24A  2    0.340161    0.245846    0.448054    21.00000   -1.20000
AFIX  65
C25A  1    0.417705    0.323206    0.404400    21.00000    0.10033    0.05656 =
         0.09104    0.00884   -0.00942    0.01176
AFIX  43
H25A  2    0.474036    0.293223    0.406070    21.00000   -1.20000
AFIX  65
C26A  1    0.413721    0.396403    0.376749    21.00000    0.08227    0.05782 =
         0.08819    0.01312   -0.00378    0.00782
AFIX  43
H26A  2    0.467387    0.415395    0.359919    21.00000   -1.20000
AFIX  66
PART   2
C21C  1    0.341679    0.433606    0.375285   -21.00000    0.07251    0.04252 =
         0.06405   -0.00094   -0.01554   -0.00677
C22C  1    0.274904    0.395857    0.405864   -21.00000    0.08185    0.05452 =
         0.07922    0.01645   -0.00233    0.00859
AFIX  43
H22B  2    0.216329    0.419954    0.409717   -21.00000   -1.20000
AFIX  65
C23C  1    0.295675    0.322093    0.430685   -21.00000    0.09824    0.05936 =
         0.08246    0.01951   -0.01005    0.00832
AFIX  43
H23B  2    0.250997    0.296837    0.451144   -21.00000   -1.20000
AFIX  65
C24C  1    0.383221    0.286078    0.424927   -21.00000    0.09760    0.05490 =
         0.07551    0.00885   -0.01859    0.00736
AFIX  43
H24B  2    0.397118    0.236725    0.441533   -21.00000   -1.20000
AFIX  65
C25C  1    0.449998    0.323826    0.394348   -21.00000    0.10033    0.05656 =
         0.09104    0.00884   -0.00942    0.01176
AFIX  43
H25B  2    0.508572    0.299728    0.390495   -21.00000   -1.20000
AFIX  65
C26C  1    0.429228    0.397590    0.369527   -21.00000    0.08227    0.05782 =
         0.08819    0.01312   -0.00378    0.00782
AFIX  43
H26B  2    0.473906    0.422846    0.349068   -21.00000   -1.20000
AFIX   0
PART   0
C27A  1    0.573672    0.835332    0.423939    11.00000    0.06643    0.04377 =
         0.04706    0.00325   -0.00510    0.00469
C28A  1    0.678748    0.826708    0.438746    11.00000    0.06286    0.05527 =
         0.06222   -0.00071   -0.00647   -0.00280
AFIX  43
H28A  2    0.706670    0.791959    0.417308    11.00000   -1.20000
AFIX   0
C29A  1    0.742604    0.868985    0.484890    11.00000    0.06830    0.06531 =
         0.07055    0.00265   -0.01444   -0.00987
AFIX  43
H29A  2    0.813956    0.864327    0.493881    11.00000   -1.20000
AFIX   0
C30A  1    0.701098    0.918289    0.517883    11.00000    0.09589    0.06298 =
         0.06045    0.00487   -0.01312   -0.00615
AFIX  43
H30A  2    0.744676    0.947905    0.548665    11.00000   -1.20000
AFIX   0
C31A  1    0.595615    0.923835    0.505459    11.00000    0.11036    0.06223 =
         0.06099   -0.01175    0.00895    0.00243
AFIX  43
H31A  2    0.567383    0.955036    0.528937    11.00000   -1.20000
AFIX   0
C32A  1    0.530541    0.882904    0.457792    11.00000    0.08104    0.05571 =
         0.05242   -0.00916   -0.00343    0.00428
AFIX  43
H32A  2    0.459161    0.887449    0.448824    11.00000   -1.20000
AFIX   0
C33A  1    0.637779    0.933157    0.332568    11.00000    0.07088    0.04457 =
         0.05040    0.00193    0.00183    0.00408
C34A  1    0.736220    0.916239    0.324617    11.00000    0.06904    0.06942 =
         0.06769   -0.00345    0.00579    0.00586
AFIX  43
H34A  2    0.740502    0.873985    0.299902    11.00000   -1.20000
AFIX   0
C35A  1    0.825693    0.962915    0.353812    11.00000    0.06383    0.09915 =
         0.06988   -0.00905    0.01012   -0.01025
AFIX  43
H35A  2    0.890378    0.950424    0.349494    11.00000   -1.20000
AFIX   0
C36A  1    0.821455    1.026766    0.388755    11.00000    0.07595    0.09369 =
         0.07208   -0.01199    0.01173   -0.01807
C37A  1    0.725435    1.047419    0.393849    11.00000    0.08861    0.06345 =
         0.07210   -0.01713    0.00934   -0.01346
AFIX  43
H37A  2    0.722439    1.092942    0.416120    11.00000   -1.20000
AFIX   0
C38A  1    0.634667    1.001876    0.366603    11.00000    0.07913    0.04938 =
         0.06620   -0.00283    0.00583    0.00536
AFIX  43
H38A  2    0.570712    1.016469    0.370635    11.00000   -1.20000
AFIX   0
C39A  1    0.913687    1.074793    0.421450    11.00000    0.09163    0.19304 =
         0.12194   -0.03904    0.01980   -0.05569
AFIX  43
H39A  2    0.903525    1.118988    0.442877    11.00000   -1.20000
AFIX   0
C40A  1    0.551565    0.942393    0.208305    11.00000    0.06107    0.05905 =
         0.05644    0.00628    0.00042    0.01371
C41A  1    0.568902    1.026276    0.220481    11.00000    0.07938    0.06275 =
         0.06454    0.00308    0.00287    0.00764
AFIX  43
H41A  2    0.546361    1.047621    0.250431    11.00000   -1.20000
AFIX   0
C42A  1    0.619413    1.078818    0.188601    11.00000    0.09747    0.07402 =
         0.07741    0.01748    0.00792    0.00751
AFIX  43
H42A  2    0.630125    1.134675    0.197298    11.00000   -1.20000
AFIX   0
C43A  1    0.652969    1.048443    0.144858    11.00000    0.08510    0.09663 =
         0.06296    0.02278    0.00443    0.01976
C44A  1    0.637507    0.965531    0.132419    11.00000    0.09809    0.10560 =
         0.06803    0.02530    0.01767    0.02955
AFIX  43
H44A  2    0.660549    0.944763    0.102462    11.00000   -1.20000
AFIX   0
C45A  1    0.588585    0.913494    0.163723    11.00000    0.07901    0.07629 =
         0.06957    0.01311    0.01221    0.02818
AFIX  43
H45A  2    0.579893    0.857668    0.155031    11.00000   -1.20000
AFIX   0
C46A  1    0.709775    1.103600    0.110443    11.00000    0.11712    0.14450 =
         0.09271    0.06001    0.01366    0.01410
AFIX  43
H46A  2    0.740903    1.079459    0.084897    11.00000   -1.20000
AFIX   0
C47A  1    0.339734    0.884298    0.133698    11.00000    0.08053    0.06372 =
         0.05496    0.00325   -0.02093    0.00402
C48A  1    0.332130    0.966664    0.136876    11.00000    0.09464    0.05849 =
         0.08090    0.01397   -0.01583    0.01249
AFIX  43
H48A  2    0.319610    0.990105    0.169163    11.00000   -1.20000
AFIX   0
C49A  1    0.342987    1.014832    0.092360    11.00000    0.13050    0.08380 =
         0.08863    0.02960   -0.01201    0.01249
AFIX  43
H49A  2    0.337411    1.070529    0.094660    11.00000   -1.20000
AFIX   0
C50A  1    0.361925    0.980774    0.044901    11.00000    0.15717    0.10101 =
         0.07033    0.03111   -0.01128    0.00685
AFIX  43
H50A  2    0.369490    1.013456    0.015067    11.00000   -1.20000
AFIX   0
C51A  1    0.369647    0.900344    0.041180    11.00000    0.20157    0.11121 =
         0.06766    0.01673    0.01105    0.01804
AFIX  43
H51A  2    0.382339    0.877807    0.008653    11.00000   -1.20000
AFIX   0
C52A  1    0.359098    0.851102    0.084589    11.00000    0.15905    0.08041 =
         0.06040    0.00583   -0.00234    0.01640
AFIX  43
H52A  2    0.364798    0.795519    0.081466    11.00000   -1.20000
AFIX  66
PART   1
C53A  1   -0.048409    0.594967    0.168014    31.00000    0.05289    0.06075 =
         0.10664   -0.01959   -0.01641    0.01198
C54A  1   -0.063627    0.582183    0.110179    31.00000    0.05534    0.09057 =
         0.10408   -0.02197   -0.02267    0.01086
AFIX  43
H54A  2   -0.009425    0.597126    0.092758    31.00000   -1.20000
AFIX  65
C55A  1   -0.159855    0.547067    0.078380    31.00000    0.06194    0.10693 =
         0.12688   -0.03211   -0.02080    0.00920
AFIX  43
H55A  2   -0.170036    0.538514    0.039685    31.00000   -1.20000
AFIX  65
C56A  1   -0.240867    0.524733    0.104417    31.00000    0.05609    0.07631 =
         0.12989   -0.02843   -0.01964    0.01612
AFIX  43
H56A  2   -0.305250    0.501238    0.083142    31.00000   -1.20000
AFIX  65
C57A  1   -0.225651    0.537516    0.162252    31.00000    0.06374    0.07695 =
         0.12762   -0.02587   -0.01644    0.01074
AFIX  43
H57A  2   -0.279853    0.522573    0.179672    31.00000   -1.20000
AFIX  65
C58A  1   -0.129423    0.572632    0.194051    31.00000    0.06281    0.07016 =
         0.10748   -0.02022   -0.01131    0.01043
AFIX  43
H58A  2   -0.119242    0.581185    0.232746    31.00000   -1.20000
AFIX  66
PART   2
C53C  1   -0.056940    0.595929    0.178993   -31.00000    0.05289    0.06075 =
         0.10664   -0.01959   -0.01641    0.01198
C54C  1   -0.091401    0.581768    0.121085   -31.00000    0.05534    0.09057 =
         0.10408   -0.02197   -0.02267    0.01086
AFIX  43
H54B  2   -0.047621    0.598078    0.097578   -31.00000   -1.20000
AFIX  65
C55C  1   -0.191297    0.543228    0.098310   -31.00000    0.06194    0.10693 =
         0.12688   -0.03211   -0.02080    0.00920
AFIX  43
H55B  2   -0.214353    0.533754    0.059566   -31.00000   -1.20000
AFIX  65
C56C  1   -0.256732    0.518850    0.133444   -31.00000    0.05609    0.07631 =
         0.12989   -0.02843   -0.01964    0.01612
AFIX  43
H56B  2   -0.323568    0.493065    0.118206   -31.00000   -1.20000
AFIX  65
C57C  1   -0.222271    0.533011    0.191353   -31.00000    0.06374    0.07695 =
         0.12762   -0.02587   -0.01644    0.01074
AFIX  43
H57B  2   -0.266052    0.516700    0.214860   -31.00000   -1.20000
AFIX  65
C58C  1   -0.122376    0.571550    0.214128   -31.00000    0.06281    0.07016 =
         0.10748   -0.02022   -0.01131    0.01043
AFIX  43
H58B  2   -0.099320    0.581024    0.252873   -31.00000   -1.20000
AFIX   0
PART   0
NI2   5    1.237845    0.239715    0.820017    11.00000    0.05562    0.04469 =
         0.05630   -0.00159   -0.00127    0.00402
O1B   4    1.537983    0.420450    1.042968    11.00000    0.11967    0.16282 =
         0.11951   -0.03192   -0.01338   -0.01642
O2B   4    1.372017    0.423421    1.031666    11.00000    0.14037    0.10400 =
         0.12628   -0.02429    0.03803    0.00286
O3B   4    0.544196   -0.134500    0.694888    11.00000    0.08948    0.12161 =
         0.22663   -0.04406    0.05330   -0.01260
O4B   4    0.630153    0.205577    0.452407    11.00000    0.15687    0.16960 =
         0.08334   -0.01110   -0.03286    0.08109
N1B   3    1.348774    0.294376    0.878969    11.00000    0.05855    0.04212 =
         0.05951   -0.00515   -0.00170    0.00247
N2B   3    1.189035    0.176362    0.874868    11.00000    0.05190    0.04290 =
         0.06268   -0.00216   -0.00289    0.00134
N3B   3    1.122656    0.189977    0.762119    11.00000    0.05451    0.04437 =
         0.06094    0.00170    0.00109    0.00752
N4B   3    1.291593    0.298539    0.764334    11.00000    0.06143    0.04808 =
         0.06228   -0.00362    0.00457    0.00131
N5B   3    1.447853    0.403468    1.014514    11.00000    0.10862    0.08760 =
         0.09592   -0.01391    0.01249   -0.00829
C1B   1    1.432442    0.346481    0.871361    11.00000    0.05164    0.04951 =
         0.06322   -0.00655    0.00358    0.00298
C2B   1    1.483285    0.388131    0.923706    11.00000    0.06419    0.06423 =
         0.07061   -0.00649   -0.00177   -0.00731
AFIX  43
H2BA  2    1.542351    0.426116    0.930135    11.00000   -1.20000
AFIX   0
C3B   1    1.430247    0.362436    0.961915    11.00000    0.06941    0.04999 =
         0.06159   -0.00858   -0.00148   -0.00075
C4B   1    1.348064    0.300785    0.936077    11.00000    0.06368    0.04676 =
         0.05446   -0.00088   -0.00501   -0.00161
C5B   1    1.290971    0.248198    0.963298    11.00000    0.07053    0.04983 =
         0.05822    0.00097    0.00234   -0.00288
C6B   1    1.218583    0.186741    0.933270    11.00000    0.06098    0.04674 =
         0.06393    0.00202    0.00173    0.00115
C7B   1    1.173294    0.118525    0.959276    11.00000    0.08083    0.06094 =
         0.06686    0.00776    0.00003   -0.00844
AFIX  43
H7BA  2    1.179515    0.112106    0.997631    11.00000   -1.20000
AFIX   0
C8B   1    1.120079    0.065805    0.916987    11.00000    0.07447    0.05370 =
         0.06989    0.00808   -0.00645   -0.00565
AFIX  43
H8BA  2    1.085265    0.014920    0.920807    11.00000   -1.20000
AFIX   0
C9B   1    1.127277    0.102807    0.865340    11.00000    0.05618    0.04493 =
         0.06389    0.00439   -0.00526    0.00388
C10B  1    1.069009    0.071312    0.812726    11.00000    0.05846    0.04910 =
         0.06415    0.00022   -0.00231    0.00250
C11B  1    1.058345    0.119104    0.765126    11.00000    0.05868    0.04300 =
         0.05863   -0.00497   -0.00469    0.00559
C12B  1    0.971943    0.109738    0.716672    11.00000    0.05307    0.05268 =
         0.05469   -0.00671    0.00031    0.00614
C13B  1    0.981879    0.175877    0.684047    11.00000    0.05548    0.05014 =
         0.06018   -0.00398    0.00026    0.00774
C14B  1    1.081224    0.222878    0.710093    11.00000    0.06188    0.04447 =
         0.05816    0.00186    0.00005    0.00755
C15B  1    1.136647    0.277537    0.684071    11.00000    0.06943    0.04881 =
         0.06131    0.00723    0.00095    0.00528
C16B  1    1.242424    0.305401    0.708181    11.00000    0.07193    0.04451 =
         0.06400    0.00274    0.00567    0.00043
C17B  1    1.313571    0.344952    0.679044    11.00000    0.07884    0.06228 =
         0.06696    0.00094    0.01175   -0.00746
AFIX  43
H17B  2    1.298101    0.356854    0.641098    11.00000   -1.20000
AFIX   0
C18B  1    1.406183    0.362192    0.715079    11.00000    0.06786    0.06807 =
         0.07114   -0.00407    0.02009   -0.00812
AFIX  43
H18B  2    1.467921    0.385568    0.707083    11.00000   -1.20000
AFIX   0
C19B  1    1.390622    0.337003    0.769085    11.00000    0.05659    0.04942 =
         0.06949   -0.00819    0.01396    0.00284
C20B  1    1.460598    0.360172    0.821170    11.00000    0.05608    0.04841 =
         0.07118   -0.00735    0.01145    0.00788
AFIX  66
PART   1
C21B  1    1.321604    0.248572    1.026104    41.00000    0.09580    0.05468 =
         0.06176    0.00281    0.00627   -0.01271
C22B  1    1.424219    0.236827    1.051486    41.00000    0.10021    0.06662 =
         0.05990    0.00698    0.00387   -0.00865
AFIX  43
H22C  2    1.470587    0.227257    1.029409    41.00000   -1.20000
AFIX  65
C23B  1    1.457534    0.239386    1.109866    41.00000    0.12137    0.07929 =
         0.06215    0.00588    0.00550   -0.01605
AFIX  43
H23C  2    1.526190    0.231527    1.126849    41.00000   -1.20000
AFIX  65
C24B  1    1.388234    0.253689    1.142864    41.00000    0.12696    0.08846 =
         0.05472    0.00735    0.00845   -0.01376
AFIX  43
H24C  2    1.410524    0.255401    1.181924    41.00000   -1.20000
AFIX  65
C25B  1    1.285618    0.265434    1.117483    41.00000    0.12745    0.09673 =
         0.06182    0.00722    0.00997   -0.01042
AFIX  43
H25C  2    1.239252    0.275004    1.139562    41.00000   -1.20000
AFIX  65
C26B  1    1.252302    0.262875    1.059103    41.00000    0.10710    0.07922 =
         0.06181    0.00259    0.01095   -0.00986
AFIX  43
H26C  2    1.183645    0.270734    1.042121    41.00000   -1.20000
AFIX  66
PART   2
C21D  1    1.305351    0.253485    1.024761   -41.00000    0.09580    0.05468 =
         0.06176    0.00281    0.00627   -0.01271
C22D  1    1.396496    0.233776    1.060857   -41.00000    0.10021    0.06662 =
         0.05990    0.00698    0.00387   -0.00865
AFIX  43
H22D  2    1.451191    0.218992    1.046287   -41.00000   -1.20000
AFIX  65
C23D  1    1.405893    0.236164    1.118729   -41.00000    0.12137    0.07929 =
         0.06215    0.00588    0.00550   -0.01605
AFIX  43
H23D  2    1.466876    0.222978    1.142879   -41.00000   -1.20000
AFIX  65
C24D  1    1.324146    0.258261    1.140507   -41.00000    0.12696    0.08846 =
         0.05472    0.00735    0.00845   -0.01376
AFIX  43
H24D  2    1.330434    0.259858    1.179227   -41.00000   -1.20000
AFIX  65
C25D  1    1.233001    0.277969    1.104411   -41.00000    0.12745    0.09673 =
         0.06182    0.00722    0.00997   -0.01042
AFIX  43
H25D  2    1.178306    0.292754    1.118982   -41.00000   -1.20000
AFIX  65
C26D  1    1.223602    0.275582    1.046539   -41.00000    0.10710    0.07922 =
         0.06181    0.00259    0.01095   -0.00986
AFIX  43
H26D  2    1.162619    0.288768    1.022389   -41.00000   -1.20000
AFIX   0
PART   0
C27B  1    1.016631   -0.013888    0.809740    11.00000    0.06660    0.05415 =
         0.06787    0.00419   -0.00850   -0.00156
C28B  1    0.928057   -0.031932    0.828824    11.00000    0.07456    0.06053 =
         0.08330   -0.00271    0.00684   -0.01173
AFIX  43
H28B  2    0.897335    0.009846    0.842439    11.00000   -1.20000
AFIX   0
C29B  1    0.884012   -0.111540    0.828026    11.00000    0.10829    0.07686 =
         0.11962    0.00495    0.01595   -0.02135
AFIX  43
H29B  2    0.823211   -0.123712    0.840573    11.00000   -1.20000
AFIX   0
C30B  1    0.931252   -0.173365    0.808321    11.00000    0.11549    0.06805 =
         0.12343    0.00585    0.00362   -0.01381
AFIX  43
H30B  2    0.901343   -0.227213    0.807200    11.00000   -1.20000
AFIX   0
C31B  1    1.020690   -0.156128    0.790650    11.00000    0.11698    0.06240 =
         0.11357   -0.00738   -0.00308    0.00712
AFIX  43
H31B  2    1.052506   -0.198178    0.778183    11.00000   -1.20000
AFIX   0
C32B  1    1.064954   -0.075415    0.791164    11.00000    0.07516    0.05924 =
         0.09249   -0.00579   -0.00616    0.00631
AFIX  43
H32B  2    1.126297   -0.063238    0.779129    11.00000   -1.20000
AFIX   0
C33B  1    0.879951    0.044454    0.705310    11.00000    0.05491    0.05377 =
         0.05732   -0.00158   -0.00595    0.00494
C34B  1    0.784740    0.063708    0.713212    11.00000    0.06257    0.05438 =
         0.07993   -0.00171    0.00392    0.00850
AFIX  43
H34B  2    0.777129    0.116818    0.723668    11.00000   -1.20000
AFIX   0
C35B  1    0.701542    0.003737    0.705487    11.00000    0.06099    0.06789 =
         0.08860   -0.01338    0.01142    0.00557
AFIX  43
H35B  2    0.637371    0.016507    0.710436    11.00000   -1.20000
AFIX   0
C36B  1    0.712792   -0.074482    0.690580    11.00000    0.06845    0.06650 =
         0.06787   -0.01736    0.00191    0.00268
C37B  1    0.805704   -0.091952    0.679327    11.00000    0.07749    0.05876 =
         0.07424   -0.01807    0.01029    0.00263
AFIX  43
H37B  2    0.811654   -0.144445    0.666847    11.00000   -1.20000
AFIX   0
C38B  1    0.888722   -0.033659    0.686189    11.00000    0.05856    0.05452 =
         0.06705   -0.01253    0.00039    0.00825
AFIX  43
H38B  2    0.950840   -0.045976    0.678151    11.00000   -1.20000
AFIX   0
C39B  1    0.628608   -0.141538    0.687084    11.00000    0.08462    0.08137 =
         0.14344   -0.04045    0.03345   -0.01287
AFIX  43
H39B  2    0.642292   -0.193675    0.678053    11.00000   -1.20000
AFIX   0
C40B  1    0.901501    0.195726    0.634402    11.00000    0.05737    0.06438 =
         0.06387    0.00080    0.00350    0.01322
C41B  1    0.858492    0.136462    0.591262    11.00000    0.06390    0.05764 =
         0.06436   -0.00242   -0.00178    0.01036
AFIX  43
H41B  2    0.881858    0.085017    0.593432    11.00000   -1.20000
AFIX   0
C42B  1    0.782924    0.153696    0.546321    11.00000    0.06834    0.08237 =
         0.06433   -0.00359    0.00081    0.01480
AFIX  43
H42B  2    0.752857    0.113724    0.518344    11.00000   -1.20000
AFIX   0
C43B  1    0.750157    0.233142    0.542350    11.00000    0.06825    0.09555 =
         0.05982    0.00632    0.00784    0.02906
C44B  1    0.789673    0.289391    0.584436    11.00000    0.09835    0.08128 =
         0.07080    0.00625    0.00613    0.03973
AFIX  43
H44B  2    0.765894    0.340690    0.582248    11.00000   -1.20000
AFIX   0
C45B  1    0.865137    0.271856    0.630854    11.00000    0.08816    0.06689 =
         0.06147    0.00033    0.00762    0.02556
AFIX  43
H45B  2    0.891569    0.311168    0.659751    11.00000   -1.20000
AFIX   0
C46B  1    0.670664    0.252996    0.492421    11.00000    0.12662    0.14795 =
         0.07115    0.00543   -0.00426    0.07044
AFIX  43
H46B  2    0.649919    0.305297    0.491323    11.00000   -1.20000
AFIX  66
PART   1
C47B  1    1.099252    0.304007    0.623943    51.00000    0.07246    0.06659 =
         0.06347    0.01585   -0.00706   -0.00725
C48B  1    1.077672    0.246680    0.579313    51.00000    0.07704    0.07342 =
         0.06121    0.01281   -0.00773   -0.00792
AFIX  43
H48B  2    1.085018    0.191968    0.586219    51.00000   -1.20000
AFIX  65
C49B  1    1.045113    0.271125    0.524361    51.00000    0.11767    0.08551 =
         0.06497    0.01721   -0.00827   -0.00768
AFIX  43
H49B  2    1.030674    0.232769    0.494501    51.00000   -1.20000
AFIX  65
C50B  1    1.034134    0.352897    0.514039    51.00000    0.16737    0.09527 =
         0.07411    0.02562   -0.00567    0.01645
AFIX  43
H50B  2    1.012350    0.369252    0.477272    51.00000   -1.20000
AFIX  65
C51B  1    1.055714    0.410226    0.558668    51.00000    0.17885    0.08929 =
         0.07467    0.02850    0.00121    0.01738
AFIX  43
H51B  2    1.048368    0.464937    0.551762    51.00000   -1.20000
AFIX  65
C52B  1    1.088273    0.385782    0.613620    51.00000    0.11971    0.06861 =
         0.07913    0.02278    0.00634    0.00490
AFIX  43
H52B  2    1.102712    0.424138    0.643480    51.00000   -1.20000
AFIX  66
PART   2
C47D  1    1.087560    0.307784    0.629052   -51.00000    0.07246    0.06659 =
         0.06347    0.01585   -0.00706   -0.00725
C48D  1    1.081400    0.265628    0.578498   -51.00000    0.07704    0.07342 =
         0.06121    0.01281   -0.00773   -0.00792
AFIX  43
H48C  2    1.102450    0.213483    0.578696   -51.00000   -1.20000
AFIX  65
C49D  1    1.043779    0.301408    0.527649   -51.00000    0.11767    0.08551 =
         0.06497    0.01721   -0.00827   -0.00768
AFIX  43
H49C  2    1.039658    0.273202    0.493825   -51.00000   -1.20000
AFIX  65
C50D  1    1.012318    0.379345    0.527354   -51.00000    0.16737    0.09527 =
         0.07411    0.02562   -0.00567    0.01645
AFIX  43
H50C  2    0.987147    0.403284    0.493332   -51.00000   -1.20000
AFIX  65
C51D  1    1.018477    0.421502    0.577907   -51.00000    0.17885    0.08929 =
         0.07467    0.02850    0.00121    0.01738
AFIX  43
H51C  2    0.997427    0.473647    0.577709   -51.00000   -1.20000
AFIX  65
C52D  1    1.056097    0.385723    0.628756   -51.00000    0.11971    0.06861 =
         0.07913    0.02278    0.00634    0.00490
AFIX  43
H52C  2    1.060218    0.413929    0.662580   -51.00000   -1.20000
AFIX   0
PART   0
C53B  1    1.560529    0.411917    0.823382    11.00000    0.05958    0.06543 =
         0.08024   -0.02008    0.02459   -0.00110
C54B  1    1.563290    0.486970    0.798557    11.00000    0.09550    0.06853 =
         0.09351   -0.01581    0.02418   -0.01258
AFIX  43
H54C  2    1.502297    0.503206    0.776214    11.00000   -1.20000
AFIX   0
C55B  1    1.655662    0.537902    0.806651    11.00000    0.12362    0.09675 =
         0.13211   -0.02989    0.04566   -0.04096
AFIX  43
H55C  2    1.656850    0.588265    0.789932    11.00000   -1.20000
AFIX   0
C56B  1    1.745829    0.513825    0.839525    11.00000    0.10393    0.12295 =
         0.13175   -0.05285    0.04603   -0.03702
AFIX  43
H56C  2    1.807968    0.548259    0.845016    11.00000   -1.20000
AFIX   0
C57B  1    1.745391    0.441906    0.863595    11.00000    0.07432    0.12361 =
         0.11792   -0.05325    0.02579   -0.01369
AFIX  43
H57C  2    1.806739    0.426622    0.886185    11.00000   -1.20000
AFIX   0
C58B  1    1.653434    0.389773    0.854980    11.00000    0.06422    0.08214 =
         0.11332   -0.02777    0.01203    0.00538
AFIX  43
H58C  2    1.654415    0.338779    0.870847    11.00000   -1.20000
AFIX   0
CL1   6   -0.032649    0.355262    0.101459    10.50000    0.19578    0.14965 =
         0.23197   -0.02261   -0.04321    0.01177
CL2   6   -0.220297    0.332337    0.013988    10.50000    0.23151    0.17731 =
         0.21943   -0.00873   -0.07196    0.03061
CL3   6   -0.076115    0.208901    0.030497    10.50000    0.20192    0.22698 =
         0.18806   -0.04427    0.01229    0.01960
C1S   1   -0.129056    0.284964    0.059377    10.50000    0.13637    0.14228 =
         0.10069   -0.00074    0.00639   -0.00916
AFIX  13
H1SA  2   -0.166417    0.257653    0.085429    10.50000   -1.20000

AFIX   0
HKLF    4

REM  shelxt_a.res in P-1
REM R1 =  0.0748 for    8326 Fo > 4sig(Fo)  and  0.1700 for all   18457 data
REM   1241 parameters refined using   1476 restraints

END

WGHT      0.1398      0.0000

REM Instructions for potential hydrogen bonds
HTAB C18B N2A_$1
HTAB C1S O4A_$2

REM Highest difference peak  1.131,  deepest hole -0.441,  1-sigma level  0.073
Q1    1   1.5317  0.5243  0.9108  11.00000  0.05    1.13
Q2    1   1.5497  0.4706  0.9369  11.00000  0.05    1.01
Q3    1   1.6190  0.4672  0.9795  11.00000  0.05    0.98
Q4    1  -0.0072  0.4228  0.1697  11.00000  0.05    0.78
Q5    1  -0.0941  0.2860 -0.0012  11.00000  0.05    0.67
Q6    1  -0.0013  0.4248  0.2075  11.00000  0.05    0.62
Q7    1  -0.0268  0.3739  0.0437  11.00000  0.05    0.59
Q8    1  -0.2571  0.3303  0.0418  11.00000  0.05    0.44
Q9    1  -0.1524  0.3381 -0.0081  11.00000  0.05    0.41
Q10   1  -0.0793  0.3193  0.0357  11.00000  0.05    0.33
Q11   1  -0.1017  0.3445  0.1182  11.00000  0.05    0.29
Q12   1  -0.1784  0.1849  0.0530  11.00000  0.05    0.27
Q13   1   0.5205  0.9407  0.5229  11.00000  0.05    0.26
Q14   1   1.1759  0.2606  0.8206  11.00000  0.05    0.25
Q15   1   0.2308  0.8316  0.0830  11.00000  0.05    0.25
Q16   1   0.5616  0.3121  0.3795  11.00000  0.05    0.24
Q17   1   0.6597  0.3342  0.4776  11.00000  0.05    0.24
Q18   1   0.3455  0.2973  0.4159  11.00000  0.05    0.24
Q19   1  -0.1557  0.1566  0.0307  11.00000  0.05    0.24
Q20   1   0.2393  0.7134  0.2911  11.00000  0.05    0.24
;
_shelx_res_checksum              60364
_shelx_fab_file
;
    2    0    0    -37.66      0.00
    3    0    0      6.08      0.00
    4    0    0     -1.54      0.00
    5    0    0      1.20      0.00
    6    0    0      0.59      0.00
    7    0    0      0.43      0.00
    8    0    0     -0.09      0.00
    9    0    0     -1.90      0.00
   10    0    0      0.81      0.00
   11    0    0     -0.22      0.00
   12    0    0      0.46      0.00
   13    0    0     -0.88      0.00
   14    0    0     -1.79      0.00
   15    0    0     -0.23      0.00
  -15    1    0      1.66      0.00
  -14    1    0      0.42      0.00
  -13    1    0     -1.25      0.00
  -12    1    0     -0.09      0.00
  -11    1    0      0.50      0.00
  -10    1    0      0.90      0.00
   -9    1    0      0.82      0.00
   -8    1    0     -1.91      0.00
   -7    1    0     -1.34      0.00
   -6    1    0     -1.96      0.00
   -5    1    0      3.00      0.00
   -4    1    0      0.04      0.00
   -3    1    0     -1.40      0.00
   -2    1    0     21.10      0.00
   -1    1    0    -65.95      0.00
    0    1    0    -57.54      0.00
    1    1    0     61.17      0.00
    2    1    0     16.20      0.00
    3    1    0     -9.50      0.00
    4    1    0     -1.33      0.00
    5    1    0     -0.85      0.00
    6    1    0      1.17      0.00
    7    1    0     -1.73      0.00
    8    1    0      1.35      0.00
    9    1    0      0.03      0.00
   10    1    0     -2.03      0.00
   11    1    0     -0.08      0.00
   12    1    0     -0.21      0.00
   13    1    0      1.67      0.00
   14    1    0      0.10      0.00
   15    1    0     -0.15      0.00
  -15    2    0     -1.21      0.00
  -14    2    0      1.66      0.00
  -13    2    0      0.74      0.00
  -12    2    0      0.18      0.00
  -11    2    0     -0.20      0.00
  -10    2    0     -0.44      0.00
   -9    2    0      1.12      0.00
   -8    2    0      1.38      0.00
   -7    2    0      1.33      0.00
   -6    2    0     -1.88      0.00
   -5    2    0     -4.44      0.00
   -4    2    0      5.43      0.00
   -3    2    0      1.25      0.00
   -2    2    0      9.35      0.00
   -1    2    0     49.42      0.00
    0    2    0    -19.60      0.00
    1    2    0    -32.61      0.00
    2    2    0     10.34      0.00
    3    2    0      5.85      0.00
    4    2    0      0.11      0.00
    5    2    0     -2.03      0.00
    6    2    0      1.33      0.00
    7    2    0      2.32      0.00
    8    2    0     -2.45      0.00
    9    2    0      0.80      0.00
   10    2    0      1.45      0.00
   11    2    0     -0.63      0.00
   12    2    0     -1.02      0.00
   13    2    0     -0.87      0.00
   14    2    0      0.44      0.00
   15    2    0     -0.23      0.00
  -15    3    0      0.40      0.00
  -14    3    0     -1.52      0.00
  -13    3    0      0.15      0.00
  -12    3    0     -0.41      0.00
  -11    3    0      0.54      0.00
  -10    3    0     -0.52      0.00
   -9    3    0     -1.28      0.00
   -8    3    0     -0.50      0.00
   -7    3    0     -1.01      0.00
   -6    3    0      3.28      0.00
   -5    3    0     -1.80      0.00
   -4    3    0     -8.45      0.00
   -3    3    0     -0.68      0.00
   -2    3    0    -12.50      0.00
   -1    3    0     -2.71      0.00
    0    3    0     23.87      0.00
    1    3    0     -2.68      0.00
    2    3    0     -3.81      0.00
    3    3    0     -2.15      0.00
    4    3    0      2.90      0.00
    5    3    0      3.01      0.00
    6    3    0     -2.43      0.00
    7    3    0     -0.35      0.00
    8    3    0      1.66      0.00
    9    3    0     -2.35      0.00
   10    3    0     -1.02      0.00
   11    3    0      1.16      0.00
   12    3    0      0.13      0.00
   13    3    0     -0.79      0.00
   14    3    0      0.47      0.00
  -15    4    0      0.68      0.00
  -14    4    0      0.39      0.00
  -13    4    0     -0.45      0.00
  -12    4    0      0.59      0.00
  -11    4    0      0.57      0.00
  -10    4    0      1.67      0.00
   -9    4    0      0.72      0.00
   -8    4    0      0.06      0.00
   -7    4    0      1.27      0.00
   -6    4    0     -1.68      0.00
   -5    4    0      4.33      0.00
   -4    4    0      1.79      0.00
   -3    4    0     -4.85      0.00
   -2    4    0      2.06      0.00
   -1    4    0     -7.57      0.00
    0    4    0      1.12      0.00
    1    4    0      2.37      0.00
    2    4    0     -1.69      0.00
    3    4    0      2.58      0.00
    4    4    0     -4.97      0.00
    5    4    0     -1.48      0.00
    6    4    0      3.42      0.00
    7    4    0      0.00      0.00
    8    4    0      0.70      0.00
    9    4    0      2.05      0.00
   10    4    0     -0.92      0.00
   11    4    0     -1.25      0.00
   12    4    0      0.76      0.00
   13    4    0      0.55      0.00
   14    4    0     -1.96      0.00
  -15    5    0     -0.32      0.00
  -14    5    0      0.79      0.00
  -13    5    0      0.24      0.00
  -12    5    0     -1.54      0.00
  -11    5    0     -0.93      0.00
  -10    5    0     -0.71      0.00
   -9    5    0      0.55      0.00
   -8    5    0      0.20      0.00
   -7    5    0     -1.27      0.00
   -6    5    0      0.98      0.00
   -5    5    0     -3.18      0.00
   -4    5    0      2.57      0.00
   -3    5    0      4.62      0.00
   -2    5    0      0.34      0.00
   -1    5    0      0.15      0.00
    0    5    0     -1.26      0.00
    1    5    0      7.06      0.00
    2    5    0     -2.61      0.00
    3    5    0     -2.08      0.00
    4    5    0      5.20      0.00
    5    5    0     -1.20      0.00
    6    5    0     -2.49      0.00
    7    5    0     -0.17      0.00
    8    5    0     -1.59      0.00
    9    5    0      0.13      0.00
   10    5    0      1.18      0.00
   11    5    0      0.30      0.00
   12    5    0     -2.14      0.00
   13    5    0     -0.76      0.00
   14    5    0      2.16      0.00
  -15    6    0     -0.17      0.00
  -14    6    0     -1.21      0.00
  -13    6    0      0.39      0.00
  -12    6    0      1.69      0.00
  -11    6    0      0.38      0.00
  -10    6    0      0.58      0.00
   -9    6    0     -0.24      0.00
   -8    6    0      0.21      0.00
   -7    6    0      0.33      0.00
   -6    6    0     -1.00      0.00
   -5    6    0      1.03      0.00
   -4    6    0     -3.98      0.00
   -3    6    0     -3.09      0.00
   -2    6    0      0.16      0.00
   -1    6    0      0.66      0.00
    0    6    0     -5.56      0.00
    1    6    0     -3.48      0.00
    2    6    0      4.29      0.00
    3    6    0     -2.96      0.00
    4    6    0     -3.83      0.00
    5    6    0      3.58      0.00
    6    6    0      1.31      0.00
    7    6    0      1.28      0.00
    8    6    0      0.18      0.00
    9    6    0     -0.66      0.00
   10    6    0     -0.07      0.00
   11    6    0     -0.49      0.00
   12    6    0      2.27      0.00
   13    6    0     -1.22      0.00
   14    6    0     -2.48      0.00
  -14    7    0      1.21      0.00
  -13    7    0     -0.39      0.00
  -12    7    0     -0.39      0.00
  -11    7    0     -0.66      0.00
  -10    7    0     -0.29      0.00
   -9    7    0      0.11      0.00
   -8    7    0     -0.22      0.00
   -7    7    0      0.72      0.00
   -6    7    0      0.60      0.00
   -5    7    0      0.44      0.00
   -4    7    0      3.07      0.00
   -3    7    0      1.47      0.00
   -2    7    0     -1.04      0.00
   -1    7    0      0.95      0.00
    0    7    0      3.40      0.00
    1    7    0     -2.12      0.00
    2    7    0     -1.86      0.00
    3    7    0      3.56      0.00
    4    7    0     -0.85      0.00
    5    7    0     -2.16      0.00
    6    7    0     -0.24      0.00
    7    7    0      0.06      0.00
    8    7    0      1.01      0.00
    9    7    0     -0.80      0.00
   10    7    0      0.29      0.00
   11    7    0     -0.28      0.00
   12    7    0     -2.41      0.00
   13    7    0      1.33      0.00
  -14    8    0     -1.60      0.00
  -13    8    0      0.22      0.00
  -12    8    0      0.33      0.00
  -10    8    0     -1.07      0.00
   -9    8    0     -0.26      0.00
   -8    8    0     -0.56      0.00
   -7    8    0     -1.83      0.00
   -6    8    0     -0.08      0.00
   -5    8    0     -0.84      0.00
   -4    8    0     -2.19      0.00
   -3    8    0     -0.55      0.00
   -2    8    0      1.41      0.00
   -1    8    0     -1.13      0.00
    0    8    0     -1.28      0.00
    1    8    0      1.51      0.00
    2    8    0      0.19      0.00
    3    8    0     -1.47      0.00
    4    8    0      0.99      0.00
    5    8    0      0.29      0.00
    6    8    0      0.64      0.00
    7    8    0     -1.64      0.00
    8    8    0     -0.13      0.00
    9    8    0      0.50      0.00
   10    8    0     -0.37      0.00
   11    8    0      1.29      0.00
   12    8    0      0.53      0.00
   13    8    0     -0.56      0.00
  -14    9    0     -1.52      0.00
  -13    9    0     -0.65      0.00
  -12    9    0     -0.80      0.00
  -11    9    0     -1.24      0.00
  -10    9    0      1.34      0.00
   -9    9    0      0.15      0.00
   -8    9    0      1.19      0.00
   -7    9    0      1.40      0.00
   -6    9    0     -1.05      0.00
   -5    9    0      0.44      0.00
   -4    9    0      0.64      0.00
   -3    9    0     -1.40      0.00
   -2    9    0     -2.37      0.00
   -1    9    0      0.41      0.00
    0    9    0      1.43      0.00
    1    9    0     -2.27      0.00
    2    9    0     -0.59      0.00
    3    9    0      1.40      0.00
    4    9    0      0.72      0.00
    5    9    0     -0.74      0.00
    6    9    0      0.65      0.00
    7    9    0      1.40      0.00
    8    9    0     -0.48      0.00
    9    9    0     -0.08      0.00
   10    9    0     -0.67      0.00
   11    9    0      0.32      0.00
   12    9    0      0.74      0.00
  -14   10    0      2.53      0.00
  -13   10    0     -1.49      0.00
  -12   10    0      1.48      0.00
  -11   10    0      1.31      0.00
  -10   10    0     -0.77      0.00
   -9   10    0     -0.73      0.00
   -8   10    0     -0.55      0.00
   -7   10    0     -0.10      0.00
   -6   10    0      0.60      0.00
   -5   10    0     -0.29      0.00
   -4   10    0      0.37      0.00
   -3   10    0      1.43      0.00
   -2   10    0      2.05      0.00
   -1   10    0     -0.70      0.00
    0   10    0     -0.29      0.00
    1   10    0      3.35      0.00
    2   10    0     -0.85      0.00
    3   10    0     -1.30      0.00
    4   10    0      0.31      0.00
    5   10    0      0.73      0.00
    6   10    0     -0.69      0.00
    7   10    0      0.90      0.00
    8   10    0      0.75      0.00
    9   10    0      0.87      0.00
   10   10    0      0.60      0.00
   11   10    0     -1.33      0.00
   12   10    0      1.06      0.00
  -13   11    0      0.75      0.00
  -12   11    0     -2.00      0.00
  -11   11    0      1.07      0.00
  -10   11    0      2.42      0.00
   -9   11    0      1.27      0.00
   -8   11    0     -0.18      0.00
   -7   11    0      0.46      0.00
   -6   11    0     -0.12      0.00
   -5   11    0     -1.49      0.00
   -4   11    0     -1.07      0.00
   -3   11    0     -0.83      0.00
   -2   11    0     -0.93      0.00
   -1   11    0      1.22      0.00
    0   11    0     -1.11      0.00
    1   11    0     -1.19      0.00
    2   11    0      1.33      0.00
    3   11    0     -0.33      0.00
    4   11    0     -0.44      0.00
    5   11    0      1.01      0.00
    6   11    0     -0.36      0.00
    7   11    0     -0.80      0.00
    8   11    0      0.79      0.00
    9   11    0     -0.34      0.00
   10   11    0      0.20      0.00
   11   11    0     -0.03      0.00
  -13   12    0      0.55      0.00
  -12   12    0     -1.18      0.00
  -11   12    0     -2.45      0.00
  -10   12    0     -1.28      0.00
   -9   12    0      0.42      0.00
   -8   12    0     -0.13      0.00
   -7   12    0     -0.72      0.00
   -6   12    0      1.26      0.00
   -5   12    0      1.72      0.00
   -4   12    0     -0.38      0.00
   -3   12    0     -0.65      0.00
   -2   12    0     -0.08      0.00
   -1   12    0      0.57      0.00
    0   12    0      2.11      0.00
    1   12    0     -0.01      0.00
    2   12    0      0.07      0.00
    3   12    0     -0.18      0.00
    4   12    0     -1.27      0.00
    5   12    0     -0.73      0.00
    6   12    0      2.70      0.00
    7   12    0      0.75      0.00
    8   12    0     -0.76      0.00
    9   12    0      0.83      0.00
   10   12    0     -0.81      0.00
   11   12    0      0.19      0.00
  -12   13    0      3.38      0.00
  -11   13    0      0.72      0.00
  -10   13    0      0.10      0.00
   -9   13    0     -0.54      0.00
   -8   13    0      0.81      0.00
   -7   13    0     -0.31      0.00
   -6   13    0     -1.26      0.00
   -5   13    0     -0.02      0.00
   -4   13    0      1.15      0.00
   -3   13    0      0.67      0.00
   -2   13    0     -0.60      0.00
   -1   13    0     -1.45      0.00
    0   13    0      0.09      0.00
    1   13    0      0.67      0.00
    2   13    0     -0.06      0.00
    3   13    0      0.87      0.00
    4   13    0      0.56      0.00
    5   13    0     -0.68      0.00
    6   13    0     -2.23      0.00
    7   13    0      1.15      0.00
    8   13    0      1.19      0.00
    9   13    0      0.59      0.00
   10   13    0      1.44      0.00
  -12   14    0     -0.67      0.00
  -11   14    0      0.79      0.00
  -10   14    0      0.05      0.00
   -9   14    0      0.10      0.00
   -8   14    0     -0.34      0.00
   -7   14    0      0.43      0.00
   -6   14    0      0.26      0.00
   -5   14    0     -0.16      0.00
   -4   14    0     -0.73      0.00
   -3   14    0     -0.36      0.00
   -2   14    0      0.40      0.00
   -1   14    0     -0.14      0.00
    0   14    0     -2.32      0.00
    1   14    0     -0.40      0.00
    2   14    0     -0.29      0.00
    3   14    0     -0.80      0.00
    4   14    0     -0.60      0.00
    5   14    0     -0.39      0.00
    6   14    0      1.83      0.00
    7   14    0     -0.07      0.00
    8   14    0     -0.79      0.00
    9   14    0     -1.48      0.00
  -11   15    0      0.96      0.00
  -10   15    0      0.30      0.00
   -9   15    0     -0.08      0.00
   -8   15    0     -0.47      0.00
   -7   15    0      0.50      0.00
   -6   15    0     -0.29      0.00
   -5   15    0      0.00      0.00
   -4   15    0      1.07      0.00
   -3   15    0      0.22      0.00
   -2   15    0     -0.13      0.00
   -1   15    0      1.39      0.00
    0   15    0      2.46      0.00
    1   15    0     -0.94      0.00
    2   15    0     -0.38      0.00
    3   15    0      0.03      0.00
    4   15    0      0.51      0.00
    5   15    0     -0.45      0.00
    6   15    0     -2.78      0.00
    7   15    0      0.62      0.00
    8   15    0      3.06      0.00
  -10   16    0      1.03      0.00
   -9   16    0      1.10      0.00
   -8   16    0      0.16      0.00
   -7   16    0     -0.79      0.00
   -6   16    0      1.38      0.00
   -5   16    0     -0.35      0.00
   -4   16    0     -0.59      0.00
   -3   16    0      1.14      0.00
   -2   16    0      0.67      0.00
   -1   16    0     -0.92      0.00
    0   16    0      0.02      0.00
    1   16    0      2.29      0.00
    2   16    0      0.45      0.00
    3   16    0     -0.17      0.00
    4   16    0     -0.39      0.00
    5   16    0      1.17      0.00
    6   16    0      0.80      0.00
    7   16    0     -1.54      0.00
   -9   17    0     -0.45      0.00
   -8   17    0      1.01      0.00
   -7   17    0     -0.36      0.00
   -6   17    0     -1.14      0.00
   -5   17    0      1.06      0.00
   -4   17    0     -0.81      0.00
   -3   17    0     -1.54      0.00
   -2   17    0      0.42      0.00
   -1   17    0      0.86      0.00
    0   17    0     -0.34      0.00
    1   17    0     -1.01      0.00
    2   17    0     -0.41      0.00
    3   17    0      0.26      0.00
    4   17    0     -0.20      0.00
    5   17    0     -0.15      0.00
    6   17    0      1.35      0.00
   -7   18    0      0.82      0.00
   -6   18    0      0.20      0.00
   -5   18    0      0.35      0.00
   -4   18    0      1.85      0.00
   -3   18    0     -0.04      0.00
   -2   18    0     -1.40      0.00
   -1   18    0     -0.57      0.00
    0   18    0     -0.20      0.00
    1   18    0      1.00      0.00
    2   18    0      0.60      0.00
    3   18    0     -0.58      0.00
    4   18    0      0.93      0.00
   -5   19    0     -0.71      0.00
   -4   19    0      0.16      0.00
   -3   19    0      0.91      0.00
   -2   19    0     -0.09      0.00
   -1   19    0     -0.61      0.00
    0   19    0     -0.38      0.00
    1   19    0     -0.60      0.00
    2   19    0      0.73      0.00
   -2  -19    1      0.27      0.00
   -1  -19    1      1.40      0.00
    0  -19    1     -0.24      0.00
    1  -19    1     -0.39      0.00
    2  -19    1     -1.10      0.00
    3  -19    1     -0.96      0.00
    4  -19    1      0.52      0.00
    5  -19    1     -0.53      0.00
   -4  -18    1      0.31      0.00
   -3  -18    1      1.33      0.00
   -2  -18    1     -0.54      0.00
   -1  -18    1     -0.70      0.00
    0  -18    1      0.74      0.00
    1  -18    1      1.21      0.00
    2  -18    1      1.16      0.00
    3  -18    1     -0.94      0.00
    4  -18    1     -0.55      0.00
    5  -18    1      1.66      0.00
    6  -18    1     -0.16      0.00
    7  -18    1     -0.07      0.00
   -6  -17    1      1.16      0.00
   -5  -17    1      0.83      0.00
   -4  -17    1     -0.93      0.00
   -3  -17    1     -0.85      0.00
   -2  -17    1      0.46      0.00
   -1  -17    1      2.28      0.00
    0  -17    1      0.27      0.00
    1  -17    1     -0.54      0.00
    2  -17    1      0.80      0.00
    3  -17    1      1.66      0.00
    4  -17    1     -0.83      0.00
    5  -17    1     -1.27      0.00
    6  -17    1      0.95      0.00
    7  -17    1     -1.13      0.00
    8  -17    1     -0.77      0.00
    9  -17    1      0.69      0.00
   -7  -16    1     -0.76      0.00
   -6  -16    1     -3.76      0.00
   -5  -16    1      1.27      0.00
   -4  -16    1      1.55      0.00
   -3  -16    1      1.03      0.00
   -2  -16    1     -1.05      0.00
   -1  -16    1     -2.35      0.00
    0  -16    1      1.53      0.00
    1  -16    1      0.86      0.00
    2  -16    1     -0.68      0.00
    3  -16    1     -0.27      0.00
    4  -16    1      1.20      0.00
    5  -16    1      0.09      0.00
    6  -16    1     -0.56      0.00
    7  -16    1      1.05      0.00
    8  -16    1     -0.23      0.00
    9  -16    1     -0.97      0.00
   10  -16    1     -0.74      0.00
   -8  -15    1     -0.27      0.00
   -7  -15    1      2.44      0.00
   -6  -15    1      1.58      0.00
   -5  -15    1     -3.43      0.00
   -4  -15    1     -1.04      0.00
   -3  -15    1     -1.10      0.00
   -2  -15    1      0.89      0.00
   -1  -15    1      0.33      0.00
    0  -15    1     -2.29      0.00
    1  -15    1     -0.26      0.00
    2  -15    1      0.69      0.00
    3  -15    1      0.29      0.00
    4  -15    1     -0.11      0.00
    5  -15    1      0.43      0.00
    6  -15    1      0.05      0.00
    7  -15    1     -0.72      0.00
    8  -15    1     -0.42      0.00
    9  -15    1      1.07      0.00
   10  -15    1      0.06      0.00
   11  -15    1     -0.34      0.00
   -9  -14    1     -0.41      0.00
   -8  -14    1      0.40      0.00
   -7  -14    1     -0.56      0.00
   -6  -14    1      0.31      0.00
   -5  -14    1      1.25      0.00
   -4  -14    1      0.17      0.00
   -3  -14    1      1.11      0.00
   -2  -14    1     -1.01      0.00
   -1  -14    1     -0.13      0.00
    0  -14    1      0.29      0.00
    1  -14    1     -0.84      0.00
    2  -14    1     -0.62      0.00
    3  -14    1      0.20      0.00
    4  -14    1      0.42      0.00
    5  -14    1     -0.29      0.00
    6  -14    1     -0.59      0.00
    7  -14    1      0.38      0.00
    8  -14    1      0.17      0.00
    9  -14    1     -1.49      0.00
   10  -14    1      0.34      0.00
   11  -14    1      0.34      0.00
  -10  -13    1     -0.56      0.00
   -9  -13    1      1.88      0.00
   -8  -13    1     -0.61      0.00
   -7  -13    1      0.64      0.00
   -6  -13    1      0.68      0.00
   -5  -13    1     -0.89      0.00
   -4  -13    1     -1.76      0.00
   -3  -13    1     -0.97      0.00
   -2  -13    1      0.99      0.00
   -1  -13    1      0.65      0.00
    0  -13    1      1.33      0.00
    1  -13    1      0.22      0.00
    2  -13    1     -0.22      0.00
    3  -13    1     -0.74      0.00
    4  -13    1     -0.22      0.00
    5  -13    1      1.44      0.00
    6  -13    1      0.87      0.00
    7  -13    1     -0.70      0.00
    8  -13    1      0.94      0.00
    9  -13    1      1.31      0.00
   10  -13    1     -0.39      0.00
   11  -13    1     -1.05      0.00
   12  -13    1     -0.51      0.00
  -11  -12    1      1.00      0.00
  -10  -12    1     -0.13      0.00
   -9  -12    1     -0.40      0.00
   -8  -12    1      1.26      0.00
   -7  -12    1     -0.45      0.00
   -6  -12    1      0.16      0.00
   -5  -12    1      1.45      0.00
   -4  -12    1      0.87      0.00
   -3  -12    1     -0.18      0.00
   -2  -12    1     -0.18      0.00
   -1  -12    1     -1.60      0.00
    0  -12    1     -0.23      0.00
    1  -12    1      1.44      0.00
    2  -12    1     -0.10      0.00
    3  -12    1      0.46      0.00
    4  -12    1     -0.58      0.00
    5  -12    1     -1.41      0.00
    6  -12    1      0.34      0.00
    7  -12    1      0.59      0.00
    8  -12    1     -1.08      0.00
    9  -12    1      0.96      0.00
   10  -12    1      1.51      0.00
   11  -12    1      0.20      0.00
   12  -12    1     -2.28      0.00
   13  -12    1     -1.10      0.00
  -11  -11    1     -1.46      0.00
  -10  -11    1      0.87      0.00
   -9  -11    1      0.67      0.00
   -8  -11    1      0.16      0.00
   -7  -11    1      0.40      0.00
   -6  -11    1     -1.21      0.00
   -5  -11    1     -0.29      0.00
   -4  -11    1     -0.28      0.00
   -3  -11    1     -0.59      0.00
   -2  -11    1      0.57      0.00
   -1  -11    1      2.61      0.00
    0  -11    1     -2.27      0.00
    1  -11    1     -0.81      0.00
    2  -11    1      0.81      0.00
    3  -11    1     -0.91      0.00
    4  -11    1     -0.15      0.00
    5  -11    1     -0.40      0.00
    6  -11    1     -0.22      0.00
    7  -11    1      0.39      0.00
    8  -11    1      0.51      0.00
    9  -11    1     -0.77      0.00
   10  -11    1      0.41      0.00
   11  -11    1      2.92      0.00
   12  -11    1      1.82      0.00
   13  -11    1     -0.34      0.00
  -12  -10    1      1.65      0.00
  -11  -10    1      1.15      0.00
  -10  -10    1     -0.39      0.00
   -9  -10    1      0.47      0.00
   -8  -10    1      0.17      0.00
   -7  -10    1      1.12      0.00
   -6  -10    1      0.67      0.00
   -5  -10    1     -0.53      0.00
   -4  -10    1      1.73      0.00
   -3  -10    1      1.35      0.00
   -2  -10    1     -1.98      0.00
   -1  -10    1     -0.96      0.00
    0  -10    1      2.65      0.00
    1  -10    1     -0.94      0.00
    2  -10    1     -0.44      0.00
    3  -10    1      1.36      0.00
    4  -10    1      1.30      0.00
    5  -10    1      0.51      0.00
    6  -10    1     -1.06      0.00
    7  -10    1     -0.01      0.00
    8  -10    1     -0.20      0.00
    9  -10    1     -0.70      0.00
   10  -10    1     -0.61      0.00
   11  -10    1     -2.52      0.00
   12  -10    1      0.25      0.00
   13  -10    1     -0.82      0.00
  -13   -9    1     -0.63      0.00
  -12   -9    1     -0.81      0.00
  -11   -9    1     -0.33      0.00
  -10   -9    1     -1.01      0.00
   -9   -9    1     -0.31      0.00
   -8   -9    1      0.09      0.00
   -7   -9    1     -1.06      0.00
   -6   -9    1      1.15      0.00
   -5   -9    1     -0.41      0.00
   -4   -9    1     -1.10      0.00
   -3   -9    1      0.33      0.00
   -2   -9    1      2.53      0.00
   -1   -9    1      0.03      0.00
    0   -9    1     -0.36      0.00
    1   -9    1      0.42      0.00
    2   -9    1     -0.76      0.00
    3   -9    1     -1.81      0.00
    4   -9    1     -1.52      0.00
    5   -9    1      0.61      0.00
    6   -9    1      0.73      0.00
    7   -9    1     -0.52      0.00
    8   -9    1      0.59      0.00
    9   -9    1      0.26      0.00
   10   -9    1     -0.92      0.00
   11   -9    1      1.11      0.00
   12   -9    1     -0.74      0.00
   13   -9    1      0.21      0.00
   14   -9    1     -1.62      0.00
  -13   -8    1      0.97      0.00
  -12   -8    1     -1.16      0.00
  -11   -8    1      1.18      0.00
  -10   -8    1      0.98      0.00
   -9   -8    1     -0.82      0.00
   -8   -8    1      0.40      0.00
   -7   -8    1     -0.31      0.00
   -6   -8    1     -0.77      0.00
   -5   -8    1     -0.25      0.00
   -4   -8    1     -0.61      0.00
   -3   -8    1      0.11      0.00
   -2   -8    1     -1.77      0.00
   -1   -8    1     -1.44      0.00
    0   -8    1      0.09      0.00
    1   -8    1      0.97      0.00
    2   -8    1      0.83      0.00
    3   -8    1      1.14      0.00
    4   -8    1      0.81      0.00
    5   -8    1     -1.13      0.00
    6   -8    1      0.22      0.00
    7   -8    1     -0.16      0.00
    8   -8    1     -0.40      0.00
    9   -8    1      0.55      0.00
   10   -8    1      0.51      0.00
   13   -8    1      0.54      0.00
   14   -8    1      0.36      0.00
  -13   -7    1     -0.42      0.00
  -12   -7    1      1.66      0.00
  -11   -7    1     -1.49      0.00
  -10   -7    1      0.52      0.00
   -9   -7    1      0.74      0.00
   -8   -7    1      0.73      0.00
   -7   -7    1      1.48      0.00
   -6   -7    1      0.58      0.00
   -5   -7    1      2.08      0.00
   -4   -7    1     -2.10      0.00
   -3   -7    1     -0.84      0.00
   -2   -7    1      3.04      0.00
   -1   -7    1      0.21      0.00
    0   -7    1     -3.04      0.00
    1   -7    1     -0.71      0.00
    2   -7    1      1.03      0.00
    3   -7    1      0.04      0.00
    4   -7    1      0.12      0.00
    5   -7    1      1.85      0.00
    6   -7    1     -0.48      0.00
    7   -7    1      1.29      0.00
    8   -7    1      0.00      0.00
    9   -7    1     -0.14      0.00
   10   -7    1      0.14      0.00
   11   -7    1     -0.19      0.00
   12   -7    1      0.38      0.00
   13   -7    1     -0.53      0.00
   14   -7    1      0.88      0.00
  -14   -6    1      2.34      0.00
  -13   -6    1     -1.69      0.00
  -12   -6    1     -1.55      0.00
  -11   -6    1      0.85      0.00
  -10   -6    1      0.13      0.00
   -9   -6    1     -0.45      0.00
   -8   -6    1     -1.40      0.00
   -7   -6    1     -0.04      0.00
   -6   -6    1     -2.05      0.00
   -5   -6    1     -0.88      0.00
   -4   -6    1      3.16      0.00
   -3   -6    1     -3.19      0.00
   -2   -6    1     -3.36      0.00
   -1   -6    1      3.67      0.00
    0   -6    1      1.53      0.00
    1   -6    1     -2.67      0.00
    2   -6    1     -4.36      0.00
    3   -6    1      0.50      0.00
    4   -6    1     -1.39      0.00
    5   -6    1     -2.15      0.00
    6   -6    1      0.64      0.00
    7   -6    1     -1.58      0.00
    8   -6    1      1.05      0.00
    9   -6    1      0.18      0.00
   10   -6    1     -0.36      0.00
   11   -6    1     -0.66      0.00
   12   -6    1     -0.98      0.00
   13   -6    1     -0.18      0.00
   14   -6    1     -0.93      0.00
   15   -6    1      0.17      0.00
  -14   -5    1     -0.82      0.00
  -13   -5    1      2.46      0.00
  -12   -5    1      1.11      0.00
  -11   -5    1     -1.08      0.00
  -10   -5    1     -0.50      0.00
   -9   -5    1      1.71      0.00
   -8   -5    1      0.18      0.00
   -7   -5    1      0.11      0.00
   -6   -5    1      2.94      0.00
   -5   -5    1     -2.08      0.00
   -4   -5    1     -2.42      0.00
   -3   -5    1      3.59      0.00
   -2   -5    1     -0.98      0.00
   -1   -5    1     -3.00      0.00
    0   -5    1     -0.23      0.00
    1   -5    1      1.98      0.00
    2   -5    1      3.34      0.00
    3   -5    1     -3.46      0.00
    4   -5    1      2.85      0.00
    5   -5    1      1.56      0.00
    6   -5    1     -0.57      0.00
    7   -5    1      1.22      0.00
    8   -5    1     -0.69      0.00
    9   -5    1      0.87      0.00
   10   -5    1      1.18      0.00
   11   -5    1      0.38      0.00
   12   -5    1     -0.10      0.00
   13   -5    1     -0.13      0.00
   14   -5    1     -0.26      0.00
   15   -5    1     -0.71      0.00
  -14   -4    1     -0.89      0.00
  -13   -4    1     -1.67      0.00
  -12   -4    1     -0.02      0.00
  -11   -4    1      1.62      0.00
  -10   -4    1     -1.15      0.00
   -9   -4    1     -1.28      0.00
   -8   -4    1      2.44      0.00
   -7   -4    1     -0.37      0.00
   -6   -4    1     -1.46      0.00
   -5   -4    1      2.73      0.00
   -4   -4    1      0.93      0.00
   -3   -4    1     -2.62      0.00
   -2   -4    1      0.23      0.00
   -1   -4    1      1.50      0.00
    0   -4    1      8.36      0.00
    1   -4    1     -6.45      0.00
    2   -4    1     -4.56      0.00
    3   -4    1      0.35      0.00
    4   -4    1     -5.73      0.00
    5   -4    1     -0.15      0.00
    6   -4    1      1.51      0.00
    7   -4    1     -0.48      0.00
    8   -4    1     -0.02      0.00
    9   -4    1     -0.58      0.00
   10   -4    1     -0.17      0.00
   11   -4    1      0.74      0.00
   12   -4    1      0.12      0.00
   13   -4    1      0.51      0.00
   14   -4    1      0.58      0.00
   15   -4    1      0.62      0.00
  -15   -3    1      0.18      0.00
  -14   -3    1      0.50      0.00
  -13   -3    1     -0.49      0.00
  -12   -3    1     -1.21      0.00
  -11   -3    1     -0.97      0.00
  -10   -3    1      1.81      0.00
   -9   -3    1     -1.06      0.00
   -8   -3    1     -2.84      0.00
   -7   -3    1      2.19      0.00
   -6   -3    1      1.23      0.00
   -5   -3    1     -2.02      0.00
   -4   -3    1      0.27      0.00
   -3   -3    1      4.10      0.00
   -2   -3    1      3.51      0.00
   -1   -3    1    -20.66      0.00
    0   -3    1     -9.05      0.00
    1   -3    1     23.53      0.00
    2   -3    1     -0.96      0.00
    3   -3    1      1.13      0.00
    4   -3    1      2.03      0.00
    5   -3    1     -4.36      0.00
    6   -3    1     -2.74      0.00
    7   -3    1     -0.09      0.00
    8   -3    1      0.41      0.00
    9   -3    1      0.49      0.00
   10   -3    1      0.25      0.00
   11   -3    1      0.06      0.00
   12   -3    1     -0.26      0.00
   13   -3    1     -0.93      0.00
   14   -3    1     -0.27      0.00
   15   -3    1     -0.68      0.00
  -15   -2    1     -0.27      0.00
  -14   -2    1      0.01      0.00
  -13   -2    1      1.13      0.00
  -12   -2    1      0.16      0.00
  -11   -2    1     -0.55      0.00
  -10   -2    1     -1.74      0.00
   -9   -2    1      1.94      0.00
   -8   -2    1      1.56      0.00
   -7   -2    1     -1.81      0.00
   -6   -2    1      0.59      0.00
   -5   -2    1     -0.17      0.00
   -4   -2    1     -2.44      0.00
   -3   -2    1     -6.65      0.00
   -2   -2    1     18.43      0.00
   -1   -2    1     48.89      0.00
    0   -2    1    -33.98      0.00
    1   -2    1    -29.90      0.00
    2   -2    1     17.92      0.00
    3   -2    1     -1.20      0.00
    4   -2    1      3.96      0.00
    5   -2    1      4.22      0.00
    6   -2    1      0.22      0.00
    7   -2    1     -0.94      0.00
    8   -2    1     -1.24      0.00
    9   -2    1      0.33      0.00
   10   -2    1      0.39      0.00
   11   -2    1      0.69      0.00
   12   -2    1      1.08      0.00
   13   -2    1      0.44      0.00
   14   -2    1      0.74      0.00
   15   -2    1      0.97      0.00
  -15   -1    1     -0.85      0.00
  -14   -1    1     -2.14      0.00
  -13   -1    1     -1.27      0.00
  -12   -1    1      0.26      0.00
  -11   -1    1      0.22      0.00
  -10   -1    1      0.43      0.00
   -9   -1    1     -2.42      0.00
   -8   -1    1     -0.16      0.00
   -7   -1    1      0.20      0.00
   -6   -1    1      0.16      0.00
   -5   -1    1      1.59      0.00
   -4   -1    1      1.41      0.00
   -3   -1    1      2.24      0.00
   -2   -1    1    -44.76      0.00
   -1   -1    1     -0.56      0.00
    1   -1    1    -11.41      0.00
    2   -1    1    -32.41      0.00
    3   -1    1     -0.20      0.00
    4   -1    1     -6.62      0.00
    5   -1    1     -0.27      0.00
    6   -1    1     -0.22      0.00
    7   -1    1      0.42      0.00
    8   -1    1     -0.13      0.00
    9   -1    1     -0.77      0.00
   10   -1    1      0.57      0.00
   11   -1    1     -0.84      0.00
   12   -1    1     -0.42      0.00
   13   -1    1     -1.22      0.00
   14   -1    1     -1.09      0.00
   15   -1    1      0.10      0.00
  -15    0    1      2.29      0.00
  -14    0    1      0.86      0.00
  -13    0    1     -1.06      0.00
  -12    0    1     -0.24      0.00
  -11    0    1      0.36      0.00
  -10    0    1      0.64      0.00
   -9    0    1      0.91      0.00
   -8    0    1     -1.01      0.00
   -7    0    1     -0.05      0.00
   -6    0    1     -1.77      0.00
   -5    0    1      1.73      0.00
   -4    0    1     -0.78      0.00
   -3    0    1      8.53      0.00
   -2    0    1     34.17      0.00
   -1    0    1    -64.72      0.00
    0    0    1    -42.24      0.00
    1    0    1     71.87      0.00
    2    0    1     19.36      0.00
    3    0    1     -2.85      0.00
    4    0    1      1.35      0.00
    5    0    1     -1.19      0.00
    6    0    1      1.48      0.00
    7    0    1     -1.41      0.00
    8    0    1      0.86      0.00
    9    0    1     -1.19      0.00
   10    0    1     -1.09      0.00
   11    0    1      0.44      0.00
   12    0    1      0.00      0.00
   13    0    1      2.08      0.00
   14    0    1     -0.30      0.00
   15    0    1      0.09      0.00
  -15    1    1     -1.22      0.00
  -14    1    1      1.69      0.00
  -13    1    1      0.50      0.00
  -12    1    1     -0.62      0.00
  -11    1    1     -0.76      0.00
  -10    1    1     -0.55      0.00
   -9    1    1      1.09      0.00
   -8    1    1      0.93      0.00
   -7    1    1      1.20      0.00
   -6    1    1     -1.47      0.00
   -5    1    1     -4.26      0.00
   -4    1    1      4.45      0.00
   -2    1    1      7.59      0.00
   -1    1    1     52.84      0.00
    1    1    1    -49.04      0.00
    2    1    1      5.68      0.00
    3    1    1      2.77      0.00
    4    1    1      0.52      0.00
    5    1    1     -0.86      0.00
    6    1    1      1.24      0.00
    7    1    1      1.95      0.00
    8    1    1     -1.64      0.00
    9    1    1      1.71      0.00
   10    1    1      0.43      0.00
   11    1    1      0.13      0.00
   12    1    1     -0.91      0.00
   13    1    1     -1.00      0.00
   14    1    1      1.50      0.00
   15    1    1     -0.25      0.00
  -15    2    1     -0.11      0.00
  -14    2    1     -1.49      0.00
  -13    2    1      0.95      0.00
  -12    2    1      0.10      0.00
  -11    2    1      0.42      0.00
  -10    2    1     -1.00      0.00
   -9    2    1     -1.66      0.00
   -8    2    1     -0.41      0.00
   -7    2    1     -0.13      0.00
   -6    2    1      5.06      0.00
   -5    2    1     -2.14      0.00
   -4    2    1     -7.38      0.00
   -3    2    1      4.02      0.00
   -2    2    1    -13.41      0.00
   -1    2    1     13.71      0.00
    0    2    1     48.96      0.00
    1    2    1      0.82      0.00
    2    2    1     -3.04      0.00
    3    2    1     -2.25      0.00
    4    2    1      1.75      0.00
    5    2    1      1.06      0.00
    6    2    1     -3.87      0.00
    7    2    1     -0.38      0.00
    8    2    1      0.97      0.00
    9    2    1     -1.95      0.00
   10    2    1     -0.65      0.00
   11    2    1      0.15      0.00
   12    2    1      0.55      0.00
   13    2    1     -0.93      0.00
   14    2    1     -0.28      0.00
  -15    3    1      1.54      0.00
  -14    3    1     -0.21      0.00
  -13    3    1     -0.91      0.00
  -12    3    1      0.72      0.00
  -11    3    1      0.59      0.00
  -10    3    1      1.73      0.00
   -9    3    1      0.36      0.00
   -8    3    1      0.18      0.00
   -7    3    1     -0.88      0.00
   -6    3    1     -2.73      0.00
   -5    3    1      6.73      0.00
   -4    3    1      0.62      0.00
   -3    3    1     -5.02      0.00
   -2    3    1     -1.34      0.00
   -1    3    1    -24.20      0.00
    0    3    1      0.76      0.00
    1    3    1      7.17      0.00
    2    3    1     -1.84      0.00
    3    3    1      3.60      0.00
    4    3    1     -4.52      0.00
    5    3    1      1.55      0.00
    6    3    1      4.27      0.00
    7    3    1     -0.79      0.00
    8    3    1      0.25      0.00
    9    3    1      1.38      0.00
   10    3    1     -0.66      0.00
   11    3    1     -1.42      0.00
   12    3    1      0.00      0.00
   13    3    1      0.04      0.00
   14    3    1     -1.15      0.00
  -15    4    1     -0.52      0.00
  -14    4    1      1.98      0.00
  -13    4    1      0.22      0.00
  -12    4    1     -1.26      0.00
  -11    4    1     -0.47      0.00
  -10    4    1     -0.30      0.00
   -9    4    1      0.76      0.00
   -8    4    1     -0.64      0.00
   -7    4    1      0.16      0.00
   -6    4    1     -0.62      0.00
   -5    4    1     -4.89      0.00
   -4    4    1      5.00      0.00
   -3    4    1      5.36      0.00
   -2    4    1      5.68      0.00
   -1    4    1      3.04      0.00
    0    4    1     -8.70      0.00
    1    4    1      7.73      0.00
    2    4    1     -4.77      0.00
    3    4    1     -2.43      0.00
    4    4    1      4.47      0.00
    5    4    1     -3.26      0.00
    6    4    1     -1.81      0.00
    7    4    1      0.59      0.00
    8    4    1     -1.10      0.00
    9    4    1      0.41      0.00
   10    4    1      1.61      0.00
   11    4    1      0.32      0.00
   12    4    1     -1.89      0.00
   13    4    1     -0.37      0.00
   14    4    1      0.50      0.00
  -15    5    1     -1.15      0.00
  -14    5    1     -1.60      0.00
  -13    5    1      1.59      0.00
  -12    5    1      2.08      0.00
  -11    5    1      0.04      0.00
  -10    5    1     -0.13      0.00
   -9    5    1     -0.44      0.00
   -8    5    1      0.54      0.00
   -7    5    1     -0.42      0.00
   -6    5    1      0.42      0.00
   -5    5    1      0.53      0.00
   -4    5    1     -6.03      0.00
   -3    5    1     -2.66      0.00
   -2    5    1      1.87      0.00
   -1    5    1      6.55      0.00
    0    5    1     -3.87      0.00
    1    5    1     -3.47      0.00
    2    5    1      8.92      0.00
    3    5    1     -3.27      0.00
    4    5    1     -2.71      0.00
    5    5    1      4.56      0.00
    6    5    1      0.68      0.00
    7    5    1      0.75      0.00
    8    5    1     -0.58      0.00
    9    5    1     -1.93      0.00
   10    5    1     -1.13      0.00
   11    5    1     -0.28      0.00
   12    5    1      1.63      0.00
   13    5    1     -1.02      0.00
   14    5    1     -0.75      0.00
  -15    6    1      0.89      0.00
  -14    6    1     -0.16      0.00
  -13    6    1     -1.70      0.00
  -12    6    1     -0.45      0.00
  -11    6    1      0.61      0.00
  -10    6    1      0.26      0.00
   -9    6    1     -0.15      0.00
   -8    6    1     -0.18      0.00
   -7    6    1      0.71      0.00
   -6    6    1     -0.28      0.00
   -5    6    1      0.76      0.00
   -4    6    1      2.39      0.00
   -3    6    1     -2.25      0.00
   -2    6    1     -6.37      0.00
   -1    6    1     -1.42      0.00
    0    6    1      4.81      0.00
    1    6    1     -6.36      0.00
    2    6    1     -3.95      0.00
    3    6    1      5.71      0.00
    4    6    1     -1.49      0.00
    5    6    1     -2.42      0.00
    6    6    1      0.94      0.00
    7    6    1      0.52      0.00
    8    6    1      1.65      0.00
    9    6    1     -0.04      0.00
   10    6    1      0.61      0.00
   11    6    1     -0.35      0.00
   12    6    1     -2.15      0.00
   13    6    1      1.24      0.00
  -15    7    1     -0.89      0.00
  -14    7    1      0.43      0.00
  -13    7    1      0.26      0.00
  -12    7    1      0.55      0.00
  -11    7    1      0.58      0.00
  -10    7    1     -0.74      0.00
   -9    7    1      0.41      0.00
   -8    7    1     -0.80      0.00
   -7    7    1     -1.09      0.00
   -6    7    1      0.44      0.00
   -5    7    1     -1.13      0.00
   -4    7    1     -1.08      0.00
   -3    7    1      2.20      0.00
   -2    7    1      2.99      0.00
   -1    7    1     -3.04      0.00
    0    7    1      0.28      0.00
    1    7    1      5.17      0.00
    2    7    1     -2.63      0.00
    3    7    1     -3.10      0.00
    4    7    1      2.70      0.00
    5    7    1     -0.65      0.00
    6    7    1     -0.95      0.00
    7    7    1     -2.08      0.00
    8    7    1     -0.02      0.00
    9    7    1      0.89      0.00
   10    7    1     -0.70      0.00
   11    7    1      1.33      0.00
   12    7    1      0.33      0.00
   13    7    1     -1.61      0.00
  -14    8    1     -2.09      0.00
  -13    8    1     -0.33      0.00
  -12    8    1     -1.71      0.00
  -11    8    1      0.56      0.00
  -10    8    1      2.13      0.00
   -9    8    1      0.07      0.00
   -8    8    1      1.96      0.00
   -7    8    1      0.70      0.00
   -6    8    1     -1.50      0.00
   -5    8    1      0.38      0.00
   -4    8    1     -0.10      0.00
   -3    8    1     -2.81      0.00
   -2    8    1     -1.23      0.00
   -1    8    1      2.43      0.00
    0    8    1     -1.60      0.00
    1    8    1     -2.58      0.00
    2    8    1      2.09      0.00
    3    8    1      0.33      0.00
    4    8    1      0.17      0.00
    5    8    1      1.31      0.00
    6    8    1      1.74      0.00
    7    8    1      1.61      0.00
    8    8    1     -1.49      0.00
    9    8    1     -0.26      0.00
   10    8    1      0.00      0.00
   11    8    1      0.43      0.00
   12    8    1      1.35      0.00
   13    8    1     -0.35      0.00
  -14    9    1      2.33      0.00
  -13    9    1     -1.33      0.00
  -12    9    1      1.53      0.00
  -11    9    1     -0.82      0.00
  -10    9    1     -0.75      0.00
   -9    9    1      0.23      0.00
   -8    9    1     -1.18      0.00
   -7    9    1      1.01      0.00
   -6    9    1      1.68      0.00
   -5    9    1     -0.40      0.00
   -4    9    1      0.15      0.00
   -3    9    1      1.53      0.00
   -2    9    1     -0.61      0.00
   -1    9    1     -2.22      0.00
    0    9    1      1.39      0.00
    1    9    1      2.00      0.00
    2    9    1     -2.54      0.00
    3    9    1     -1.40      0.00
    4    9    1     -1.05      0.00
    5    9    1     -0.32      0.00
    6    9    1     -1.06      0.00
    7    9    1      1.15      0.00
    8    9    1      1.59      0.00
    9    9    1      0.46      0.00
   10    9    1     -0.68      0.00
   11    9    1     -2.87      0.00
   12    9    1     -0.22      0.00
  -14   10    1     -0.49      0.00
  -13   10    1      1.30      0.00
  -12   10    1     -2.14      0.00
  -11   10    1      0.48      0.00
  -10   10    1      0.72      0.00
   -9   10    1     -0.20      0.00
   -8   10    1     -0.46      0.00
   -7   10    1     -1.51      0.00
   -6   10    1     -0.83      0.00
   -5   10    1     -0.48      0.00
   -4   10    1      0.10      0.00
   -3   10    1      0.21      0.00
   -2   10    1      1.33      0.00
   -1   10    1      2.01      0.00
    0   10    1     -1.32      0.00
    1   10    1      0.43      0.00
    2   10    1      2.75      0.00
    3   10    1      0.02      0.00
    4   10    1      0.15      0.00
    5   10    1      1.09      0.00
    6   10    1     -0.48      0.00
    7   10    1     -1.25      0.00
    8   10    1     -0.21      0.00
    9   10    1      0.01      0.00
   10   10    1      1.59      0.00
   11   10    1      0.80      0.00
   12   10    1     -2.04      0.00
  -13   11    1      0.93      0.00
  -12   11    1      0.63      0.00
  -11   11    1     -0.99      0.00
  -10   11    1     -0.42      0.00
   -9   11    1      0.97      0.00
   -8   11    1      0.26      0.00
   -7   11    1      0.22      0.00
   -6   11    1      0.94      0.00
   -5   11    1      0.98      0.00
   -4   11    1     -1.34      0.00
   -3   11    1     -1.22      0.00
   -2   11    1     -0.95      0.00
   -1   11    1     -0.13      0.00
    0   11    1      1.69      0.00
    1   11    1     -1.13      0.00
    2   11    1     -0.18      0.00
    3   11    1      0.75      0.00
    4   11    1     -1.43      0.00
    5   11    1     -0.75      0.00
    6   11    1      2.71      0.00
    7   11    1      0.26      0.00
    8   11    1     -0.45      0.00
    9   11    1     -0.06      0.00
   10   11    1     -0.91      0.00
   11   11    1      0.86      0.00
  -13   12    1     -0.80      0.00
  -12   12    1      2.19      0.00
  -11   12    1     -0.37      0.00
  -10   12    1     -0.85      0.00
   -9   12    1     -0.61      0.00
   -8   12    1      0.73      0.00
   -7   12    1     -0.46      0.00
   -6   12    1     -1.34      0.00
   -5   12    1      0.06      0.00
   -4   12    1      1.58      0.00
   -3   12    1      0.60      0.00
   -2   12    1     -0.12      0.00
   -1   12    1     -0.88      0.00
    0   12    1      0.34      0.00
    1   12    1      1.20      0.00
    2   12    1     -0.29      0.00
    3   12    1      0.38      0.00
    4   12    1      1.82      0.00
    5   12    1     -1.01      0.00
    6   12    1     -2.11      0.00
    7   12    1      2.21      0.00
    8   12    1      0.65      0.00
    9   12    1      0.16      0.00
   10   12    1      0.76      0.00
   11   12    1     -0.07      0.00
  -12   13    1      0.38      0.00
  -11   13    1      3.02      0.00
  -10   13    1      1.20      0.00
   -9   13    1     -0.23      0.00
   -8   13    1     -0.30      0.00
   -7   13    1      0.67      0.00
   -6   13    1      0.24      0.00
   -5   13    1     -0.49      0.00
   -4   13    1     -0.68      0.00
   -3   13    1      0.09      0.00
   -2   13    1      0.59      0.00
   -1   13    1      0.29      0.00
    0   13    1     -1.35      0.00
    1   13    1      0.10      0.00
    2   13    1      0.01      0.00
    3   13    1     -0.76      0.00
    4   13    1     -1.25      0.00
    5   13    1      1.34      0.00
    6   13    1      0.60      0.00
    7   13    1     -1.46      0.00
    8   13    1      0.62      0.00
    9   13    1     -0.48      0.00
   10   13    1      0.24      0.00
  -12   14    1     -2.83      0.00
  -11   14    1     -0.25      0.00
  -10   14    1      0.48      0.00
   -9   14    1      0.79      0.00
   -8   14    1     -0.07      0.00
   -7   14    1      0.68      0.00
   -6   14    1      0.15      0.00
   -5   14    1     -0.27      0.00
   -4   14    1      0.22      0.00
   -3   14    1     -0.30      0.00
   -2   14    1     -0.23      0.00
   -1   14    1      0.95      0.00
    0   14    1      1.56      0.00
    1   14    1     -0.71      0.00
    2   14    1     -0.31      0.00
    3   14    1      0.00      0.00
    4   14    1      0.56      0.00
    5   14    1     -0.59      0.00
    6   14    1      0.17      0.00
    7   14    1      1.04      0.00
    8   14    1      1.49      0.00
    9   14    1     -0.02      0.00
  -11   15    1     -0.94      0.00
  -10   15    1      0.86      0.00
   -9   15    1      0.37      0.00
   -8   15    1     -0.29      0.00
   -7   15    1     -1.40      0.00
   -6   15    1      0.99      0.00
   -5   15    1      0.29      0.00
   -4   15    1     -0.27      0.00
   -3   15    1      0.71      0.00
   -2   15    1      0.58      0.00
   -1   15    1     -0.53      0.00
    0   15    1      0.09      0.00
    1   15    1      1.63      0.00
    2   15    1      0.27      0.00
    3   15    1     -0.53      0.00
    4   15    1     -0.90      0.00
    5   15    1      0.02      0.00
    6   15    1      0.02      0.00
    7   15    1     -0.53      0.00
    8   15    1     -0.83      0.00
  -10   16    1     -0.94      0.00
   -9   16    1      0.01      0.00
   -8   16    1      1.65      0.00
   -7   16    1      0.76      0.00
   -6   16    1     -0.83      0.00
   -5   16    1      1.11      0.00
   -4   16    1     -0.09      0.00
   -3   16    1     -1.33      0.00
   -2   16    1     -0.63      0.00
   -1   16    1     -0.24      0.00
    0   16    1     -1.20      0.00
    1   16    1     -1.24      0.00
    2   16    1     -0.33      0.00
    3   16    1      0.14      0.00
    4   16    1      0.50      0.00
    5   16    1      1.31      0.00
    6   16    1      1.02      0.00
    7   16    1     -0.06      0.00
   -9   17    1     -1.11      0.00
   -8   17    1     -1.68      0.00
   -7   17    1      0.35      0.00
   -6   17    1      0.12      0.00
   -5   17    1     -0.24      0.00
   -4   17    1      1.57      0.00
   -3   17    1      0.60      0.00
   -2   17    1     -0.81      0.00
   -1   17    1     -0.22      0.00
    0   17    1     -0.26      0.00
    1   17    1      0.12      0.00
    2   17    1      0.27      0.00
    3   17    1     -0.60      0.00
    4   17    1     -0.67      0.00
    5   17    1     -1.91      0.00
    6   17    1      0.62      0.00
   -8   18    1      0.28      0.00
   -7   18    1     -0.08      0.00
   -6   18    1      0.14      0.00
   -5   18    1     -0.21      0.00
   -4   18    1      0.32      0.00
   -3   18    1      1.79      0.00
   -2   18    1      1.31      0.00
   -1   18    1      0.38      0.00
    0   18    1      0.79      0.00
    1   18    1     -0.26      0.00
    2   18    1      0.46      0.00
    3   18    1      0.99      0.00
    4   18    1      0.24      0.00
   -5   19    1     -0.96      0.00
   -4   19    1     -1.65      0.00
   -3   19    1     -0.32      0.00
   -2   19    1      0.81      0.00
   -1   19    1      0.74      0.00
    0   19    1      0.20      0.00
    1   19    1      0.45      0.00
    2   19    1      0.03      0.00
   -2  -19    2     -1.40      0.00
   -1  -19    2     -0.72      0.00
    0  -19    2      0.88      0.00
    1  -19    2      0.29      0.00
    2  -19    2      0.75      0.00
    3  -19    2     -0.73      0.00
    4  -19    2     -0.81      0.00
    5  -19    2      0.56      0.00
   -4  -18    2     -0.24      0.00
   -3  -18    2     -0.49      0.00
   -2  -18    2      0.93      0.00
   -1  -18    2      1.08      0.00
    0  -18    2     -0.22      0.00
    1  -18    2     -0.47      0.00
    2  -18    2      0.50      0.00
    3  -18    2      1.77      0.00
    4  -18    2     -0.27      0.00
    5  -18    2     -0.58      0.00
    6  -18    2      1.40      0.00
    7  -18    2     -0.27      0.00
   -6  -17    2     -3.31      0.00
   -5  -17    2      1.26      0.00
   -4  -17    2      1.17      0.00
   -3  -17    2      1.13      0.00
   -2  -17    2     -1.29      0.00
   -1  -17    2     -2.41      0.00
    0  -17    2      1.12      0.00
    1  -17    2      1.21      0.00
    2  -17    2     -0.65      0.00
    3  -17    2     -0.37      0.00
    4  -17    2      1.03      0.00
    5  -17    2     -0.53      0.00
    6  -17    2     -1.51      0.00
    7  -17    2      0.24      0.00
    8  -17    2     -0.97      0.00
    9  -17    2     -1.76      0.00
   -7  -16    2      3.59      0.00
   -6  -16    2      1.26      0.00
   -5  -16    2     -3.72      0.00
   -4  -16    2     -0.34      0.00
   -3  -16    2     -0.65      0.00
   -2  -16    2      1.81      0.00
   -1  -16    2      0.39      0.00
    0  -16    2     -3.22      0.00
    1  -16    2     -1.42      0.00
    2  -16    2      0.67      0.00
    3  -16    2      0.20      0.00
    4  -16    2     -0.03      0.00
    5  -16    2      0.95      0.00
    6  -16    2      0.46      0.00
    7  -16    2     -0.23      0.00
    8  -16    2      0.57      0.00
    9  -16    2      1.49      0.00
   10  -16    2     -0.57      0.00
   -8  -15    2      0.67      0.00
   -7  -15    2     -1.91      0.00
   -6  -15    2      2.51      0.00
   -5  -15    2      1.54      0.00
   -4  -15    2     -1.05      0.00
   -3  -15    2      0.58      0.00
   -2  -15    2     -0.86      0.00
   -1  -15    2      1.06      0.00
    0  -15    2      2.41      0.00
    1  -15    2      0.61      0.00
    2  -15    2     -0.61      0.00
    3  -15    2      0.20      0.00
    4  -15    2      0.17      0.00
    5  -15    2     -0.52      0.00
    6  -15    2     -0.26      0.00
    7  -15    2      0.19      0.00
    8  -15    2     -0.18      0.00
    9  -15    2     -0.97      0.00
   10  -15    2      2.11      0.00
   11  -15    2      1.29      0.00
   -9  -14    2      1.32      0.00
   -8  -14    2     -1.44      0.00
   -7  -14    2     -0.30      0.00
   -6  -14    2     -1.20      0.00
   -5  -14    2      0.98      0.00
   -4  -14    2     -0.54      0.00
   -3  -14    2     -1.07      0.00
   -2  -14    2      0.51      0.00
   -1  -14    2     -0.22      0.00
    0  -14    2     -0.38      0.00
    1  -14    2      0.30      0.00
    2  -14    2      0.53      0.00
    3  -14    2     -0.51      0.00
    4  -14    2     -0.15      0.00
    5  -14    2      0.67      0.00
    6  -14    2      0.21      0.00
    7  -14    2     -0.45      0.00
    8  -14    2      0.92      0.00
    9  -14    2      0.60      0.00
   10  -14    2     -1.70      0.00
   11  -14    2     -1.11      0.00
  -10  -13    2     -0.51      0.00
   -9  -13    2      0.86      0.00
   -8  -13    2      2.24      0.00
   -7  -13    2     -0.03      0.00
   -6  -13    2     -1.19      0.00
   -5  -13    2     -0.61      0.00
   -4  -13    2      0.81      0.00
   -3  -13    2     -0.17      0.00
   -2  -13    2     -0.51      0.00
   -1  -13    2     -1.23      0.00
    0  -13    2     -0.35      0.00
    1  -13    2     -0.26      0.00
    2  -13    2     -0.47      0.00
    3  -13    2      0.67      0.00
    4  -13    2     -0.35      0.00
    5  -13    2     -0.78      0.00
    6  -13    2      0.20      0.00
    7  -13    2      0.25      0.00
    8  -13    2     -0.94      0.00
    9  -13    2      1.25      0.00
   10  -13    2      1.92      0.00
   11  -13    2      0.93      0.00
   12  -13    2     -1.16      0.00
  -11  -12    2     -0.86      0.00
  -10  -12    2      1.28      0.00
   -9  -12    2     -0.31      0.00
   -8  -12    2     -0.24      0.00
   -7  -12    2      0.68      0.00
   -6  -12    2      0.35      0.00
   -5  -12    2      0.17      0.00
   -4  -12    2      0.19      0.00
   -3  -12    2      0.41      0.00
   -2  -12    2      0.96      0.00
   -1  -12    2      2.00      0.00
    0  -12    2     -1.48      0.00
    1  -12    2      0.65      0.00
    2  -12    2      0.84      0.00
    3  -12    2     -0.67      0.00
    4  -12    2      0.72      0.00
    5  -12    2     -0.07      0.00
    6  -12    2     -0.29      0.00
    7  -12    2      0.19      0.00
    8  -12    2     -0.09      0.00
    9  -12    2     -1.65      0.00
   10  -12    2     -0.42      0.00
   11  -12    2      1.53      0.00
   12  -12    2      1.25      0.00
  -12  -11    2      0.80      0.00
  -11  -11    2     -0.04      0.00
  -10  -11    2     -1.09      0.00
   -9  -11    2      0.57      0.00
   -8  -11    2      0.13      0.00
   -7  -11    2      0.05      0.00
   -6  -11    2     -0.54      0.00
   -5  -11    2     -1.44      0.00
   -4  -11    2      0.25      0.00
   -3  -11    2      0.09      0.00
   -2  -11    2     -2.22      0.00
   -1  -11    2     -0.21      0.00
    0  -11    2      1.59      0.00
    1  -11    2     -2.93      0.00
    2  -11    2     -0.54      0.00
    3  -11    2      0.82      0.00
    4  -11    2      0.09      0.00
    5  -11    2      0.38      0.00
    6  -11    2     -0.76      0.00
    7  -11    2     -0.11      0.00
    8  -11    2      0.38      0.00
    9  -11    2     -0.02      0.00
   10  -11    2     -0.62      0.00
   11  -11    2     -1.83      0.00
   12  -11    2      0.92      0.00
   13  -11    2     -0.36      0.00
  -12  -10    2     -0.10      0.00
  -11  -10    2      0.65      0.00
  -10  -10    2      0.16      0.00
   -9  -10    2     -0.12      0.00
   -8  -10    2      0.92      0.00
   -7  -10    2      0.09      0.00
   -6  -10    2      2.00      0.00
   -5  -10    2      0.49      0.00
   -4  -10    2     -0.74      0.00
   -3  -10    2      1.44      0.00
   -2  -10    2      2.54      0.00
   -1  -10    2     -1.39      0.00
    0  -10    2      0.91      0.00
    1  -10    2      1.83      0.00
    2  -10    2     -1.26      0.00
    3  -10    2     -0.93      0.00
    4  -10    2     -0.23      0.00
    5  -10    2      1.23      0.00
    6  -10    2      1.06      0.00
    7  -10    2     -0.22      0.00
    8  -10    2      0.58      0.00
    9  -10    2      0.31      0.00
   10  -10    2     -0.96      0.00
   11  -10    2      0.12      0.00
   12  -10    2     -1.70      0.00
   13  -10    2     -0.14      0.00
  -13   -9    2     -1.06      0.00
  -12   -9    2     -1.64      0.00
  -11   -9    2      0.32      0.00
  -10   -9    2      0.39      0.00
   -9   -9    2     -0.91      0.00
   -8   -9    2     -0.30      0.00
   -7   -9    2     -0.69      0.00
   -6   -9    2     -1.83      0.00
   -5   -9    2      0.17      0.00
   -4   -9    2     -0.85      0.00
   -3   -9    2     -1.40      0.00
   -2   -9    2      0.01      0.00
   -1   -9    2      0.63      0.00
    0   -9    2     -0.84      0.00
    1   -9    2      1.49      0.00
    2   -9    2      1.39      0.00
    3   -9    2      0.05      0.00
    4   -9    2     -0.73      0.00
    5   -9    2     -1.43      0.00
    6   -9    2      0.51      0.00
    7   -9    2      0.44      0.00
    8   -9    2      0.06      0.00
    9   -9    2      1.65      0.00
   10   -9    2      1.83      0.00
   11   -9    2      0.01      0.00
   12   -9    2      0.52      0.00
   13   -9    2      0.61      0.00
   14   -9    2     -0.51      0.00
  -13   -8    2      2.11      0.00
  -12   -8    2      1.68      0.00
  -11   -8    2     -0.93      0.00
  -10   -8    2      1.61      0.00
   -9   -8    2      1.66      0.00
   -8   -8    2      0.72      0.00
   -7   -8    2      1.71      0.00
   -6   -8    2      0.34      0.00
   -5   -8    2      0.97      0.00
   -4   -8    2     -0.56      0.00
   -3   -8    2     -0.98      0.00
   -2   -8    2     -0.53      0.00
   -1   -8    2     -0.11      0.00
    0   -8    2     -3.13      0.00
    1   -8    2     -2.76      0.00
    2   -8    2      0.05      0.00
    3   -8    2      0.69      0.00
    4   -8    2      1.04      0.00
    5   -8    2      0.25      0.00
    6   -8    2     -0.97      0.00
    7   -8    2      0.27      0.00
    8   -8    2     -0.73      0.00
    9   -8    2     -1.33      0.00
   10   -8    2     -0.72      0.00
  -13   -7    2     -2.48      0.00
  -12   -7    2     -0.46      0.00
  -11   -7    2      0.29      0.00
  -10   -7    2     -1.61      0.00
   -9   -7    2     -0.60      0.00
   -8   -7    2     -0.81      0.00
   -7   -7    2      0.27      0.00
   -6   -7    2     -0.66      0.00
   -5   -7    2     -0.36      0.00
   -4   -7    2      2.88      0.00
   -3   -7    2     -0.53      0.00
   -2   -7    2     -0.53      0.00
   -1   -7    2      3.38      0.00
    0   -7    2      4.29      0.00
    1   -7    2     -0.97      0.00
    2   -7    2     -2.92      0.00
    3   -7    2      0.06      0.00
    4   -7    2     -0.99      0.00
    5   -7    2      0.76      0.00
    6   -7    2      0.55      0.00
    7   -7    2     -0.31      0.00
    8   -7    2      1.51      0.00
    9   -7    2      0.47      0.00
   10   -7    2     -0.24      0.00
   11   -7    2     -1.49      0.00
   12   -7    2     -1.10      0.00
   13   -7    2     -1.10      0.00
   14   -7    2     -1.02      0.00
  -14   -6    2      0.39      0.00
  -13   -6    2      2.81      0.00
  -12   -6    2      0.40      0.00
  -11   -6    2     -0.13      0.00
  -10   -6    2      0.15      0.00
   -9   -6    2      0.43      0.00
   -8   -6    2     -0.49      0.00
   -7   -6    2     -0.60      0.00
   -6   -6    2      1.81      0.00
   -5   -6    2     -3.24      0.00
   -4   -6    2     -2.60      0.00
   -3   -6    2      1.47      0.00
   -2   -6    2     -2.73      0.00
   -1   -6    2     -5.84      0.00
    0   -6    2     -1.45      0.00
    1   -6    2      3.67      0.00
    2   -6    2      1.09      0.00
    3   -6    2     -3.47      0.00
    4   -6    2      0.97      0.00
    5   -6    2     -1.47      0.00
    6   -6    2     -0.01      0.00
    7   -6    2     -0.31      0.00
    8   -6    2     -1.33      0.00
    9   -6    2      0.60      0.00
   10   -6    2      1.25      0.00
   11   -6    2      1.44      0.00
   12   -6    2      0.32      0.00
   13   -6    2      0.59      0.00
   14   -6    2     -1.64      0.00
  -14   -5    2     -1.89      0.00
  -13   -5    2     -1.17      0.00
  -12   -5    2      0.60      0.00
  -11   -5    2      1.41      0.00
  -10   -5    2     -0.22      0.00
   -9   -5    2      0.44      0.00
   -8   -5    2      2.49      0.00
   -7   -5    2     -0.36      0.00
   -6   -5    2     -0.03      0.00
   -5   -5    2      3.99      0.00
   -4   -5    2      0.14      0.00
   -3   -5    2     -1.38      0.00
   -2   -5    2      2.96      0.00
   -1   -5    2      1.50      0.00
    0   -5    2     -1.19      0.00
    1   -5    2     -6.03      0.00
    2   -5    2      1.19      0.00
    3   -5    2      2.14      0.00
    4   -5    2     -1.83      0.00
    5   -5    2      1.35      0.00
    6   -5    2      0.24      0.00
    7   -5    2      0.45      0.00
    8   -5    2      0.20      0.00
    9   -5    2     -0.42      0.00
   10   -5    2     -0.66      0.00
   11   -5    2     -0.06      0.00
   12   -5    2     -0.29      0.00
   13   -5    2      0.24      0.00
   14   -5    2      2.09      0.00
   15   -5    2     -0.03      0.00
  -14   -4    2      0.26      0.00
  -13   -4    2     -1.49      0.00
  -12   -4    2     -1.75      0.00
  -11   -4    2     -1.31      0.00
  -10   -4    2      0.63      0.00
   -9   -4    2     -2.11      0.00
   -8   -4    2     -1.77      0.00
   -7   -4    2      1.90      0.00
   -6   -4    2     -0.67      0.00
   -5   -4    2     -2.99      0.00
   -4   -4    2      0.32      0.00
   -3   -4    2      1.75      0.00
   -2   -4    2      1.60      0.00
   -1   -4    2     -3.46      0.00
    0   -4    2      1.84      0.00
    1   -4    2      9.09      0.00
    2   -4    2     -3.35      0.00
    3   -4    2      1.28      0.00
    4   -4    2     -0.05      0.00
    5   -4    2     -2.63      0.00
    6   -4    2     -2.19      0.00
    7   -4    2     -0.16      0.00
    8   -4    2      0.05      0.00
    9   -4    2      0.22      0.00
   10   -4    2      0.89      0.00
   11   -4    2      0.49      0.00
   12   -4    2      0.17      0.00
   13   -4    2     -1.40      0.00
   14   -4    2     -0.55      0.00
   15   -4    2      0.98      0.00
  -15   -3    2     -0.46      0.00
  -14   -3    2      0.68      0.00
  -13   -3    2      1.56      0.00
  -12   -3    2      0.85      0.00
  -11   -3    2     -0.25      0.00
  -10   -3    2     -0.48      0.00
   -9   -3    2      2.20      0.00
   -8   -3    2      0.29      0.00
   -7   -3    2     -1.80      0.00
   -6   -3    2      0.90      0.00
   -5   -3    2      0.56      0.00
   -4   -3    2     -3.15      0.00
   -3   -3    2     -5.05      0.00
   -2   -3    2      5.84      0.00
   -1   -3    2     18.60      0.00
    0   -3    2    -19.10      0.00
    1   -3    2    -11.81      0.00
    2   -3    2      4.78      0.00
    3   -3    2     -3.66      0.00
    4   -3    2      3.37      0.00
    5   -3    2      2.70      0.00
    6   -3    2      1.02      0.00
    7   -3    2     -1.70      0.00
    8   -3    2     -0.58      0.00
    9   -3    2     -0.38      0.00
   10   -3    2     -0.32      0.00
   11   -3    2      0.17      0.00
   12   -3    2      0.95      0.00
   13   -3    2      0.52      0.00
   14   -3    2     -1.02      0.00
   15   -3    2     -0.15      0.00
  -15   -2    2     -0.52      0.00
  -14   -2    2     -2.07      0.00
  -13   -2    2     -1.47      0.00
  -12   -2    2     -0.15      0.00
  -11   -2    2      0.28      0.00
  -10   -2    2      0.03      0.00
   -9   -2    2     -1.23      0.00
   -8   -2    2      1.07      0.00
   -7   -2    2      1.10      0.00
   -6   -2    2     -0.12      0.00
   -5   -2    2      2.18      0.00
   -4   -2    2      4.69      0.00
   -3   -2    2      4.48      0.00
   -2   -2    2    -24.68      0.00
   -1   -2    2      5.49      0.00
    0   -2    2     58.33      0.00
    1   -2    2     -5.22      0.00
    2   -2    2    -10.36      0.00
    3   -2    2      0.38      0.00
    4   -2    2     -5.45      0.00
    5   -2    2     -0.11      0.00
    6   -2    2      0.48      0.00
    7   -2    2      2.11      0.00
    8   -2    2      0.65      0.00
    9   -2    2      0.57      0.00
   10   -2    2      0.06      0.00
   11   -2    2     -0.77      0.00
   12   -2    2     -0.54      0.00
   13   -2    2      0.27      0.00
   14   -2    2      1.07      0.00
   15   -2    2     -0.07      0.00
  -15   -1    2      1.37      0.00
  -14   -1    2      0.83      0.00
  -13   -1    2     -0.93      0.00
  -12   -1    2     -0.59      0.00
  -11   -1    2     -0.28      0.00
  -10   -1    2     -0.52      0.00
   -9   -1    2     -0.07      0.00
   -8   -1    2     -1.01      0.00
   -7   -1    2      0.05      0.00
   -6   -1    2     -1.53      0.00
   -5   -1    2     -1.36      0.00
   -4   -1    2     -3.93      0.00
   -3   -1    2      6.74      0.00
   -2   -1    2     23.89      0.00
   -1   -1    2    -59.63      0.00
    0   -1    2    -38.54      0.00
    1   -1    2     41.42      0.00
    2   -1    2      4.50      0.00
    3   -1    2     -2.81      0.00
    4   -1    2      0.38      0.00
    5   -1    2     -2.04      0.00
    6   -1    2     -0.45      0.00
    7   -1    2     -2.64      0.00
    8   -1    2     -0.46      0.00
    9   -1    2     -1.09      0.00
   10   -1    2      0.53      0.00
   11   -1    2      0.77      0.00
   12   -1    2     -0.06      0.00
   13   -1    2      0.60      0.00
   14   -1    2     -1.12      0.00
   15   -1    2      0.71      0.00
  -15    0    2      0.05      0.00
  -14    0    2      1.73      0.00
  -13    0    2      0.98      0.00
  -12    0    2     -0.49      0.00
  -11    0    2     -0.24      0.00
  -10    0    2      0.21      0.00
   -9    0    2      0.87      0.00
   -8    0    2      0.95      0.00
   -7    0    2      1.63      0.00
   -6    0    2      0.46      0.00
   -5    0    2     -1.17      0.00
   -4    0    2      5.60      0.00
   -3    0    2     -8.10      0.00
   -2    0    2     17.18      0.00
   -1    0    2     63.87      0.00
    0    0    2    -28.16      0.00
    1    0    2    -32.50      0.00
    2    0    2     10.32      0.00
    3    0    2      4.35      0.00
    4    0    2      1.46      0.00
    5    0    2      0.26      0.00
    6    0    2      1.50      0.00
    7    0    2      1.89      0.00
    8    0    2     -0.48      0.00
    9    0    2      1.30      0.00
   10    0    2     -0.78      0.00
   11    0    2      0.25      0.00
   12    0    2     -0.77      0.00
   13    0    2     -0.49      0.00
   14    0    2      1.81      0.00
   15    0    2     -0.80      0.00
  -15    1    2     -1.53      0.00
  -14    1    2     -1.97      0.00
  -13    1    2      0.09      0.00
  -12    1    2     -0.30      0.00
  -11    1    2     -0.38      0.00
  -10    1    2     -1.13      0.00
   -9    1    2     -1.65      0.00
   -8    1    2     -1.08      0.00
   -7    1    2     -0.67      0.00
   -6    1    2      3.82      0.00
   -5    1    2     -2.99      0.00
   -4    1    2     -6.62      0.00
   -3    1    2      2.82      0.00
   -2    1    2    -25.45      0.00
   -1    1    2      7.09      0.00
    0    1    2     44.60      0.00
    1    1    2     -7.00      0.00
    2    1    2     -9.31      0.00
    3    1    2     -4.69      0.00
    4    1    2      0.88      0.00
    5    1    2     -0.05      0.00
    6    1    2     -3.72      0.00
    7    1    2     -0.28      0.00
    8    1    2      0.27      0.00
    9    1    2     -0.78      0.00
   10    1    2      0.28      0.00
   11    1    2     -0.11      0.00
   12    1    2      1.20      0.00
   13    1    2     -0.83      0.00
   14    1    2     -0.39      0.00
  -15    2    2      2.01      0.00
  -14    2    2      0.32      0.00
  -13    2    2      0.36      0.00
  -12    2    2      1.57      0.00
  -11    2    2      0.60      0.00
  -10    2    2      1.14      0.00
   -9    2    2      0.40      0.00
   -8    2    2      0.53      0.00
   -7    2    2     -2.22      0.00
   -6    2    2     -2.60      0.00
   -5    2    2      7.64      0.00
   -4    2    2      0.29      0.00
   -3    2    2      0.86      0.00
   -2    2    2      5.71      0.00
   -1    2    2    -26.83      0.00
    0    2    2      9.22      0.00
    1    2    2     16.88      0.00
    2    2    2      2.49      0.00
    3    2    2      2.98      0.00
    4    2    2     -4.90      0.00
    5    2    2      2.30      0.00
    6    2    2      3.09      0.00
    7    2    2     -1.77      0.00
    8    2    2     -0.32      0.00
    9    2    2      0.38      0.00
   10    2    2     -0.65      0.00
   11    2    2     -1.94      0.00
   12    2    2     -1.21      0.00
   13    2    2     -0.28      0.00
   14    2    2     -1.04      0.00
  -15    3    2     -0.49      0.00
  -14    3    2      0.91      0.00
  -13    3    2     -1.22      0.00
  -12    3    2     -1.28      0.00
  -11    3    2      0.37      0.00
  -10    3    2      0.22      0.00
   -9    3    2      0.41      0.00
   -8    3    2     -0.81      0.00
   -7    3    2      1.70      0.00
   -6    3    2     -2.51      0.00
   -5    3    2     -5.09      0.00
   -4    3    2      6.57      0.00
   -3    3    2      1.47      0.00
   -2    3    2      8.10      0.00
   -1    3    2      3.01      0.00
    0    3    2    -19.90      0.00
    1    3    2      3.92      0.00
    2    3    2     -5.95      0.00
    3    3    2      1.31      0.00
    4    3    2      5.37      0.00
    5    3    2     -2.81      0.00
    6    3    2      0.46      0.00
    7    3    2      1.50      0.00
    8    3    2     -0.69      0.00
    9    3    2      0.06      0.00
   10    3    2      1.82      0.00
   11    3    2      0.82      0.00
   12    3    2     -0.97      0.00
   13    3    2      0.50      0.00
   14    3    2      0.44      0.00
  -15    4    2     -1.56      0.00
  -14    4    2     -0.35      0.00
  -13    4    2      2.42      0.00
  -12    4    2      1.78      0.00
  -11    4    2     -0.65      0.00
  -10    4    2     -0.70      0.00
   -9    4    2     -0.25      0.00
   -8    4    2      0.43      0.00
   -7    4    2     -0.52      0.00
   -6    4    2      2.07      0.00
   -5    4    2     -2.03      0.00
   -4    4    2     -8.45      0.00
   -3    4    2     -1.76      0.00
   -2    4    2     -0.05      0.00
   -1    4    2     11.19      0.00
    0    4    2     -0.93      0.00
    1    4    2     -2.97      0.00
    2    4    2      8.70      0.00
    3    4    2     -7.28      0.00
    4    4    2     -2.62      0.00
    5    4    2      2.82      0.00
    6    4    2     -1.17      0.00
    7    4    2      0.43      0.00
    8    4    2     -0.55      0.00
    9    4    2     -2.00      0.00
   10    4    2     -1.58      0.00
   11    4    2      0.48      0.00
   12    4    2      0.61      0.00
   13    4    2     -1.18      0.00
   14    4    2      0.01      0.00
  -15    5    2      1.70      0.00
  -14    5    2     -1.37      0.00
  -13    5    2     -2.13      0.00
  -12    5    2     -0.35      0.00
  -11    5    2      1.92      0.00
  -10    5    2      1.06      0.00
   -9    5    2     -0.02      0.00
   -8    5    2      0.30      0.00
   -7    5    2      0.32      0.00
   -6    5    2      0.26      0.00
   -5    5    2      3.23      0.00
   -4    5    2      3.01      0.00
   -3    5    2     -3.38      0.00
   -2    5    2     -6.56      0.00
   -1    5    2     -0.47      0.00
    0    5    2      8.70      0.00
    1    5    2     -7.43      0.00
    2    5    2     -1.02      0.00
    3    5    2      9.05      0.00
    4    5    2     -0.90      0.00
    5    5    2     -0.77      0.00
    6    5    2      1.16      0.00
    7    5    2     -0.13      0.00
    8    5    2      1.51      0.00
    9    5    2      0.42      0.00
   10    5    2     -0.04      0.00
   11    5    2     -1.18      0.00
   12    5    2     -1.44      0.00
   13    5    2      0.71      0.00
   14    5    2     -0.39      0.00
  -15    6    2     -0.27      0.00
  -14    6    2      1.40      0.00
  -13    6    2      0.16      0.00
  -12    6    2      0.40      0.00
  -11    6    2     -0.63      0.00
  -10    6    2     -0.05      0.00
   -9    6    2      0.95      0.00
   -8    6    2     -1.04      0.00
   -7    6    2     -0.50      0.00
   -6    6    2     -0.99      0.00
   -5    6    2     -2.28      0.00
   -4    6    2     -0.79      0.00
   -3    6    2      2.55      0.00
   -2    6    2      0.38      0.00
   -1    6    2     -8.09      0.00
    0    6    2     -0.39      0.00
    1    6    2      5.47      0.00
    2    6    2     -8.28      0.00
    3    6    2     -4.76      0.00
    4    6    2      3.44      0.00
    5    6    2     -0.87      0.00
    6    6    2     -0.46      0.00
    7    6    2     -1.29      0.00
    8    6    2      0.43      0.00
    9    6    2      1.39      0.00
   10    6    2      0.03      0.00
   11    6    2      1.79      0.00
   12    6    2      0.43      0.00
   13    6    2     -2.02      0.00
  -15    7    2     -0.75      0.00
  -14    7    2     -0.84      0.00
  -13    7    2      0.29      0.00
  -12    7    2     -1.69      0.00
  -10    7    2      1.38      0.00
   -9    7    2      0.11      0.00
   -8    7    2      2.60      0.00
   -7    7    2      0.19      0.00
   -6    7    2     -0.12      0.00
   -5    7    2      0.95      0.00
   -4    7    2     -0.11      0.00
   -3    7    2     -1.77      0.00
   -2    7    2      2.74      0.00
   -1    7    2      4.39      0.00
    0    7    2     -4.22      0.00
    1    7    2      0.85      0.00
    2    7    2      6.22      0.00
    3    7    2     -2.00      0.00
    4    7    2     -1.44      0.00
    5    7    2      1.54      0.00
    6    7    2      1.18      0.00
    7    7    2      0.83      0.00
    8    7    2     -2.66      0.00
    9    7    2     -0.75      0.00
   10    7    2     -0.58      0.00
   11    7    2     -1.38      0.00
   12    7    2      0.84      0.00
   13    7    2      0.45      0.00
  -14    8    2      0.23      0.00
  -13    8    2     -0.72      0.00
  -10    8    2     -0.50      0.00
   -9    8    2     -0.30      0.00
   -8    8    2     -2.38      0.00
   -7    8    2      1.22      0.00
   -6    8    2      0.86      0.00
   -5    8    2     -0.80      0.00
   -4    8    2      0.33      0.00
   -3    8    2      1.35      0.00
   -2    8    2     -2.97      0.00
   -1    8    2     -1.56      0.00
    0    8    2      2.26      0.00
    1    8    2     -2.28      0.00
    2    8    2     -2.47      0.00
    3    8    2      1.51      0.00
    4    8    2     -0.67      0.00
    5    8    2      0.33      0.00
    6    8    2     -0.66      0.00
    7    8    2      1.42      0.00
    8    8    2      1.99      0.00
    9    8    2     -0.04      0.00
   10    8    2     -0.23      0.00
   11    8    2     -2.10      0.00
   12    8    2     -1.16      0.00
   13    8    2      0.19      0.00
  -14    9    2      1.13      0.00
   -9    9    2      0.00      0.00
   -8    9    2      0.24      0.00
   -7    9    2     -2.17      0.00
   -6    9    2     -0.35      0.00
   -5    9    2      0.49      0.00
   -4    9    2     -0.44      0.00
   -3    9    2     -0.71      0.00
   -2    9    2      1.71      0.00
   -1    9    2      0.03      0.00
    0    9    2     -1.70      0.00
    1    9    2      2.01      0.00
    2    9    2      1.50      0.00
    3    9    2     -0.97      0.00
    4    9    2     -0.55      0.00
    5    9    2     -0.76      0.00
    6    9    2     -0.89      0.00
    7    9    2     -1.75      0.00
    8    9    2     -0.66      0.00
    9    9    2      0.41      0.00
   10    9    2      1.93      0.00
   11    9    2      1.26      0.00
   12    9    2     -1.69      0.00
  -14   10    2     -3.21      0.00
  -13   10    2      0.28      0.00
  -10   10    2     -0.63      0.00
   -9   10    2      0.36      0.00
   -8   10    2      0.26      0.00
   -7   10    2      0.42      0.00
   -6   10    2     -0.19      0.00
   -5   10    2      0.01      0.00
   -4   10    2     -0.25      0.00
   -3   10    2      0.65      0.00
   -2   10    2      0.43      0.00
   -1   10    2      1.59      0.00
    0   10    2      1.48      0.00
    1   10    2     -1.89      0.00
    2   10    2      0.70      0.00
    3   10    2      2.11      0.00
    4   10    2      0.47      0.00
    5   10    2      1.14      0.00
    6   10    2      2.36      0.00
    7   10    2     -0.33      0.00
    8   10    2     -0.87      0.00
    9   10    2     -1.38      0.00
   10   10    2     -1.13      0.00
   11   10    2      1.64      0.00
   12   10    2      0.90      0.00
  -13   11    2     -1.55      0.00
  -12   11    2      1.10      0.00
  -11   11    2      1.40      0.00
  -10   11    2      0.71      0.00
   -9   11    2     -0.02      0.00
   -8   11    2      0.85      0.00
   -7   11    2      0.30      0.00
   -6   11    2     -0.77      0.00
   -5   11    2      0.10      0.00
   -4   11    2      0.32      0.00
   -3   11    2     -1.15      0.00
   -2   11    2     -0.87      0.00
   -1   11    2     -1.09      0.00
    0   11    2      0.75      0.00
    1   11    2      1.51      0.00
    2   11    2     -1.42      0.00
    3   11    2     -0.99      0.00
    4   11    2      0.76      0.00
    5   11    2     -1.94      0.00
    6   11    2     -0.82      0.00
    7   11    2      3.15      0.00
    8   11    2      1.22      0.00
    9   11    2      0.69      0.00
   10   11    2     -0.30      0.00
   11   11    2     -0.86      0.00
  -13   12    2     -0.79      0.00
  -12   12    2     -0.85      0.00
  -11   12    2      0.71      0.00
  -10   12    2      0.36      0.00
   -9   12    2     -0.97      0.00
   -8   12    2     -0.85      0.00
   -7   12    2      0.16      0.00
   -6   12    2      0.09      0.00
   -5   12    2     -0.94      0.00
   -4   12    2     -0.04      0.00
   -3   12    2      0.90      0.00
   -2   12    2      0.87      0.00
   -1   12    2      0.80      0.00
    0   12    2     -1.02      0.00
    1   12    2     -0.07      0.00
    2   12    2      0.57      0.00
    3   12    2     -0.19      0.00
    4   12    2     -0.42      0.00
    5   12    2      2.73      0.00
    6   12    2     -0.76      0.00
    7   12    2     -2.40      0.00
    8   12    2      0.59      0.00
    9   12    2     -0.46      0.00
   10   12    2     -0.25      0.00
  -12   13    2     -1.25      0.00
  -11   13    2      0.69      0.00
  -10   13    2      0.96      0.00
   -9   13    2      1.51      0.00
   -8   13    2     -0.13      0.00
   -7   13    2      0.01      0.00
   -6   13    2      0.19      0.00
   -5   13    2     -0.05      0.00
   -4   13    2     -0.14      0.00
   -3   13    2     -0.07      0.00
   -2   13    2      0.06      0.00
   -1   13    2      0.84      0.00
    0   13    2      1.50      0.00
    1   13    2      0.06      0.00
    2   13    2     -0.25      0.00
    3   13    2     -0.33      0.00
    4   13    2     -0.60      0.00
    5   13    2     -1.19      0.00
    6   13    2      2.54      0.00
    7   13    2      1.51      0.00
    8   13    2      0.67      0.00
    9   13    2      0.64      0.00
   10   13    2     -0.51      0.00
  -12   14    2      0.61      0.00
  -11   14    2     -1.91      0.00
  -10   14    2      0.09      0.00
   -9   14    2     -0.33      0.00
   -8   14    2      0.44      0.00
   -7   14    2     -0.29      0.00
   -6   14    2      0.96      0.00
   -5   14    2      0.24      0.00
   -4   14    2     -0.90      0.00
   -3   14    2     -0.61      0.00
   -2   14    2     -0.21      0.00
   -1   14    2     -0.89      0.00
    0   14    2     -0.77      0.00
    1   14    2      0.07      0.00
    2   14    2     -0.03      0.00
    3   14    2     -0.06      0.00
    4   14    2      0.28      0.00
    5   14    2     -0.06      0.00
    6   14    2     -0.46      0.00
    7   14    2      0.16      0.00
    8   14    2     -0.72      0.00
    9   14    2      1.45      0.00
  -11   15    2      0.72      0.00
  -10   15    2     -0.58      0.00
   -9   15    2     -0.01      0.00
   -8   15    2      0.29      0.00
   -7   15    2      0.06      0.00
   -6   15    2     -0.96      0.00
   -5   15    2      1.29      0.00
   -4   15    2      1.11      0.00
   -3   15    2     -0.23      0.00
   -2   15    2     -0.77      0.00
   -1   15    2     -0.11      0.00
    0   15    2     -0.39      0.00
    1   15    2     -0.69      0.00
    2   15    2     -0.69      0.00
    3   15    2     -0.90      0.00
    4   15    2     -0.32      0.00
    5   15    2      1.00      0.00
    6   15    2     -0.17      0.00
    7   15    2      0.67      0.00
    8   15    2     -0.11      0.00
  -10   16    2      0.10      0.00
   -9   16    2     -0.09      0.00
   -8   16    2     -0.41      0.00
   -7   16    2      1.04      0.00
   -6   16    2      0.71      0.00
   -5   16    2     -0.71      0.00
   -4   16    2      0.80      0.00
   -3   16    2      1.06      0.00
   -2   16    2      0.51      0.00
   -1   16    2      0.10      0.00
    0   16    2     -0.36      0.00
    1   16    2     -0.23      0.00
    2   16    2      0.49      0.00
    3   16    2      0.35      0.00
    4   16    2     -0.97      0.00
    5   16    2     -1.55      0.00
    6   16    2      1.60      0.00
    7   16    2      1.01      0.00
   -9   17    2      0.34      0.00
   -8   17    2     -0.40      0.00
   -7   17    2     -1.02      0.00
   -6   17    2     -0.23      0.00
   -5   17    2     -0.19      0.00
   -4   17    2     -0.48      0.00
   -3   17    2      1.05      0.00
   -2   17    2      1.35      0.00
   -1   17    2      1.24      0.00
    0   17    2      1.81      0.00
    1   17    2      0.15      0.00
    2   17    2     -0.61      0.00
    3   17    2     -0.17      0.00
    4   17    2      0.35      0.00
    5   17    2     -0.40      0.00
    6   17    2     -3.05      0.00
   -8   18    2      0.77      0.00
   -7   18    2      0.29      0.00
   -6   18    2      0.62      0.00
   -5   18    2     -0.16      0.00
   -4   18    2     -0.92      0.00
   -3   18    2     -0.84      0.00
   -2   18    2      0.43      0.00
   -1   18    2      0.26      0.00
    0   18    2     -0.04      0.00
    1   18    2      1.04      0.00
    2   18    2      0.40      0.00
    3   18    2      0.29      0.00
    4   18    2      0.49      0.00
   -5   19    2      1.27      0.00
   -4   19    2      0.40      0.00
   -3   19    2     -1.14      0.00
   -2   19    2     -1.09      0.00
   -1   19    2      0.00      0.00
    0   19    2      0.25      0.00
    1   19    2     -0.24      0.00
    2   19    2      0.06      0.00
   -2  -19    3      0.51      0.00
   -1  -19    3     -0.58      0.00
    0  -19    3     -1.13      0.00
    1  -19    3     -0.88      0.00
    2  -19    3     -0.54      0.00
    3  -19    3      0.33      0.00
    4  -19    3     -0.39      0.00
    5  -19    3     -0.71      0.00
   -5  -18    3      1.54      0.00
   -4  -18    3      1.70      0.00
   -3  -18    3      1.63      0.00
   -2  -18    3     -0.23      0.00
   -1  -18    3     -1.25      0.00
    0  -18    3      1.02      0.00
    1  -18    3      0.99      0.00
    2  -18    3     -0.49      0.00
    3  -18    3      0.32      0.00
    4  -18    3      1.04      0.00
    5  -18    3      0.27      0.00
    6  -18    3     -0.70      0.00
    7  -18    3      0.33      0.00
   -6  -17    3      0.15      0.00
   -5  -17    3     -3.82      0.00
   -4  -17    3     -0.88      0.00
   -3  -17    3     -1.13      0.00
   -2  -17    3      2.01      0.00
   -1  -17    3      1.28      0.00
    0  -17    3     -2.65      0.00
    1  -17    3     -0.73      0.00
    2  -17    3      1.13      0.00
    3  -17    3     -0.30      0.00
    4  -17    3     -0.30      0.00
    5  -17    3      0.07      0.00
    6  -17    3      0.17      0.00
    7  -17    3      0.09      0.00
    8  -17    3      0.69      0.00
   -7  -16    3     -2.89      0.00
   -6  -16    3      4.39      0.00
   -5  -16    3      2.48      0.00
   -4  -16    3     -0.77      0.00
   -3  -16    3      0.47      0.00
   -2  -16    3     -1.28      0.00
   -1  -16    3      0.92      0.00
    0  -16    3      2.99      0.00
    1  -16    3     -0.16      0.00
    2  -16    3     -1.30      0.00
    3  -16    3      0.10      0.00
    4  -16    3     -0.04      0.00
    5  -16    3     -0.24      0.00
    6  -16    3     -0.30      0.00
    7  -16    3     -0.02      0.00
    8  -16    3      0.27      0.00
    9  -16    3     -0.36      0.00
   -8  -15    3     -0.55      0.00
   -7  -15    3     -0.92      0.00
   -6  -15    3     -3.78      0.00
   -5  -15    3      1.28      0.00
   -4  -15    3      0.06      0.00
   -3  -15    3     -1.30      0.00
   -2  -15    3      0.50      0.00
   -1  -15    3     -0.08      0.00
    0  -15    3     -0.66      0.00
    1  -15    3      1.67      0.00
    2  -15    3      1.36      0.00
    3  -15    3     -0.07      0.00
    4  -15    3      0.16      0.00
    5  -15    3      0.11      0.00
    6  -15    3     -0.24      0.00
    7  -15    3     -1.11      0.00
    8  -15    3     -0.02      0.00
    9  -15    3      0.38      0.00
   10  -15    3     -1.67      0.00
   -9  -14    3      1.60      0.00
   -8  -14    3      1.86      0.00
   -7  -14    3      1.15      0.00
   -6  -14    3     -1.26      0.00
   -5  -14    3     -1.51      0.00
   -4  -14    3      1.26      0.00
   -3  -14    3      0.41      0.00
   -2  -14    3     -1.45      0.00
   -1  -14    3     -1.71      0.00
    0  -14    3     -0.91      0.00
    1  -14    3     -1.50      0.00
    2  -14    3     -0.14      0.00
    3  -14    3      0.75      0.00
    4  -14    3     -0.12      0.00
    5  -14    3     -0.05      0.00
    6  -14    3      0.11      0.00
    7  -14    3      0.63      0.00
    8  -14    3     -1.28      0.00
    9  -14    3     -0.18      0.00
   10  -14    3      0.70      0.00
   11  -14    3     -0.21      0.00
  -10  -13    3      1.06      0.00
   -9  -13    3     -1.28      0.00
   -8  -13    3      0.00      0.00
   -7  -13    3      0.63      0.00
   -6  -13    3      1.32      0.00
   -5  -13    3     -0.79      0.00
   -4  -13    3     -0.68      0.00
   -3  -13    3      0.45      0.00
   -2  -13    3      1.47      0.00
   -1  -13    3      1.85      0.00
    0  -13    3     -0.53      0.00
    1  -13    3      0.06      0.00
    2  -13    3     -0.79      0.00
    3  -13    3     -0.92      0.00
    4  -13    3      0.50      0.00
    5  -13    3     -0.09      0.00
    6  -13    3     -0.11      0.00
    7  -13    3     -0.20      0.00
    8  -13    3      0.97      0.00
    9  -13    3     -0.14      0.00
   10  -13    3      0.30      0.00
   11  -13    3      1.15      0.00
   12  -13    3      1.32      0.00
  -11  -12    3     -0.11      0.00
  -10  -12    3     -0.35      0.00
   -9  -12    3      0.41      0.00
   -8  -12    3     -0.36      0.00
   -7  -12    3     -0.41      0.00
   -6  -12    3     -0.23      0.00
   -5  -12    3     -0.18      0.00
   -4  -12    3     -0.09      0.00
   -3  -12    3     -0.32      0.00
   -2  -12    3     -1.87      0.00
   -1  -12    3      0.15      0.00
    0  -12    3      1.97      0.00
    1  -12    3     -0.63      0.00
    2  -12    3      1.30      0.00
    3  -12    3      1.08      0.00
    4  -12    3     -0.02      0.00
    5  -12    3      0.35      0.00
    6  -12    3     -0.30      0.00
    7  -12    3      0.03      0.00
    8  -12    3     -0.24      0.00
    9  -12    3     -0.38      0.00
   10  -12    3     -0.95      0.00
   11  -12    3     -1.51      0.00
   12  -12    3      0.06      0.00
  -12  -11    3     -1.18      0.00
  -11  -11    3      0.39      0.00
  -10  -11    3      0.42      0.00
   -9  -11    3      0.56      0.00
   -8  -11    3      1.26      0.00
   -7  -11    3     -0.10      0.00
   -6  -11    3      0.33      0.00
   -5  -11    3     -0.38      0.00
   -4  -11    3     -0.94      0.00
   -3  -11    3      0.88      0.00
   -2  -11    3      1.24      0.00
   -1  -11    3     -2.86      0.00
    0  -11    3     -0.41      0.00
    1  -11    3      0.02      0.00
    2  -11    3     -2.96      0.00
    3  -11    3     -1.38      0.00
    4  -11    3     -0.50      0.00
    5  -11    3      0.80      0.00
    6  -11    3      0.85      0.00
    7  -11    3      0.22      0.00
    8  -11    3      1.19      0.00
    9  -11    3      1.08      0.00
   10  -11    3      0.05      0.00
   11  -11    3      0.10      0.00
   12  -11    3     -1.50      0.00
   13  -11    3     -0.34      0.00
  -12  -10    3      0.33      0.00
  -11  -10    3      0.56      0.00
  -10  -10    3      0.69      0.00
   -9  -10    3     -0.58      0.00
   -8  -10    3     -0.32      0.00
   -7  -10    3      0.62      0.00
   -6  -10    3     -0.39      0.00
   -5  -10    3      1.44      0.00
   -4  -10    3      0.10      0.00
   -3  -10    3     -1.11      0.00
   -2  -10    3      1.45      0.00
   -1  -10    3      1.91      0.00
    0  -10    3     -0.73      0.00
    1  -10    3      2.51      0.00
    2  -10    3      2.50      0.00
    3  -10    3      0.35      0.00
    4  -10    3     -0.49      0.00
    5  -10    3     -1.24      0.00
    6  -10    3      0.22      0.00
    7  -10    3      0.06      0.00
    8  -10    3     -0.77      0.00
    9  -10    3      1.45      0.00
   10  -10    3      1.91      0.00
   11  -10    3      0.16      0.00
   12  -10    3      0.72      0.00
   13  -10    3      0.03      0.00
  -13   -9    3      1.79      0.00
  -12   -9    3     -0.77      0.00
  -11   -9    3     -1.52      0.00
  -10   -9    3      0.72      0.00
   -9   -9    3      1.22      0.00
   -8   -9    3     -0.28      0.00
   -7   -9    3      0.41      0.00
   -6   -9    3     -0.79      0.00
   -5   -9    3     -0.58      0.00
   -4   -9    3      0.10      0.00
   -3   -9    3     -0.82      0.00
   -2   -9    3     -1.80      0.00
   -1   -9    3      0.86      0.00
    0   -9    3     -1.87      0.00
    1   -9    3     -2.94      0.00
    2   -9    3     -0.31      0.00
    3   -9    3      0.88      0.00
    4   -9    3      1.16      0.00
    5   -9    3     -0.24      0.00
    6   -9    3     -0.60      0.00
    7   -9    3     -0.01      0.00
    8   -9    3     -0.48      0.00
    9   -9    3     -2.59      0.00
   10   -9    3     -1.29      0.00
   11   -9    3      0.63      0.00
   12   -9    3     -0.52      0.00
   13   -9    3      0.44      0.00
  -13   -8    3     -0.54      0.00
  -12   -8    3      2.52      0.00
  -11   -8    3      0.66      0.00
  -10   -8    3     -1.47      0.00
   -9   -8    3      0.21      0.00
   -8   -8    3      0.13      0.00
   -7   -8    3      0.71      0.00
   -6   -8    3      1.11      0.00
   -5   -8    3     -0.05      0.00
   -4   -8    3      1.84      0.00
   -3   -8    3      0.31      0.00
   -2   -8    3     -1.17      0.00
   -1   -8    3     -0.24      0.00
    0   -8    3      2.85      0.00
    1   -8    3     -1.20      0.00
    2   -8    3     -2.37      0.00
    3   -8    3     -1.28      0.00
    4   -8    3     -0.71      0.00
    5   -8    3      1.54      0.00
    6   -8    3     -0.27      0.00
    7   -8    3      0.13      0.00
    8   -8    3      0.92      0.00
    9   -8    3      1.19      0.00
   10   -8    3     -0.27      0.00
  -14   -7    3      0.74      0.00
  -13   -7    3     -0.29      0.00
  -12   -7    3     -1.76      0.00
  -11   -7    3      0.32      0.00
  -10   -7    3     -0.25      0.00
   -9   -7    3     -0.77      0.00
   -8   -7    3     -0.45      0.00
   -7   -7    3     -1.44      0.00
   -6   -7    3      0.88      0.00
   -5   -7    3     -2.26      0.00
   -4   -7    3     -1.25      0.00
   -3   -7    3      2.18      0.00
   -2   -7    3      0.43      0.00
   -1   -7    3     -2.30      0.00
    0   -7    3      0.85      0.00
    1   -7    3      5.29      0.00
    2   -7    3      1.82      0.00
    3   -7    3     -0.28      0.00
    4   -7    3      0.62      0.00
    5   -7    3     -1.09      0.00
    6   -7    3      1.34      0.00
    7   -7    3     -0.62      0.00
    8   -7    3     -0.82      0.00
    9   -7    3      0.16      0.00
   10   -7    3      1.18      0.00
   11   -7    3      1.65      0.00
   12   -7    3     -0.04      0.00
   13   -7    3      0.96      0.00
   14   -7    3     -1.78      0.00
  -14   -6    3     -1.35      0.00
  -13   -6    3      1.10      0.00
  -12   -6    3      0.98      0.00
  -11   -6    3      0.97      0.00
  -10   -6    3      1.22      0.00
   -9   -6    3      1.01      0.00
   -8   -6    3      1.78      0.00
   -7   -6    3     -0.46      0.00
   -6   -6    3     -0.61      0.00
   -5   -6    3      2.52      0.00
   -4   -6    3     -3.01      0.00
   -3   -6    3     -3.09      0.00
   -2   -6    3      0.51      0.00
   -1   -6    3     -1.26      0.00
    0   -6    3     -5.42      0.00
    1   -6    3     -5.50      0.00
    2   -6    3      1.59      0.00
    3   -6    3      0.17      0.00
    4   -6    3     -1.09      0.00
    5   -6    3      0.13      0.00
    6   -6    3     -0.78      0.00
    7   -6    3      0.92      0.00
    8   -6    3      0.02      0.00
    9   -6    3     -0.73      0.00
   10   -6    3     -1.06      0.00
   11   -6    3     -0.10      0.00
   12   -6    3      0.29      0.00
   13   -6    3      0.27      0.00
   14   -6    3      1.94      0.00
  -14   -5    3     -0.13      0.00
  -13   -5    3     -2.16      0.00
  -12   -5    3     -1.17      0.00
  -11   -5    3     -1.55      0.00
  -10   -5    3     -0.63      0.00
   -9   -5    3     -1.52      0.00
   -8   -5    3     -0.40      0.00
   -7   -5    3      2.35      0.00
   -6   -5    3     -0.79      0.00
   -5   -5    3     -0.71      0.00
   -4   -5    3      3.23      0.00
   -3   -5    3      1.20      0.00
   -2   -5    3      1.46      0.00
   -1   -5    3      3.00      0.00
    0   -5    3      3.14      0.00
    1   -5    3      1.69      0.00
    2   -5    3     -2.75      0.00
    3   -5    3      2.57      0.00
    4   -5    3      0.32      0.00
    5   -5    3     -0.40      0.00
    6   -5    3     -1.49      0.00
    7   -5    3      0.13      0.00
    8   -5    3      0.35      0.00
    9   -5    3      0.53      0.00
   10   -5    3      0.63      0.00
   11   -5    3     -0.43      0.00
   12   -5    3     -0.58      0.00
   13   -5    3     -1.79      0.00
   14   -5    3     -0.22      0.00
  -14   -4    3      1.51      0.00
  -13   -4    3      1.65      0.00
  -12   -4    3      0.77      0.00
  -11   -4    3      0.24      0.00
  -10   -4    3      0.08      0.00
   -9   -4    3      1.06      0.00
   -8   -4    3     -0.99      0.00
   -7   -4    3     -1.90      0.00
   -6   -4    3      0.11      0.00
   -5   -4    3     -1.74      0.00
   -4   -4    3     -3.66      0.00
   -3   -4    3     -1.91      0.00
   -2   -4    3     -0.39      0.00
   -1   -4    3      5.72      0.00
    0   -4    3     -3.21      0.00
    1   -4    3     -1.09      0.00
    2   -4    3     -1.59      0.00
    3   -4    3     -3.73      0.00
    4   -4    3      1.85      0.00
    5   -4    3      1.54      0.00
    6   -4    3      1.49      0.00
    7   -4    3     -1.91      0.00
    8   -4    3      0.27      0.00
    9   -4    3     -0.56      0.00
   10   -4    3     -0.28      0.00
   11   -4    3      0.52      0.00
   12   -4    3      1.60      0.00
   13   -4    3      0.86      0.00
   14   -4    3     -1.81      0.00
  -15   -3    3      0.27      0.00
  -14   -3    3     -1.79      0.00
  -13   -3    3     -1.04      0.00
  -12   -3    3     -0.11      0.00
  -11   -3    3      0.54      0.00
  -10   -3    3      0.31      0.00
   -9   -3    3      0.04      0.00
   -8   -3    3      1.65      0.00
   -7   -3    3      1.79      0.00
   -6   -3    3      0.82      0.00
   -5   -3    3      3.04      0.00
   -4   -3    3      3.40      0.00
   -3   -3    3      1.30      0.00
   -2   -3    3    -12.51      0.00
   -1   -3    3     -4.63      0.00
    0   -3    3     16.63      0.00
    1   -3    3     -4.97      0.00
    2   -3    3     -0.58      0.00
    3   -3    3     -2.03      0.00
    4   -3    3     -4.28      0.00
    5   -3    3     -1.30      0.00
    6   -3    3      0.36      0.00
    7   -3    3      2.04      0.00
    8   -3    3      0.28      0.00
    9   -3    3      1.31      0.00
   10   -3    3     -0.16      0.00
   11   -3    3     -1.01      0.00
   12   -3    3     -1.46      0.00
   13   -3    3      0.86      0.00
   14   -3    3      1.10      0.00
  -15   -2    3      0.42      0.00
  -14   -2    3      0.80      0.00
  -13   -2    3     -0.49      0.00
  -12   -2    3     -0.99      0.00
  -11   -2    3     -1.32      0.00
  -10   -2    3     -1.40      0.00
   -9   -2    3     -0.12      0.00
   -8   -2    3     -0.46      0.00
   -7   -2    3      0.01      0.00
   -6   -2    3     -1.17      0.00
   -5   -2    3     -2.49      0.00
   -4   -2    3     -1.15      0.00
   -3   -2    3      9.45      0.00
   -2   -2    3     23.26      0.00
   -1   -2    3    -23.88      0.00
    0   -2    3    -14.57      0.00
    1   -2    3     21.68      0.00
    2   -2    3      1.38      0.00
    3   -2    3      2.22      0.00
    4   -2    3      1.37      0.00
    5   -2    3     -0.98      0.00
    6   -2    3     -1.44      0.00
    7   -2    3     -1.92      0.00
    8   -2    3     -0.65      0.00
    9   -2    3     -0.30      0.00
   10   -2    3      1.35      0.00
   11   -2    3      1.06      0.00
   12   -2    3      0.44      0.00
   13   -2    3     -0.18      0.00
   14   -2    3      0.32      0.00
  -15   -1    3      0.07      0.00
  -14   -1    3      0.49      0.00
  -13   -1    3      0.55      0.00
  -12   -1    3      0.04      0.00
  -11   -1    3      0.77      0.00
  -10   -1    3      0.51      0.00
   -9   -1    3     -0.57      0.00
   -8   -1    3     -0.14      0.00
   -7   -1    3      0.48      0.00
   -6   -1    3      0.75      0.00
   -5   -1    3     -0.45      0.00
   -4   -1    3      0.11      0.00
   -3   -1    3    -14.87      0.00
   -2   -1    3      4.49      0.00
   -1   -1    3     41.06      0.00
    0   -1    3    -23.53      0.00
    1   -1    3    -25.31      0.00
    2   -1    3      2.47      0.00
    3   -1    3     -0.62      0.00
    4   -1    3     -0.49      0.00
    5   -1    3     -0.03      0.00
    6   -1    3      0.38      0.00
    7   -1    3      0.17      0.00
    8   -1    3     -0.31      0.00
    9   -1    3      0.42      0.00
   10   -1    3     -0.85      0.00
   11   -1    3      0.13      0.00
   12   -1    3     -0.77      0.00
   13   -1    3     -0.59      0.00
   14   -1    3      0.51      0.00
  -15    0    3     -1.34      0.00
  -14    0    3     -1.19      0.00
  -13    0    3     -0.12      0.00
  -12    0    3     -0.52      0.00
  -11    0    3     -0.96      0.00
  -10    0    3     -0.31      0.00
   -9    0    3     -0.09      0.00
   -8    0    3      0.03      0.00
   -7    0    3      0.30      0.00
   -6    0    3      2.88      0.00
   -5    0    3     -0.84      0.00
   -4    0    3      0.98      0.00
   -3    0    3     11.47      0.00
   -2    0    3    -17.24      0.00
   -1    0    3     12.38      0.00
    0    0    3     47.29      0.00
    1    0    3      2.99      0.00
    2    0    3     -4.28      0.00
    3    0    3     -1.08      0.00
    4    0    3      1.52      0.00
    5    0    3     -0.14      0.00
    6    0    3     -1.34      0.00
    7    0    3      1.05      0.00
    8    0    3      0.10      0.00
    9    0    3     -0.21      0.00
   10    0    3      0.43      0.00
   11    0    3     -0.68      0.00
   12    0    3      1.01      0.00
   13    0    3     -0.62      0.00
   14    0    3     -0.42      0.00
  -15    1    3      1.07      0.00
  -14    1    3     -0.13      0.00
  -13    1    3      0.36      0.00
  -12    1    3      1.18      0.00
  -11    1    3     -0.07      0.00
  -10    1    3     -0.04      0.00
   -9    1    3     -0.32      0.00
   -8    1    3     -0.71      0.00
   -7    1    3     -3.66      0.00
   -6    1    3     -2.85      0.00
   -5    1    3      4.84      0.00
   -4    1    3     -4.50      0.00
   -3    1    3     -1.12      0.00
   -2    1    3      1.58      0.00
   -1    1    3    -38.83      0.00
    0    1    3     -3.90      0.00
    1    1    3      9.87      0.00
    2    1    3     -0.43      0.00
    3    1    3     -1.20      0.00
    4    1    3     -3.61      0.00
    5    1    3      2.12      0.00
    6    1    3      0.55      0.00
    7    1    3     -2.74      0.00
    8    1    3     -0.27      0.00
    9    1    3      0.16      0.00
   10    1    3      0.10      0.00
   11    1    3     -0.65      0.00
   12    1    3     -1.15      0.00
   13    1    3      0.63      0.00
   14    1    3      0.14      0.00
  -15    2    3      0.05      0.00
  -14    2    3      0.15      0.00
  -13    2    3     -1.30      0.00
  -12    2    3     -0.15      0.00
  -11    2    3      1.46      0.00
  -10    2    3      0.37      0.00
   -9    2    3      0.63      0.00
   -8    2    3      0.94      0.00
   -7    2    3      3.76      0.00
   -6    2    3     -2.82      0.00
   -5    2    3     -3.30      0.00
   -4    2    3      8.25      0.00
   -3    2    3      0.02      0.00
   -2    2    3     18.24      0.00
   -1    2    3     16.36      0.00
    0    2    3    -15.82      0.00
    1    2    3      4.86      0.00
    2    2    3     -1.87      0.00
    3    2    3      4.25      0.00
    4    2    3      3.01      0.00
    5    2    3     -2.45      0.00
    6    2    3      1.96      0.00
    7    2    3      1.57      0.00
    8    2    3     -1.00      0.00
    9    2    3     -0.76      0.00
   10    2    3      0.74      0.00
   11    2    3      0.10      0.00
   12    2    3     -0.91      0.00
   13    2    3     -0.52      0.00
   14    2    3     -0.52      0.00
  -15    3    3     -0.68      0.00
  -14    3    3      0.56      0.00
  -13    3    3      1.17      0.00
  -12    3    3     -0.28      0.00
  -11    3    3     -1.44      0.00
  -10    3    3     -0.60      0.00
   -9    3    3     -0.36      0.00
   -8    3    3     -0.67      0.00
   -7    3    3     -0.55      0.00
   -6    3    3      3.75      0.00
   -5    3    3     -3.49      0.00
   -4    3    3     -7.20      0.00
   -3    3    3     -0.48      0.00
   -2    3    3     -9.33      0.00
   -1    3    3      8.12      0.00
    0    3    3      0.36      0.00
    1    3    3     -2.81      0.00
    2    3    3      5.48      0.00
    3    3    3     -7.27      0.00
    4    3    3      0.48      0.00
    5    3    3      2.00      0.00
    6    3    3     -1.93      0.00
    7    3    3      0.56      0.00
    8    3    3      0.29      0.00
    9    3    3     -0.99      0.00
   10    3    3     -0.79      0.00
   11    3    3      1.71      0.00
   12    3    3      0.63      0.00
   13    3    3      0.06      0.00
   14    3    3      1.45      0.00
  -15    4    3      0.94      0.00
  -14    4    3     -1.02      0.00
  -13    4    3     -0.46      0.00
  -12    4    3      0.91      0.00
  -11    4    3      2.67      0.00
  -10    4    3      1.43      0.00
   -9    4    3      0.13      0.00
   -8    4    3      0.47      0.00
   -7    4    3     -1.03      0.00
   -6    4    3     -0.05      0.00
   -5    4    3      3.84      0.00
   -4    4    3      0.36      0.00
   -3    4    3     -3.29      0.00
   -2    4    3     -2.52      0.00
   -1    4    3     -0.19      0.00
    0    4    3      8.88      0.00
    1    4    3     -9.00      0.00
    2    4    3      0.48      0.00
    3    4    3      6.54      0.00
    4    4    3     -2.69      0.00
    5    4    3      0.01      0.00
    6    4    3      0.32      0.00
    7    4    3     -1.18      0.00
    8    4    3      0.74      0.00
    9    4    3      0.57      0.00
   10    4    3     -1.24      0.00
   11    4    3     -1.98      0.00
   12    4    3     -0.72      0.00
   13    4    3     -0.79      0.00
   14    4    3     -1.49      0.00
  -15    5    3      0.77      0.00
  -14    5    3      0.92      0.00
  -13    5    3     -0.27      0.00
  -12    5    3     -0.47      0.00
  -11    5    3     -1.87      0.00
  -10    5    3      0.33      0.00
   -9    5    3      1.27      0.00
   -8    5    3     -0.43      0.00
   -7    5    3      0.32      0.00
   -6    5    3     -1.97      0.00
   -5    5    3     -0.69      0.00
   -4    5    3      2.67      0.00
   -3    5    3      3.84      0.00
   -2    5    3      0.27      0.00
   -1    5    3     -8.40      0.00
    0    5    3      2.69      0.00
    1    5    3      8.09      0.00
    2    5    3     -8.61      0.00
    3    5    3     -1.87      0.00
    4    5    3      4.32      0.00
    5    5    3     -0.22      0.00
    6    5    3      1.08      0.00
    7    5    3     -0.32      0.00
    8    5    3      0.30      0.00
    9    5    3      1.00      0.00
   10    5    3      0.30      0.00
   11    5    3      0.46      0.00
   12    5    3     -0.24      0.00
   13    5    3     -0.86      0.00
  -15    6    3     -1.62      0.00
  -14    6    3      0.51      0.00
  -13    6    3      0.55      0.00
  -12    6    3     -0.30      0.00
  -11    6    3      2.56      0.00
  -10    6    3     -0.28      0.00
   -9    6    3     -0.37      0.00
   -8    6    3      1.68      0.00
   -7    6    3     -0.37      0.00
   -6    6    3      0.23      0.00
   -5    6    3     -1.43      0.00
   -4    6    3     -2.44      0.00
   -3    6    3     -2.02      0.00
   -2    6    3      3.57      0.00
   -1    6    3      2.13      0.00
    0    6    3    -10.14      0.00
    1    6    3      1.39      0.00
    2    6    3      6.24      0.00
    3    6    3     -4.98      0.00
    4    6    3     -2.24      0.00
    5    6    3      1.35      0.00
    6    6    3      0.49      0.00
    7    6    3      0.07      0.00
    8    6    3     -2.87      0.00
    9    6    3     -0.25      0.00
   10    6    3      0.37      0.00
   11    6    3     -1.12      0.00
   12    6    3      0.85      0.00
   13    6    3      0.41      0.00
  -15    7    3      1.00      0.00
  -14    7    3     -0.95      0.00
  -13    7    3      0.32      0.00
  -12    7    3     -0.01      0.00
  -10    7    3      0.59      0.00
   -9    7    3     -0.80      0.00
   -8    7    3     -1.89      0.00
   -7    7    3      1.77      0.00
   -6    7    3      0.92      0.00
   -5    7    3      0.34      0.00
   -4    7    3      1.17      0.00
   -3    7    3      0.70      0.00
   -2    7    3     -3.45      0.00
   -1    7    3      2.76      0.00
    0    7    3      4.60      0.00
    1    7    3     -5.34      0.00
    2    7    3      0.45      0.00
    3    7    3      4.72      0.00
    4    7    3     -1.05      0.00
    5    7    3     -0.30      0.00
    6    7    3     -1.14      0.00
    7    7    3      1.51      0.00
    8    7    3      1.42      0.00
    9    7    3     -1.74      0.00
   10    7    3     -0.75      0.00
   11    7    3     -1.84      0.00
   12    7    3     -2.65      0.00
   13    7    3      0.31      0.00
  -15    8    3     -1.24      0.00
  -14    8    3      1.39      0.00
  -13    8    3      0.64      0.00
  -10    8    3     -1.24      0.00
   -9    8    3      0.58      0.00
   -8    8    3     -0.16      0.00
   -7    8    3     -2.98      0.00
   -6    8    3     -0.45      0.00
   -5    8    3      0.45      0.00
   -4    8    3     -1.54      0.00
   -3    8    3     -0.53      0.00
   -2    8    3      1.95      0.00
   -1    8    3     -3.10      0.00
    0    8    3     -1.30      0.00
    1    8    3      2.19      0.00
    2    8    3     -2.16      0.00
    3    8    3     -0.78      0.00
    4    8    3      0.84      0.00
    5    8    3     -0.16      0.00
    6    8    3      0.15      0.00
    7    8    3     -1.93      0.00
    8    8    3     -0.09      0.00
    9    8    3      1.35      0.00
   10    8    3      2.22      0.00
   11    8    3      2.94      0.00
   12    8    3     -0.10      0.00
  -14    9    3     -2.94      0.00
   -9    9    3      0.56      0.00
   -8    9    3      1.41      0.00
   -7    9    3      1.51      0.00
   -6    9    3     -0.56      0.00
   -5    9    3     -0.49      0.00
   -4    9    3      0.74      0.00
   -3    9    3     -0.43      0.00
   -2    9    3     -0.43      0.00
   -1    9    3      2.61      0.00
    0    9    3      0.26      0.00
    1    9    3     -1.51      0.00
    2    9    3      1.19      0.00
    3    9    3      0.55      0.00
    4    9    3      0.16      0.00
    5    9    3      0.47      0.00
    6    9    3      1.19      0.00
    7    9    3      0.03      0.00
    8    9    3     -0.71      0.00
    9    9    3     -1.98      0.00
   10    9    3     -2.38      0.00
   11    9    3     -0.13      0.00
   12    9    3      1.19      0.00
  -14   10    3      1.02      0.00
  -10   10    3      0.75      0.00
   -9   10    3     -1.06      0.00
   -8   10    3     -0.53      0.00
   -7   10    3     -0.28      0.00
   -6   10    3     -0.57      0.00
   -5   10    3     -0.05      0.00
   -4   10    3      0.01      0.00
   -3   10    3      0.57      0.00
   -2   10    3      0.32      0.00
   -1   10    3     -0.35      0.00
    0   10    3      1.77      0.00
    1   10    3      1.09      0.00
    2   10    3     -1.86      0.00
    3   10    3     -0.71      0.00
    4   10    3      0.99      0.00
    5   10    3     -0.86      0.00
    6   10    3      0.30      0.00
    7   10    3      2.19      0.00
    8   10    3      0.58      0.00
    9   10    3      0.95      0.00
   10   10    3     -0.49      0.00
   11   10    3     -1.37      0.00
  -11   11    3     -1.50      0.00
  -10   11    3      0.77      0.00
   -9   11    3     -0.13      0.00
   -8   11    3     -0.64      0.00
   -7   11    3      0.26      0.00
   -6   11    3      0.41      0.00
   -5   11    3     -0.71      0.00
   -4   11    3     -0.30      0.00
   -3   11    3     -0.50      0.00
   -2   11    3     -0.13      0.00
   -1   11    3      0.23      0.00
    0   11    3     -1.07      0.00
    1   11    3      0.33      0.00
    2   11    3      1.17      0.00
    3   11    3     -0.60      0.00
    4   11    3     -1.22      0.00
    5   11    3      1.64      0.00
    6   11    3     -1.65      0.00
    7   11    3     -1.31      0.00
    8   11    3      1.39      0.00
    9   11    3      0.28      0.00
   10   11    3      0.31      0.00
   11   11    3     -0.79      0.00
  -12   12    3      0.44      0.00
  -11   12    3      0.10      0.00
  -10   12    3     -0.74      0.00
   -9   12    3      0.93      0.00
   -8   12    3     -0.40      0.00
   -7   12    3     -0.81      0.00
   -6   12    3     -0.08      0.00
   -5   12    3     -0.24      0.00
   -4   12    3      0.02      0.00
   -3   12    3      0.95      0.00
   -2   12    3      0.52      0.00
   -1   12    3      0.87      0.00
    0   12    3      1.29      0.00
    1   12    3     -0.11      0.00
    2   12    3     -0.57      0.00
    3   12    3      0.52      0.00
    4   12    3      0.28      0.00
    5   12    3     -0.40      0.00
    6   12    3      3.09      0.00
    7   12    3     -0.18      0.00
    8   12    3     -1.72      0.00
    9   12    3     -0.11      0.00
   10   12    3     -0.16      0.00
  -12   13    3      1.11      0.00
  -11   13    3      0.48      0.00
  -10   13    3      0.66      0.00
   -9   13    3     -0.56      0.00
   -8   13    3      0.89      0.00
   -7   13    3      0.48      0.00
   -6   13    3      0.76      0.00
   -5   13    3      0.66      0.00
   -4   13    3     -0.95      0.00
   -3   13    3     -0.92      0.00
   -2   13    3      0.06      0.00
   -1   13    3     -0.56      0.00
    0   13    3     -0.27      0.00
    1   13    3      0.26      0.00
    2   13    3      0.18      0.00
    3   13    3     -0.62      0.00
    4   13    3      0.00      0.00
    5   13    3     -0.69      0.00
    6   13    3     -0.50      0.00
    7   13    3      2.33      0.00
    8   13    3      1.36      0.00
    9   13    3      1.11      0.00
  -12   14    3      1.59      0.00
  -11   14    3     -0.13      0.00
  -10   14    3      0.02      0.00
   -9   14    3      0.49      0.00
   -8   14    3     -0.24      0.00
   -7   14    3      0.00      0.00
   -6   14    3     -0.73      0.00
   -5   14    3      0.67      0.00
   -4   14    3      0.92      0.00
   -3   14    3     -0.49      0.00
   -2   14    3     -1.16      0.00
   -1   14    3     -0.09      0.00
    0   14    3     -0.47      0.00
    1   14    3     -0.76      0.00
    2   14    3     -0.82      0.00
    3   14    3     -0.53      0.00
    4   14    3      0.23      0.00
    5   14    3      1.23      0.00
    6   14    3     -1.25      0.00
    7   14    3     -0.58      0.00
    8   14    3     -1.16      0.00
    9   14    3     -0.92      0.00
  -11   15    3      2.40      0.00
  -10   15    3      0.16      0.00
   -9   15    3      0.12      0.00
   -8   15    3     -0.37      0.00
   -7   15    3      0.15      0.00
   -6   15    3      0.28      0.00
   -5   15    3     -0.70      0.00
   -4   15    3      0.75      0.00
   -3   15    3      1.88      0.00
   -2   15    3      1.83      0.00
   -1   15    3      0.66      0.00
    0   15    3      0.42      0.00
    1   15    3      0.17      0.00
    2   15    3      0.39      0.00
    3   15    3     -0.10      0.00
    4   15    3     -1.97      0.00
    5   15    3     -0.84      0.00
    6   15    3      2.27      0.00
    7   15    3      0.86      0.00
    8   15    3      2.22      0.00
  -10   16    3      1.17      0.00
   -9   16    3      0.63      0.00
   -8   16    3      0.80      0.00
   -7   16    3      0.04      0.00
   -6   16    3      0.44      0.00
   -5   16    3     -0.09      0.00
   -4   16    3     -1.16      0.00
   -3   16    3     -0.68      0.00
   -2   16    3     -0.01      0.00
   -1   16    3      0.93      0.00
    0   16    3      1.39      0.00
    1   16    3      0.16      0.00
    2   16    3     -1.01      0.00
    3   16    3      0.04      0.00
    4   16    3      1.78      0.00
    5   16    3     -0.69      0.00
    6   16    3     -2.39      0.00
    7   16    3     -1.01      0.00
   -9   17    3     -0.43      0.00
   -8   17    3     -0.07      0.00
   -7   17    3     -0.24      0.00
   -6   17    3      0.07      0.00
   -5   17    3      0.60      0.00
   -4   17    3     -0.05      0.00
   -3   17    3     -0.63      0.00
   -2   17    3     -0.29      0.00
   -1   17    3     -0.94      0.00
    0   17    3     -0.99      0.00
    1   17    3      0.75      0.00
    2   17    3      0.56      0.00
    3   17    3     -0.36      0.00
    4   17    3     -0.49      0.00
    5   17    3      1.94      0.00
   -8   18    3      0.15      0.00
   -7   18    3      0.66      0.00
   -6   18    3      0.28      0.00
   -5   18    3      1.06      0.00
   -4   18    3      1.12      0.00
   -3   18    3     -0.48      0.00
   -2   18    3     -0.77      0.00
   -1   18    3      0.39      0.00
    0   18    3      0.04      0.00
    1   18    3     -0.66      0.00
    2   18    3      0.24      0.00
    3   18    3      0.41      0.00
    4   18    3      0.23      0.00
   -5   19    3     -0.93      0.00
   -4   19    3      0.41      0.00
   -3   19    3      1.78      0.00
   -2   19    3      0.21      0.00
   -1   19    3     -0.55      0.00
    0   19    3      0.30      0.00
    1   19    3      0.70      0.00
   -2  -19    4      0.21      0.00
   -1  -19    4     -0.31      0.00
    0  -19    4      0.63      0.00
    1  -19    4     -0.53      0.00
    2  -19    4     -0.94      0.00
    3  -19    4     -0.16      0.00
    4  -19    4     -0.35      0.00
   -5  -18    4     -2.39      0.00
   -4  -18    4     -0.44      0.00
   -3  -18    4     -1.43      0.00
   -2  -18    4      1.92      0.00
   -1  -18    4      1.67      0.00
    0  -18    4     -1.31      0.00
    1  -18    4      0.86      0.00
    2  -18    4      0.78      0.00
    3  -18    4     -0.40      0.00
    4  -18    4      0.24      0.00
    5  -18    4     -0.08      0.00
    6  -18    4      1.24      0.00
    7  -18    4      0.87      0.00
   -6  -17    4      4.34      0.00
   -5  -17    4      1.56      0.00
   -4  -17    4     -0.81      0.00
   -3  -17    4      0.28      0.00
   -2  -17    4     -2.48      0.00
   -1  -17    4      0.70      0.00
    0  -17    4      2.98      0.00
    1  -17    4     -0.48      0.00
    2  -17    4     -0.16      0.00
    3  -17    4      0.17      0.00
    4  -17    4     -0.40      0.00
    5  -17    4     -0.86      0.00
    6  -17    4     -1.91      0.00
    7  -17    4     -0.82      0.00
    8  -17    4      0.21      0.00
   -7  -16    4     -0.98      0.00
   -6  -16    4     -4.28      0.00
   -5  -16    4      2.26      0.00
   -4  -16    4      1.02      0.00
   -3  -16    4     -0.97      0.00
   -2  -16    4      0.70      0.00
   -1  -16    4     -1.35      0.00
    0  -16    4     -1.64      0.00
    1  -16    4      1.20      0.00
    2  -16    4      0.20      0.00
    3  -16    4      0.00      0.00
    4  -16    4      0.54      0.00
    5  -16    4      1.00      0.00
    6  -16    4      0.52      0.00
    7  -16    4     -1.64      0.00
    8  -16    4     -1.08      0.00
    9  -16    4     -0.19      0.00
   -9  -15    4      2.34      0.00
   -8  -15    4      0.95      0.00
   -7  -15    4      2.49      0.00
   -6  -15    4     -1.35      0.00
   -5  -15    4     -2.97      0.00
   -4  -15    4      1.00      0.00
   -3  -15    4      1.07      0.00
   -2  -15    4     -1.47      0.00
   -1  -15    4     -0.32      0.00
    0  -15    4      0.26      0.00
    1  -15    4     -0.38      0.00
    2  -15    4      0.98      0.00
    3  -15    4      0.53      0.00
    4  -15    4     -0.56      0.00
    5  -15    4     -0.39      0.00
    6  -15    4      0.50      0.00
    7  -15    4      1.87      0.00
    8  -15    4     -0.73      0.00
    9  -15    4     -0.24      0.00
   10  -15    4      0.56      0.00
   -9  -14    4     -2.02      0.00
   -8  -14    4     -0.41      0.00
   -7  -14    4      0.29      0.00
   -6  -14    4      3.04      0.00
   -5  -14    4     -0.34      0.00
   -4  -14    4     -1.18      0.00
   -3  -14    4      0.36      0.00
   -2  -14    4      1.50      0.00
   -1  -14    4      0.70      0.00
    0  -14    4     -0.54      0.00
    1  -14    4     -0.98      0.00
    2  -14    4     -1.20      0.00
    3  -14    4     -0.31      0.00
    4  -14    4      0.50      0.00
    5  -14    4     -0.23      0.00
    6  -14    4     -0.81      0.00
    7  -14    4     -0.82      0.00
    8  -14    4      1.85      0.00
    9  -14    4      0.39      0.00
   10  -14    4     -0.05      0.00
   11  -14    4      0.22      0.00
  -10  -13    4      1.22      0.00
   -9  -13    4      0.46      0.00
   -8  -13    4     -0.12      0.00
   -7  -13    4     -1.39      0.00
   -6  -13    4     -1.06      0.00
   -5  -13    4     -0.06      0.00
   -4  -13    4     -0.82      0.00
   -3  -13    4     -0.80      0.00
   -2  -13    4     -1.09      0.00
   -1  -13    4     -0.05      0.00
    0  -13    4      1.76      0.00
    1  -13    4      0.74      0.00
    2  -13    4      0.59      0.00
    3  -13    4     -0.08      0.00
    4  -13    4     -0.54      0.00
    5  -13    4     -0.06      0.00
    6  -13    4      0.42      0.00
    7  -13    4      0.01      0.00
    8  -13    4     -0.72      0.00
    9  -13    4      0.43      0.00
   10  -13    4      0.51      0.00
   11  -13    4      0.00      0.00
   12  -13    4     -0.49      0.00
  -11  -12    4      0.84      0.00
  -10  -12    4      0.47      0.00
   -9  -12    4      1.33      0.00
   -8  -12    4      0.74      0.00
   -7  -12    4      0.31      0.00
   -6  -12    4     -0.03      0.00
   -5  -12    4      0.60      0.00
   -4  -12    4      0.19      0.00
   -3  -12    4      0.25      0.00
   -2  -12    4      0.16      0.00
   -1  -12    4     -2.20      0.00
    0  -12    4     -0.73      0.00
    1  -12    4      0.65      0.00
    2  -12    4     -0.65      0.00
    3  -12    4      0.34      0.00
    4  -12    4      0.40      0.00
    5  -12    4      0.69      0.00
    6  -12    4     -0.01      0.00
    7  -12    4      0.20      0.00
    8  -12    4      0.34      0.00
    9  -12    4      0.02      0.00
   10  -12    4     -0.58      0.00
   11  -12    4     -0.38      0.00
   12  -12    4     -0.60      0.00
  -12  -11    4      0.26      0.00
  -11  -11    4     -0.79      0.00
  -10  -11    4      0.03      0.00
   -9  -11    4     -0.41      0.00
   -8  -11    4     -0.15      0.00
   -7  -11    4      0.89      0.00
   -6  -11    4     -0.44      0.00
   -5  -11    4     -0.08      0.00
   -4  -11    4     -0.26      0.00
   -3  -11    4     -0.49      0.00
   -2  -11    4      1.54      0.00
   -1  -11    4      1.03      0.00
    0  -11    4     -2.24      0.00
    1  -11    4     -0.24      0.00
    2  -11    4      0.20      0.00
    3  -11    4     -0.94      0.00
    4  -11    4     -0.75      0.00
    5  -11    4     -0.99      0.00
    6  -11    4      0.17      0.00
    7  -11    4     -0.11      0.00
    8  -11    4     -0.54      0.00
    9  -11    4      1.35      0.00
   10  -11    4      1.79      0.00
   11  -11    4      0.35      0.00
   12  -11    4      0.86      0.00
   13  -11    4     -0.16      0.00
  -12  -10    4     -0.26      0.00
  -11  -10    4      0.18      0.00
  -10  -10    4      0.18      0.00
   -9  -10    4      0.60      0.00
   -8  -10    4     -0.82      0.00
   -7  -10    4     -0.32      0.00
   -6  -10    4      0.34      0.00
   -5  -10    4      0.64      0.00
   -4  -10    4      0.92      0.00
   -3  -10    4     -0.77      0.00
   -2  -10    4     -1.83      0.00
   -1  -10    4      2.20      0.00
    0  -10    4      0.68      0.00
    1  -10    4     -0.60      0.00
    2  -10    4      1.20      0.00
    3  -10    4      1.57      0.00
    4  -10    4      1.26      0.00
    5  -10    4      0.10      0.00
    6  -10    4     -0.23      0.00
    7  -10    4     -0.19      0.00
    8  -10    4     -0.52      0.00
    9  -10    4     -3.40      0.00
   10  -10    4     -1.31      0.00
   11  -10    4      0.62      0.00
   12  -10    4     -1.26      0.00
   13  -10    4      0.92      0.00
  -13   -9    4     -0.10      0.00
  -12   -9    4      1.28      0.00
  -11   -9    4     -0.64      0.00
  -10   -9    4     -0.77      0.00
   -9   -9    4      0.84      0.00
   -8   -9    4      0.67      0.00
   -7   -9    4     -0.19      0.00
   -6   -9    4     -0.11      0.00
   -5   -9    4     -1.44      0.00
   -4   -9    4      0.84      0.00
   -3   -9    4      1.28      0.00
   -2   -9    4     -1.33      0.00
   -1   -9    4     -1.96      0.00
    0   -9    4      1.89      0.00
    1   -9    4     -1.37      0.00
    2   -9    4     -1.99      0.00
    3   -9    4     -1.59      0.00
    4   -9    4     -0.08      0.00
    5   -9    4      1.56      0.00
    6   -9    4      0.05      0.00
    7   -9    4      0.79      0.00
    8   -9    4      1.00      0.00
    9   -9    4      2.14      0.00
   10   -9    4     -0.94      0.00
   11   -9    4     -1.74      0.00
   12   -9    4      0.25      0.00
   13   -9    4     -2.58      0.00
  -13   -8    4     -1.69      0.00
  -12   -8    4     -0.66      0.00
  -11   -8    4      1.42      0.00
  -10   -8    4     -0.66      0.00
   -9   -8    4     -1.19      0.00
   -8   -8    4      0.49      0.00
   -7   -8    4     -0.71      0.00
   -6   -8    4      1.42      0.00
   -5   -8    4     -0.50      0.00
   -4   -8    4     -1.51      0.00
   -3   -8    4      0.93      0.00
   -2   -8    4      1.25      0.00
   -1   -8    4     -2.50      0.00
    0   -8    4     -0.46      0.00
    1   -8    4      3.44      0.00
    2   -8    4      0.72      0.00
    3   -8    4      0.35      0.00
    4   -8    4     -1.09      0.00
    5   -8    4     -0.88      0.00
    6   -8    4      1.11      0.00
    7   -8    4     -0.68      0.00
    8   -8    4     -0.49      0.00
    9   -8    4     -0.30      0.00
   10   -8    4      1.67      0.00
   11   -8    4      1.52      0.00
  -14   -7    4      0.05      0.00
  -13   -7    4      1.87      0.00
  -12   -7    4     -0.95      0.00
  -11   -7    4      0.05      0.00
  -10   -7    4      1.84      0.00
   -9   -7    4      0.31      0.00
   -8   -7    4      0.55      0.00
   -7   -7    4     -0.47      0.00
   -6   -7    4     -1.80      0.00
   -5   -7    4      1.92      0.00
   -4   -7    4     -2.04      0.00
   -3   -7    4     -1.60      0.00
   -2   -7    4      1.87      0.00
   -1   -7    4      1.92      0.00
    0   -7    4     -3.30      0.00
    1   -7    4     -1.66      0.00
    2   -7    4      3.32      0.00
    3   -7    4      0.80      0.00
    4   -7    4      0.97      0.00
    5   -7    4     -0.41      0.00
    6   -7    4     -0.46      0.00
    7   -7    4      1.26      0.00
    8   -7    4      0.15      0.00
    9   -7    4     -0.86      0.00
   10   -7    4     -1.78      0.00
   11   -7    4     -0.66      0.00
   12   -7    4      0.18      0.00
   13   -7    4      0.27      0.00
   14   -7    4      2.17      0.00
  -14   -6    4     -0.75      0.00
  -13   -6    4     -0.70      0.00
  -12   -6    4      0.90      0.00
  -11   -6    4     -1.55      0.00
  -10   -6    4     -0.92      0.00
   -9   -6    4     -0.29      0.00
   -8   -6    4     -0.01      0.00
   -7   -6    4      2.58      0.00
   -6   -6    4     -0.80      0.00
   -5   -6    4     -1.01      0.00
   -4   -6    4      1.99      0.00
   -3   -6    4     -2.10      0.00
   -2   -6    4     -2.61      0.00
   -1   -6    4      0.34      0.00
    0   -6    4      0.44      0.00
    1   -6    4     -3.90      0.00
    2   -6    4     -4.56      0.00
    3   -6    4      0.93      0.00
    4   -6    4     -0.62      0.00
    5   -6    4      0.25      0.00
    6   -6    4     -1.46      0.00
    7   -6    4     -0.27      0.00
    8   -6    4      0.47      0.00
    9   -6    4      0.87      0.00
   10   -6    4      0.82      0.00
   11   -6    4     -0.38      0.00
   12   -6    4     -0.29      0.00
   13   -6    4     -1.33      0.00
   14   -6    4     -0.86      0.00
  -14   -5    4      1.89      0.00
  -13   -5    4      0.51      0.00
  -12   -5    4      0.28      0.00
  -11   -5    4      0.79      0.00
  -10   -5    4     -0.07      0.00
   -9   -5    4      0.23      0.00
   -8   -5    4     -1.36      0.00
   -7   -5    4     -1.47      0.00
   -6   -5    4      1.36      0.00
   -5   -5    4     -0.88      0.00
   -4   -5    4     -0.32      0.00
   -3   -5    4      2.44      0.00
   -2   -5    4     -0.02      0.00
   -1   -5    4      2.18      0.00
    0   -5    4      3.07      0.00
    1   -5    4      3.16      0.00
    2   -5    4     -2.00      0.00
    3   -5    4     -1.91      0.00
    4   -5    4      1.38      0.00
    5   -5    4      1.15      0.00
    6   -5    4      1.31      0.00
    7   -5    4     -1.45      0.00
    8   -5    4      0.73      0.00
    9   -5    4     -0.23      0.00
   10   -5    4     -0.46      0.00
   11   -5    4     -0.05      0.00
   12   -5    4      0.63      0.00
   13   -5    4      0.50      0.00
   14   -5    4     -0.98      0.00
  -15   -4    4      0.08      0.00
  -14   -4    4     -1.43      0.00
  -13   -4    4     -0.47      0.00
  -12   -4    4     -0.17      0.00
  -11   -4    4      0.56      0.00
  -10   -4    4      0.48      0.00
   -9   -4    4      0.60      0.00
   -8   -4    4      1.75      0.00
   -7   -4    4      0.78      0.00
   -6   -4    4     -0.56      0.00
   -5   -4    4      0.29      0.00
   -4   -4    4     -1.15      0.00
   -3   -4    4     -1.15      0.00
   -2   -4    4     -3.41      0.00
   -1   -4    4     -5.64      0.00
    0   -4    4      0.41      0.00
    1   -4    4     -0.39      0.00
    2   -4    4      3.97      0.00
    3   -4    4     -3.04      0.00
    4   -4    4     -2.70      0.00
    5   -4    4     -1.76      0.00
    6   -4    4      0.83      0.00
    7   -4    4      1.12      0.00
    8   -4    4     -0.77      0.00
    9   -4    4      1.13      0.00
   10   -4    4      0.48      0.00
   11   -4    4     -0.14      0.00
   12   -4    4     -0.77      0.00
   13   -4    4      1.47      0.00
   14   -4    4      0.23      0.00
  -15   -3    4     -0.09      0.00
  -14   -3    4      0.57      0.00
  -13   -3    4      0.08      0.00
  -12   -3    4     -1.21      0.00
  -11   -3    4     -1.67      0.00
  -10   -3    4     -1.10      0.00
   -9   -3    4     -0.04      0.00
   -8   -3    4     -0.35      0.00
   -7   -3    4      0.45      0.00
   -6   -3    4      0.64      0.00
   -5   -3    4     -0.16      0.00
   -4   -3    4      1.57      0.00
   -3   -3    4      4.94      0.00
   -2   -3    4     11.35      0.00
   -1   -3    4     -7.37      0.00
    0   -3    4     -7.24      0.00
    1   -3    4      1.50      0.00
    2   -3    4     -2.32      0.00
    3   -3    4      3.84      0.00
    4   -3    4      0.40      0.00
    5   -3    4     -1.09      0.00
    6   -3    4     -2.72      0.00
    7   -3    4     -0.63      0.00
    8   -3    4     -0.18      0.00
    9   -3    4      0.23      0.00
   10   -3    4      0.77      0.00
   11   -3    4      0.14      0.00
   12   -3    4     -0.48      0.00
   13   -3    4     -1.16      0.00
   14   -3    4      1.77      0.00
  -15   -2    4      0.02      0.00
  -14   -2    4     -0.77      0.00
  -13   -2    4     -0.06      0.00
  -12   -2    4      0.79      0.00
  -11   -2    4      1.00      0.00
  -10   -2    4      0.04      0.00
   -9   -2    4     -0.99      0.00
   -8   -2    4     -0.10      0.00
   -7   -2    4     -0.68      0.00
   -6   -2    4     -0.72      0.00
   -5   -2    4     -1.09      0.00
   -4   -2    4     -1.37      0.00
   -3   -2    4     -8.03      0.00
   -2   -2    4      5.68      0.00
   -1   -2    4     29.78      0.00
    0   -2    4     -4.27      0.00
    1   -2    4     -6.31      0.00
    2   -2    4      1.53      0.00
    3   -2    4     -1.20      0.00
    4   -2    4      0.49      0.00
    5   -2    4      1.16      0.00
    6   -2    4      0.29      0.00
    7   -2    4     -0.77      0.00
    8   -2    4     -0.10      0.00
    9   -2    4     -0.35      0.00
   10   -2    4     -0.01      0.00
   11   -2    4      0.57      0.00
   12   -2    4     -0.09      0.00
   13   -2    4     -0.62      0.00
   14   -2    4     -0.65      0.00
  -15   -1    4     -1.03      0.00
  -14   -1    4     -0.44      0.00
  -13   -1    4     -0.75      0.00
  -12   -1    4     -0.86      0.00
  -11   -1    4     -0.88      0.00
  -10   -1    4      0.46      0.00
   -9   -1    4      0.44      0.00
   -8   -1    4      0.25      0.00
   -7   -1    4      1.07      0.00
   -6   -1    4      1.94      0.00
   -5   -1    4     -0.03      0.00
   -4   -1    4      1.38      0.00
   -3   -1    4      5.10      0.00
   -2   -1    4    -22.48      0.00
   -1   -1    4     -4.27      0.00
    0   -1    4     23.76      0.00
    1   -1    4     -3.04      0.00
    2   -1    4     -6.07      0.00
    3   -1    4     -1.78      0.00
    4   -1    4      0.11      0.00
    5   -1    4     -0.62      0.00
    6   -1    4      0.37      0.00
    7   -1    4      1.05      0.00
    8   -1    4     -0.15      0.00
    9   -1    4      0.18      0.00
   10   -1    4      0.30      0.00
   11   -1    4     -0.78      0.00
   12   -1    4      0.69      0.00
   13   -1    4     -0.27      0.00
   14   -1    4     -0.61      0.00
  -15    0    4      0.95      0.00
  -14    0    4      0.04      0.00
  -13    0    4      0.48      0.00
  -12    0    4      0.21      0.00
  -11    0    4     -0.69      0.00
  -10    0    4     -0.65      0.00
   -9    0    4     -0.07      0.00
   -8    0    4     -0.54      0.00
   -7    0    4     -2.64      0.00
   -6    0    4     -1.17      0.00
   -5    0    4      3.94      0.00
   -4    0    4     -1.42      0.00
   -3    0    4      8.29      0.00
   -2    0    4     14.45      0.00
   -1    0    4    -23.79      0.00
    0    0    4      0.34      0.00
    1    0    4     13.93      0.00
    2    0    4      3.00      0.00
    3    0    4     -1.38      0.00
    4    0    4     -1.48      0.00
    5    0    4      1.15      0.00
    6    0    4     -1.18      0.00
    7    0    4     -1.95      0.00
    8    0    4      0.53      0.00
    9    0    4     -0.16      0.00
   10    0    4      0.14      0.00
   11    0    4      0.27      0.00
   12    0    4     -1.22      0.00
   13    0    4      1.05      0.00
   14    0    4      0.60      0.00
  -15    1    4     -0.29      0.00
  -14    1    4     -0.82      0.00
  -13    1    4     -1.18      0.00
  -12    1    4      0.83      0.00
  -11    1    4      1.47      0.00
  -10    1    4     -0.16      0.00
   -9    1    4      0.10      0.00
   -8    1    4      1.02      0.00
   -7    1    4      2.89      0.00
   -6    1    4     -3.62      0.00
   -5    1    4     -2.96      0.00
   -4    1    4      3.00      0.00
   -3    1    4     -9.84      0.00
   -2    1    4     12.11      0.00
   -1    1    4     12.98      0.00
    0    1    4    -22.28      0.00
    1    1    4     -4.83      0.00
    2    1    4     -1.35      0.00
    3    1    4      3.74      0.00
    4    1    4      0.91      0.00
    5    1    4     -1.23      0.00
    6    1    4      2.01      0.00
    7    1    4      0.08      0.00
    8    1    4     -1.61      0.00
    9    1    4     -0.25      0.00
   10    1    4      0.14      0.00
   11    1    4      0.28      0.00
   12    1    4      0.35      0.00
   13    1    4     -0.63      0.00
   14    1    4      0.22      0.00
  -15    2    4      0.75      0.00
  -14    2    4      1.36      0.00
  -13    2    4     -0.03      0.00
  -12    2    4     -1.83      0.00
  -11    2    4     -1.11      0.00
  -10    2    4      0.02      0.00
   -9    2    4      0.19      0.00
   -8    2    4     -0.33      0.00
   -7    2    4      0.82      0.00
   -6    2    4      5.02      0.00
   -5    2    4     -3.06      0.00
   -4    2    4     -0.60      0.00
   -3    2    4      5.99      0.00
   -2    2    4     -9.93      0.00
   -1    2    4     14.24      0.00
    0    2    4     12.92      0.00
    1    2    4      2.17      0.00
    2    2    4      2.11      0.00
    3    2    4     -5.58      0.00
    4    2    4      1.16      0.00
    5    2    4      0.60      0.00
    6    2    4     -1.55      0.00
    7    2    4      1.43      0.00
    8    2    4      0.87      0.00
    9    2    4     -0.62      0.00
   10    2    4     -0.49      0.00
   11    2    4      0.51      0.00
   12    2    4     -0.60      0.00
   13    2    4     -0.46      0.00
   14    2    4      0.33      0.00
  -15    3    4      0.07      0.00
  -14    3    4      0.01      0.00
  -13    3    4      1.18      0.00
  -12    3    4      1.50      0.00
  -11    3    4      1.85      0.00
  -10    3    4      0.88      0.00
   -9    3    4     -0.99      0.00
   -8    3    4     -0.81      0.00
   -7    3    4     -3.19      0.00
   -6    3    4     -0.38      0.00
   -5    3    4      4.11      0.00
   -4    3    4     -3.05      0.00
   -3    3    4     -1.95      0.00
   -2    3    4     -0.43      0.00
   -1    3    4     -7.16      0.00
    0    3    4      1.57      0.00
    1    3    4     -9.13      0.00
    2    3    4      2.51      0.00
    3    3    4      4.59      0.00
    4    3    4     -1.98      0.00
    5    3    4      1.07      0.00
    6    3    4     -0.54      0.00
    7    3    4     -1.97      0.00
    8    3    4      0.20      0.00
    9    3    4      0.78      0.00
   10    3    4     -1.33      0.00
   11    3    4     -1.03      0.00
   12    3    4      1.05      0.00
   13    3    4      0.25      0.00
   14    3    4     -0.34      0.00
  -15    4    4      0.05      0.00
  -14    4    4     -0.43      0.00
  -13    4    4     -0.03      0.00
  -12    4    4     -0.39      0.00
  -11    4    4     -1.81      0.00
  -10    4    4      0.87      0.00
   -9    4    4      2.09      0.00
   -8    4    4      0.90      0.00
   -7    4    4      0.89      0.00
   -6    4    4     -3.91      0.00
   -5    4    4     -0.74      0.00
   -4    4    4      3.31      0.00
   -3    4    4      1.71      0.00
   -2    4    4      1.68      0.00
   -1    4    4     -5.03      0.00
    0    4    4      5.51      0.00
    1    4    4      7.45      0.00
    2    4    4     -8.82      0.00
    3    4    4     -0.96      0.00
    4    4    4      2.70      0.00
    5    4    4     -0.29      0.00
    6    4    4      2.20      0.00
    7    4    4      0.11      0.00
    8    4    4     -0.54      0.00
    9    4    4      0.18      0.00
   10    4    4      0.20      0.00
   11    4    4     -1.63      0.00
   12    4    4     -2.05      0.00
   13    4    4     -0.75      0.00
   14    4    4      0.32      0.00
  -15    5    4     -0.03      0.00
  -14    5    4      1.25      0.00
  -13    5    4     -0.26      0.00
  -12    5    4      0.59      0.00
  -11    5    4      1.88      0.00
  -10    5    4     -2.18      0.00
   -9    5    4     -1.10      0.00
   -8    5    4      0.38      0.00
   -7    5    4      0.79      0.00
   -6    5    4      2.04      0.00
   -5    5    4     -2.18      0.00
   -4    5    4     -1.58      0.00
   -3    5    4     -0.15      0.00
   -2    5    4      4.27      0.00
   -1    5    4      2.14      0.00
    0    5    4    -11.75      0.00
    1    5    4      3.87      0.00
    2    5    4      7.38      0.00
    3    5    4     -3.83      0.00
    4    5    4     -0.93      0.00
    5    5    4      1.01      0.00
    6    5    4     -0.43      0.00
    7    5    4     -0.13      0.00
    8    5    4     -1.94      0.00
    9    5    4      0.05      0.00
   10    5    4      1.23      0.00
   11    5    4      0.12      0.00
   12    5    4      1.15      0.00
   13    5    4      0.33      0.00
  -15    6    4     -0.36      0.00
  -14    6    4     -0.73      0.00
  -13    6    4      1.56      0.00
  -12    6    4     -0.06      0.00
  -11    6    4     -1.30      0.00
  -10    6    4      2.27      0.00
   -9    6    4     -1.05      0.00
   -8    6    4     -1.13      0.00
   -7    6    4      0.41      0.00
   -6    6    4     -0.09      0.00
   -5    6    4      0.08      0.00
   -4    6    4     -1.00      0.00
   -3    6    4     -2.59      0.00
   -2    6    4     -5.65      0.00
   -1    6    4      4.47      0.00
    0    6    4      3.74      0.00
    1    6    4    -10.09      0.00
    2    6    4      0.75      0.00
    3    6    4      5.14      0.00
    4    6    4     -1.42      0.00
    5    6    4     -0.59      0.00
    6    6    4     -0.97      0.00
    7    6    4      1.39      0.00
    8    6    4      0.60      0.00
    9    6    4     -2.46      0.00
   10    6    4     -0.48      0.00
   11    6    4     -0.46      0.00
   12    6    4     -2.58      0.00
   13    6    4      0.66      0.00
  -15    7    4      0.09      0.00
  -14    7    4      0.69      0.00
  -13    7    4     -0.41      0.00
  -12    7    4      1.15      0.00
  -10    7    4     -0.98      0.00
   -9    7    4      1.76      0.00
   -8    7    4     -0.35      0.00
   -7    7    4     -2.08      0.00
   -6    7    4      0.49      0.00
   -5    7    4      0.89      0.00
   -4    7    4     -0.94      0.00
   -3    7    4      1.55      0.00
   -2    7    4      2.25      0.00
   -1    7    4     -5.24      0.00
    0    7    4      2.57      0.00
    1    7    4      3.96      0.00
    2    7    4     -5.14      0.00
    3    7    4     -0.66      0.00
    4    7    4      1.57      0.00
    5    7    4      0.29      0.00
    6    7    4      0.55      0.00
    7    7    4     -1.51      0.00
    8    7    4      1.07      0.00
    9    7    4      1.17      0.00
   10    7    4     -0.19      0.00
   11    7    4      1.99      0.00
   12    7    4      0.02      0.00
   13    7    4     -2.63      0.00
  -15    8    4     -0.72      0.00
  -14    8    4     -2.19      0.00
  -13    8    4      0.14      0.00
   -9    8    4      0.36      0.00
   -8    8    4      1.80      0.00
   -7    8    4      1.06      0.00
   -6    8    4     -1.76      0.00
   -5    8    4     -0.27      0.00
   -4    8    4      1.56      0.00
   -3    8    4     -2.02      0.00
   -2    8    4     -0.12      0.00
   -1    8    4      3.08      0.00
    0    8    4     -2.92      0.00
    1    8    4     -0.42      0.00
    2    8    4      1.84      0.00
    3    8    4     -0.76      0.00
    4    8    4      0.64      0.00
    5    8    4      0.01      0.00
    6    8    4      0.52      0.00
    7    8    4     -0.10      0.00
    8    8    4     -0.56      0.00
    9    8    4     -0.42      0.00
   10    8    4     -1.39      0.00
   11    8    4     -1.08      0.00
   12    8    4      2.17      0.00
  -14    9    4      1.35      0.00
  -13    9    4     -3.08      0.00
   -9    9    4     -1.87      0.00
   -8    9    4     -1.01      0.00
   -7    9    4      0.33      0.00
   -6    9    4      0.61      0.00
   -5    9    4     -0.92      0.00
   -4    9    4     -0.50      0.00
   -3    9    4      1.42      0.00
   -2    9    4     -1.51      0.00
   -1    9    4     -0.87      0.00
    0    9    4      2.40      0.00
    1    9    4     -0.12      0.00
    2    9    4     -1.79      0.00
    3    9    4     -1.29      0.00
    4    9    4     -0.20      0.00
    5    9    4     -0.67      0.00
    6    9    4      0.06      0.00
    7    9    4      0.97      0.00
    8    9    4     -0.50      0.00
    9    9    4      0.33      0.00
   10    9    4     -0.55      0.00
   11    9    4     -2.34      0.00
   12    9    4     -2.77      0.00
  -14   10    4      1.92      0.00
   -9   10    4      0.50      0.00
   -8   10    4     -1.15      0.00
   -7   10    4     -0.78      0.00
   -6   10    4      0.11      0.00
   -5   10    4      0.35      0.00
   -4   10    4     -0.11      0.00
   -3   10    4      0.50      0.00
   -2   10    4      2.13      0.00
   -1   10    4      0.42      0.00
    0   10    4     -0.85      0.00
    1   10    4      0.99      0.00
    2   10    4      2.27      0.00
    3   10    4      0.43      0.00
    4   10    4     -0.59      0.00
    5   10    4      1.51      0.00
    6   10    4     -1.69      0.00
    7   10    4     -0.68      0.00
    8   10    4      0.88      0.00
    9   10    4      0.15      0.00
   10   10    4      1.30      0.00
   11   10    4      0.93      0.00
  -10   11    4     -1.57      0.00
   -9   11    4      0.57      0.00
   -8   11    4      0.49      0.00
   -7   11    4     -0.11      0.00
   -6   11    4      0.25      0.00
   -5   11    4     -0.22      0.00
   -4   11    4     -0.04      0.00
   -3   11    4     -0.44      0.00
   -2   11    4     -0.83      0.00
   -1   11    4      0.60      0.00
    0   11    4      1.24      0.00
    1   11    4     -0.32      0.00
    2   11    4     -1.46      0.00
    3   11    4      0.59      0.00
    4   11    4      0.00      0.00
    5   11    4     -0.61      0.00
    6   11    4      2.69      0.00
    7   11    4     -0.69      0.00
    8   11    4     -1.41      0.00
    9   11    4     -0.04      0.00
   10   11    4     -0.32      0.00
   11   11    4     -0.07      0.00
  -11   12    4      1.68      0.00
  -10   12    4      0.79      0.00
   -9   12    4     -0.66      0.00
   -8   12    4      0.42      0.00
   -7   12    4     -0.02      0.00
   -6   12    4     -0.34      0.00
   -5   12    4      0.41      0.00
   -4   12    4     -0.56      0.00
   -3   12    4      0.41      0.00
   -2   12    4      1.19      0.00
   -1   12    4     -0.30      0.00
    0   12    4     -0.39      0.00
    1   12    4      0.45      0.00
    2   12    4      0.60      0.00
    3   12    4     -0.67      0.00
    4   12    4      1.03      0.00
    5   12    4     -0.09      0.00
    6   12    4     -0.75      0.00
    7   12    4      2.12      0.00
    8   12    4      0.61      0.00
    9   12    4     -0.51      0.00
   10   12    4      0.07      0.00
  -12   13    4      0.70      0.00
  -11   13    4     -0.23      0.00
  -10   13    4      0.73      0.00
   -9   13    4      0.45      0.00
   -8   13    4     -0.80      0.00
   -7   13    4      0.10      0.00
   -6   13    4     -0.09      0.00
   -5   13    4      0.39      0.00
   -4   13    4      0.76      0.00
   -3   13    4     -0.93      0.00
   -2   13    4     -0.70      0.00
   -1   13    4      0.91      0.00
    0   13    4      0.07      0.00
    1   13    4     -0.33      0.00
    2   13    4     -0.59      0.00
    3   13    4     -0.81      0.00
    4   13    4     -0.89      0.00
    5   13    4      0.83      0.00
    6   13    4     -0.84      0.00
    7   13    4     -0.28      0.00
    8   13    4      0.19      0.00
    9   13    4      0.62      0.00
  -12   14    4     -1.08      0.00
  -11   14    4      1.18      0.00
  -10   14    4     -0.06      0.00
   -9   14    4      0.55      0.00
   -8   14    4      0.66      0.00
   -7   14    4     -0.21      0.00
   -6   14    4     -0.31      0.00
   -5   14    4     -0.96      0.00
   -4   14    4     -0.02      0.00
   -3   14    4      1.40      0.00
   -2   14    4      0.77      0.00
   -1   14    4     -0.23      0.00
    0   14    4      0.12      0.00
    1   14    4     -0.36      0.00
    2   14    4      0.35      0.00
    3   14    4      0.72      0.00
    4   14    4     -0.62      0.00
    5   14    4      0.69      0.00
    6   14    4      1.89      0.00
    7   14    4     -0.53      0.00
    8   14    4      0.34      0.00
  -11   15    4     -0.43      0.00
  -10   15    4      0.31      0.00
   -9   15    4     -0.38      0.00
   -8   15    4      0.05      0.00
   -7   15    4      0.36      0.00
   -6   15    4      0.67      0.00
   -5   15    4      0.32      0.00
   -4   15    4     -0.30      0.00
   -3   15    4     -1.07      0.00
   -2   15    4     -0.21      0.00
   -1   15    4      0.72      0.00
    0   15    4      0.94      0.00
    1   15    4      0.11      0.00
    2   15    4     -1.64      0.00
    3   15    4     -0.74      0.00
    4   15    4      1.14      0.00
    5   15    4     -1.41      0.00
    6   15    4     -0.07      0.00
    7   15    4      0.73      0.00
  -10   16    4      0.57      0.00
   -9   16    4      0.28      0.00
   -8   16    4      0.62      0.00
   -7   16    4      0.17      0.00
   -6   16    4      0.35      0.00
   -5   16    4      0.63      0.00
   -4   16    4     -0.18      0.00
   -3   16    4      0.04      0.00
   -2   16    4     -1.07      0.00
   -1   16    4     -2.07      0.00
    0   16    4     -2.09      0.00
    1   16    4      0.22      0.00
    2   16    4      1.20      0.00
    3   16    4     -0.09      0.00
    4   16    4     -0.13      0.00
    5   16    4      2.41      0.00
    6   16    4      0.29      0.00
   -9   17    4     -0.11      0.00
   -8   17    4     -0.74      0.00
   -7   17    4      0.35      0.00
   -6   17    4     -0.34      0.00
   -5   17    4      0.66      0.00
   -4   17    4      1.27      0.00
   -3   17    4      0.14      0.00
   -2   17    4      0.97      0.00
   -1   17    4      1.60      0.00
    0   17    4      0.48      0.00
    1   17    4     -1.35      0.00
    2   17    4     -0.78      0.00
    3   17    4     -0.27      0.00
    4   17    4     -0.78      0.00
    5   17    4     -1.16      0.00
   -7   18    4     -0.08      0.00
   -6   18    4      0.23      0.00
   -5   18    4     -1.05      0.00
   -4   18    4      0.40      0.00
   -3   18    4      1.90      0.00
   -2   18    4     -0.06      0.00
   -1   18    4     -0.32      0.00
    0   18    4      0.97      0.00
    1   18    4      0.82      0.00
    2   18    4      0.13      0.00
    3   18    4     -0.05      0.00
   -5   19    4      0.34      0.00
   -4   19    4     -1.42      0.00
   -3   19    4     -0.69      0.00
   -2   19    4      2.14      0.00
   -1   19    4      1.10      0.00
    0   19    4     -0.19      0.00
    1   19    4      0.11      0.00
   -2  -19    5      1.35      0.00
   -1  -19    5      0.63      0.00
    0  -19    5     -0.25      0.00
    1  -19    5      1.06      0.00
    2  -19    5     -1.09      0.00
    3  -19    5     -1.08      0.00
    4  -19    5     -0.11      0.00
   -4  -18    5      0.70      0.00
   -3  -18    5      0.49      0.00
   -2  -18    5     -3.40      0.00
   -1  -18    5      0.37      0.00
    0  -18    5      1.47      0.00
    1  -18    5      0.04      0.00
    2  -18    5      1.90      0.00
    3  -18    5      0.46      0.00
    4  -18    5     -0.11      0.00
    5  -18    5     -0.97      0.00
    6  -18    5     -2.01      0.00
   -6  -17    5     -3.64      0.00
   -5  -17    5      1.72      0.00
   -4  -17    5      0.31      0.00
   -3  -17    5      0.45      0.00
   -2  -17    5      1.80      0.00
   -1  -17    5     -1.69      0.00
    0  -17    5     -1.10      0.00
    1  -17    5      0.36      0.00
    2  -17    5     -0.51      0.00
    3  -17    5      0.55      0.00
    4  -17    5      0.66      0.00
    5  -17    5      1.56      0.00
    6  -17    5      0.52      0.00
    7  -17    5     -1.90      0.00
    8  -17    5     -1.74      0.00
   -7  -16    5      3.19      0.00
   -6  -16    5     -0.27      0.00
   -5  -16    5     -2.55      0.00
   -4  -16    5      0.93      0.00
   -3  -16    5      0.46      0.00
   -2  -16    5     -1.32      0.00
   -1  -16    5      0.28      0.00
    0  -16    5      0.18      0.00
    1  -16    5     -0.10      0.00
    2  -16    5      0.19      0.00
    3  -16    5     -0.55      0.00
    4  -16    5     -1.42      0.00
    5  -16    5     -0.61      0.00
    6  -16    5      1.57      0.00
    7  -16    5      2.91      0.00
    8  -16    5      0.45      0.00
    9  -16    5      0.03      0.00
   -9  -15    5     -0.43      0.00
   -8  -15    5     -0.63      0.00
   -7  -15    5     -0.78      0.00
   -6  -15    5      2.92      0.00
   -5  -15    5     -0.38      0.00
   -4  -15    5     -1.60      0.00
   -3  -15    5      0.89      0.00
   -2  -15    5      2.10      0.00
   -1  -15    5      0.98      0.00
    0  -15    5      0.19      0.00
    1  -15    5     -0.17      0.00
    2  -15    5      0.42      0.00
    3  -15    5      0.81      0.00
    4  -15    5      0.80      0.00
    5  -15    5     -1.41      0.00
    6  -15    5     -2.31      0.00
    7  -15    5     -1.18      0.00
    8  -15    5      2.31      0.00
    9  -15    5      1.35      0.00
   10  -15    5      0.35      0.00
   -9  -14    5     -0.02      0.00
   -8  -14    5      0.68      0.00
   -7  -14    5     -1.79      0.00
   -6  -14    5     -0.99      0.00
   -5  -14    5      0.62      0.00
   -4  -14    5     -0.99      0.00
   -3  -14    5     -1.83      0.00
   -2  -14    5     -1.16      0.00
   -1  -14    5     -1.12      0.00
    0  -14    5      0.93      0.00
    1  -14    5      0.34      0.00
    2  -14    5     -0.77      0.00
    3  -14    5     -0.61      0.00
    4  -14    5     -0.21      0.00
    5  -14    5      0.85      0.00
    6  -14    5      0.93      0.00
    7  -14    5     -1.03      0.00
    8  -14    5     -2.41      0.00
    9  -14    5     -0.51      0.00
   10  -14    5      0.83      0.00
   11  -14    5      0.90      0.00
  -10  -13    5      0.14      0.00
   -9  -13    5      1.69      0.00
   -8  -13    5      0.02      0.00
   -7  -13    5      0.57      0.00
   -6  -13    5     -0.72      0.00
   -5  -13    5      0.82      0.00
   -4  -13    5      0.88      0.00
   -3  -13    5     -0.27      0.00
   -2  -13    5     -0.19      0.00
   -1  -13    5     -0.54      0.00
    0  -13    5     -1.46      0.00
    1  -13    5      0.77      0.00
    2  -13    5      0.44      0.00
    3  -13    5      0.37      0.00
    4  -13    5      0.22      0.00
    5  -13    5     -0.01      0.00
    6  -13    5     -0.46      0.00
    7  -13    5      1.04      0.00
    8  -13    5      0.75      0.00
    9  -13    5     -0.05      0.00
   10  -13    5     -0.99      0.00
   11  -13    5     -0.52      0.00
  -11  -12    5     -0.19      0.00
  -10  -12    5     -0.51      0.00
   -9  -12    5     -0.30      0.00
   -8  -12    5     -0.05      0.00
   -7  -12    5      1.01      0.00
   -6  -12    5     -0.17      0.00
   -5  -12    5     -0.69      0.00
   -4  -12    5      0.19      0.00
   -3  -12    5      0.84      0.00
   -2  -12    5      0.93      0.00
   -1  -12    5      0.75      0.00
    0  -12    5     -0.86      0.00
    1  -12    5     -0.63      0.00
    2  -12    5      0.48      0.00
    3  -12    5     -0.01      0.00
    4  -12    5      0.03      0.00
    5  -12    5      0.05      0.00
    6  -12    5      0.28      0.00
    7  -12    5     -0.50      0.00
    8  -12    5     -0.58      0.00
    9  -12    5      0.39      0.00
   10  -12    5      0.97      0.00
   11  -12    5      0.12      0.00
   12  -12    5      0.74      0.00
  -12  -11    5     -0.87      0.00
  -11  -11    5      0.35      0.00
  -10  -11    5     -0.27      0.00
   -9  -11    5      0.32      0.00
   -8  -11    5     -0.55      0.00
   -7  -11    5     -1.50      0.00
   -6  -11    5      0.40      0.00
   -5  -11    5      0.26      0.00
   -4  -11    5     -0.28      0.00
   -3  -11    5     -1.58      0.00
   -2  -11    5     -1.66      0.00
   -1  -11    5      1.23      0.00
    0  -11    5      0.26      0.00
    1  -11    5     -1.20      0.00
    2  -11    5     -0.51      0.00
    3  -11    5     -0.35      0.00
    4  -11    5     -0.06      0.00
    5  -11    5     -0.21      0.00
    6  -11    5      0.17      0.00
    7  -11    5      0.20      0.00
    8  -11    5      0.22      0.00
    9  -11    5     -2.29      0.00
   10  -11    5     -0.58      0.00
   11  -11    5     -0.09      0.00
   12  -11    5     -2.22      0.00
  -12  -10    5      0.50      0.00
  -11  -10    5     -0.19      0.00
  -10  -10    5      0.51      0.00
   -9  -10    5      0.47      0.00
   -8  -10    5      1.03      0.00
   -7  -10    5      0.14      0.00
   -6  -10    5     -0.61      0.00
   -5  -10    5     -0.79      0.00
   -4  -10    5      1.31      0.00
   -3  -10    5      1.79      0.00
   -2  -10    5     -1.14      0.00
   -1  -10    5     -1.62      0.00
    0  -10    5      2.45      0.00
    1  -10    5      0.52      0.00
    2  -10    5      0.21      0.00
    3  -10    5      0.29      0.00
    4  -10    5      0.74      0.00
    5  -10    5      1.09      0.00
    6  -10    5      0.20      0.00
    7  -10    5      0.63      0.00
    8  -10    5      0.85      0.00
    9  -10    5      2.25      0.00
   10  -10    5     -1.39      0.00
   11  -10    5     -0.21      0.00
   12  -10    5      1.03      0.00
   13  -10    5     -3.09      0.00
  -13   -9    5     -2.82      0.00
  -12   -9    5     -0.39      0.00
  -11   -9    5      0.30      0.00
  -10   -9    5     -1.01      0.00
   -9   -9    5     -0.73      0.00
   -8   -9    5      0.86      0.00
   -7   -9    5     -0.22      0.00
   -6   -9    5      0.90      0.00
   -5   -9    5     -0.69      0.00
   -4   -9    5     -2.29      0.00
   -3   -9    5      0.49      0.00
   -2   -9    5      2.14      0.00
   -1   -9    5     -2.64      0.00
    0   -9    5     -1.72      0.00
    1   -9    5      1.27      0.00
    2   -9    5     -0.60      0.00
    3   -9    5     -0.09      0.00
    4   -9    5     -1.63      0.00
    5   -9    5     -0.23      0.00
    6   -9    5      0.61      0.00
    7   -9    5     -0.19      0.00
    8   -9    5     -0.54      0.00
    9   -9    5     -0.56      0.00
   10   -9    5      1.59      0.00
   11   -9    5     -0.06      0.00
   12   -9    5      0.26      0.00
   13   -9    5      1.99      0.00
  -13   -8    5      2.80      0.00
  -12   -8    5     -0.87      0.00
  -11   -8    5      0.49      0.00
  -10   -8    5      1.55      0.00
   -9   -8    5     -0.90      0.00
   -8   -8    5     -0.64      0.00
   -7   -8    5      0.29      0.00
   -6   -8    5     -1.27      0.00
   -5   -8    5      2.40      0.00
   -4   -8    5     -0.78      0.00
   -3   -8    5     -2.34      0.00
   -2   -8    5      1.03      0.00
   -1   -8    5      2.63      0.00
    0   -8    5     -3.42      0.00
    1   -8    5     -0.87      0.00
    2   -8    5      2.04      0.00
    3   -8    5      0.18      0.00
    4   -8    5      1.20      0.00
    5   -8    5     -1.47      0.00
    6   -8    5     -0.56      0.00
    7   -8    5      0.47      0.00
    8   -8    5      0.14      0.00
    9   -8    5     -0.55      0.00
   10   -8    5     -1.33      0.00
   11   -8    5     -0.35      0.00
   12   -8    5     -0.72      0.00
   13   -8    5     -0.38      0.00
  -14   -7    5     -2.17      0.00
  -13   -7    5      0.01      0.00
  -12   -7    5      1.21      0.00
  -11   -7    5     -1.63      0.00
  -10   -7    5     -0.23      0.00
   -9   -7    5      1.16      0.00
   -8   -7    5     -0.27      0.00
   -7   -7    5      1.82      0.00
   -6   -7    5     -0.73      0.00
   -5   -7    5     -1.50      0.00
   -4   -7    5      2.21      0.00
   -3   -7    5     -1.05      0.00
   -2   -7    5     -2.74      0.00
   -1   -7    5      2.25      0.00
    0   -7    5      3.75      0.00
    1   -7    5     -2.94      0.00
    2   -7    5     -2.17      0.00
    3   -7    5      1.54      0.00
    4   -7    5      0.52      0.00
    5   -7    5      1.87      0.00
    6   -7    5     -0.68      0.00
    7   -7    5     -0.32      0.00
    8   -7    5      0.47      0.00
   11   -7    5     -0.31      0.00
   12   -7    5      0.29      0.00
   13   -7    5     -0.47      0.00
   14   -7    5     -0.57      0.00
  -14   -6    5      1.71      0.00
  -13   -6    5     -0.54      0.00
  -12   -6    5      0.32      0.00
  -11   -6    5      0.75      0.00
  -10   -6    5     -0.79      0.00
   -9   -6    5     -0.13      0.00
   -8   -6    5     -0.99      0.00
   -7   -6    5     -1.46      0.00
   -6   -6    5      1.96      0.00
   -5   -6    5     -0.99      0.00
   -4   -6    5     -0.65      0.00
   -3   -6    5      1.68      0.00
   -2   -6    5     -1.78      0.00
   -1   -6    5     -3.83      0.00
    0   -6    5      0.53      0.00
    1   -6    5      2.32      0.00
    2   -6    5     -3.41      0.00
    3   -6    5     -3.00      0.00
    4   -6    5     -1.04      0.00
    5   -6    5     -0.29      0.00
    6   -6    5      0.82      0.00
    7   -6    5     -0.88      0.00
    8   -6    5      0.25      0.00
    9   -6    5      0.07      0.00
   10   -6    5     -0.38      0.00
   11   -6    5     -0.13      0.00
   12   -6    5     -0.13      0.00
   13   -6    5      0.33      0.00
   14   -6    5     -0.42      0.00
  -14   -5    5     -0.71      0.00
  -13   -5    5     -0.23      0.00
  -12   -5    5     -0.24      0.00
  -11   -5    5      0.72      0.00
  -10   -5    5      0.39      0.00
   -9   -5    5      0.64      0.00
   -8   -5    5      1.88      0.00
   -7   -5    5     -0.05      0.00
   -6   -5    5     -1.04      0.00
   -5   -5    5      0.01      0.00
   -4   -5    5     -1.30      0.00
   -3   -5    5      0.22      0.00
   -2   -5    5      2.77      0.00
   -1   -5    5     -0.94      0.00
    0   -5    5     -1.79      0.00
    1   -5    5      3.71      0.00
    2   -5    5      6.54      0.00
    3   -5    5     -0.53      0.00
    4   -5    5      0.09      0.00
    5   -5    5     -1.34      0.00
    6   -5    5      0.75      0.00
    7   -5    5      0.34      0.00
    8   -5    5     -1.12      0.00
    9   -5    5      0.72      0.00
   10   -5    5      0.68      0.00
   11   -5    5     -0.31      0.00
   12   -5    5     -0.99      0.00
   13   -5    5      0.61      0.00
   14   -5    5      0.08      0.00
  -15   -4    5     -0.73      0.00
  -14   -4    5      0.27      0.00
  -13   -4    5      0.33      0.00
  -12   -4    5     -1.57      0.00
  -11   -4    5     -1.40      0.00
  -10   -4    5     -0.23      0.00
   -9   -4    5     -0.43      0.00
   -8   -4    5     -0.45      0.00
   -7   -4    5      0.50      0.00
   -6   -4    5      0.36      0.00
   -5   -4    5      0.00      0.00
   -4   -4    5      0.36      0.00
   -3   -4    5     -0.24      0.00
   -2   -4    5      1.97      0.00
   -1   -4    5     -0.12      0.00
    0   -4    5     -3.01      0.00
    1   -4    5     -7.13      0.00
    2   -4    5     -2.39      0.00
    3   -4    5      3.01      0.00
    4   -4    5     -0.72      0.00
    5   -4    5     -0.37      0.00
    6   -4    5     -2.20      0.00
    7   -4    5      0.78      0.00
    8   -4    5      0.26      0.00
    9   -4    5     -0.22      0.00
   10   -4    5      0.14      0.00
   11   -4    5      0.48      0.00
   12   -4    5      0.06      0.00
   13   -4    5     -0.93      0.00
   14   -4    5      1.83      0.00
  -15   -3    5      0.53      0.00
  -14   -3    5     -1.56      0.00
  -13   -3    5     -0.13      0.00
  -12   -3    5      1.49      0.00
  -11   -3    5      0.42      0.00
  -10   -3    5     -0.51      0.00
   -9   -3    5     -0.47      0.00
   -8   -3    5      0.08      0.00
   -7   -3    5     -0.43      0.00
   -6   -3    5     -0.58      0.00
   -5   -3    5     -0.24      0.00
   -4   -3    5     -0.47      0.00
   -3   -3    5     -2.65      0.00
   -2   -3    5      2.33      0.00
   -1   -3    5     11.06      0.00
    0   -3    5     -0.17      0.00
    1   -3    5      0.42      0.00
    2   -3    5     -3.11      0.00
    3   -3    5     -1.44      0.00
    4   -3    5      0.61      0.00
    5   -3    5      0.64      0.00
    6   -3    5     -0.68      0.00
    7   -3    5     -1.26      0.00
    8   -3    5      0.51      0.00
    9   -3    5      0.01      0.00
   10   -3    5      0.74      0.00
   11   -3    5      0.00      0.00
   12   -3    5     -0.56      0.00
   13   -3    5     -1.24      0.00
   14   -3    5     -1.40      0.00
  -15   -2    5     -0.18      0.00
  -14   -2    5      0.66      0.00
  -13   -2    5     -1.45      0.00
  -12   -2    5     -1.21      0.00
  -11   -2    5     -0.53      0.00
  -10   -2    5      0.80      0.00
   -9   -2    5      0.62      0.00
   -8   -2    5      0.44      0.00
   -7   -2    5      1.00      0.00
   -6   -2    5      0.55      0.00
   -5   -2    5     -0.30      0.00
   -4   -2    5      1.58      0.00
   -3   -2    5      3.84      0.00
   -2   -2    5    -12.16      0.00
   -1   -2    5     -0.99      0.00
    0   -2    5     14.01      0.00
    1   -2    5      0.41      0.00
    2   -2    5     -0.87      0.00
    3   -2    5     -1.31      0.00
    4   -2    5      0.75      0.00
    5   -2    5      0.72      0.00
    6   -2    5      2.35      0.00
    7   -2    5      0.50      0.00
    8   -2    5     -0.52      0.00
    9   -2    5     -0.34      0.00
   10   -2    5     -0.47      0.00
   11   -2    5      0.24      0.00
   12   -2    5      1.33      0.00
   13   -2    5      0.56      0.00
   14   -2    5     -0.77      0.00
  -15   -1    5      0.02      0.00
  -14   -1    5     -0.09      0.00
  -13   -1    5      0.50      0.00
  -12   -1    5     -0.44      0.00
  -11   -1    5     -0.53      0.00
  -10   -1    5     -1.00      0.00
   -9   -1    5     -0.28      0.00
   -8   -1    5     -0.61      0.00
   -7   -1    5     -1.19      0.00
   -6   -1    5      0.77      0.00
   -5   -1    5      2.70      0.00
   -4   -1    5     -1.41      0.00
   -3   -1    5      5.01      0.00
   -2   -1    5      7.97      0.00
   -1   -1    5    -23.03      0.00
    0   -1    5     -8.01      0.00
    1   -1    5      4.52      0.00
    2   -1    5     -0.11      0.00
    3   -1    5     -2.67      0.00
    4   -1    5     -2.52      0.00
    5   -1    5     -1.47      0.00
    6   -1    5     -2.75      0.00
    7   -1    5     -0.63      0.00
    8   -1    5      1.45      0.00
    9   -1    5      0.67      0.00
   10   -1    5      0.37      0.00
   11   -1    5      0.09      0.00
   12   -1    5     -1.09      0.00
   13   -1    5      1.43      0.00
   14   -1    5      1.16      0.00
  -15    0    5      0.28      0.00
  -14    0    5     -0.85      0.00
  -13    0    5     -0.43      0.00
  -12    0    5      0.78      0.00
  -11    0    5      0.31      0.00
  -10    0    5     -0.13      0.00
   -9    0    5      0.40      0.00
   -8    0    5      1.31      0.00
   -7    0    5      1.20      0.00
   -6    0    5     -3.74      0.00
   -5    0    5     -1.31      0.00
   -4    0    5      3.27      0.00
   -3    0    5     -4.11      0.00
   -2    0    5     19.37      0.00
   -1    0    5     23.17      0.00
    0    0    5    -10.17      0.00
    1    0    5     -1.00      0.00
    2    0    5      3.09      0.00
    3    0    5      4.29      0.00
    4    0    5      0.90      0.00
    5    0    5      0.34      0.00
    6    0    5      1.79      0.00
    7    0    5     -1.29      0.00
    8    0    5     -2.23      0.00
    9    0    5     -0.17      0.00
   10    0    5     -0.87      0.00
   11    0    5     -0.22      0.00
   12    0    5      0.27      0.00
   13    0    5     -1.33      0.00
   14    0    5      0.31      0.00
  -15    1    5      0.41      0.00
  -14    1    5      1.13      0.00
  -13    1    5     -1.01      0.00
  -12    1    5     -1.67      0.00
  -11    1    5     -0.06      0.00
  -10    1    5     -0.13      0.00
   -9    1    5     -0.30      0.00
   -8    1    5     -0.81      0.00
   -7    1    5      1.55      0.00
   -6    1    5      4.12      0.00
   -5    1    5     -3.69      0.00
   -4    1    5     -0.29      0.00
   -3    1    5     -0.26      0.00
   -2    1    5    -20.74      0.00
   -1    1    5      4.73      0.00
    0    1    5      9.84      0.00
    1    1    5     -3.44      0.00
    2    1    5     -3.55      0.00
    3    1    5     -3.81      0.00
    4    1    5      1.33      0.00
    5    1    5     -0.21      0.00
    6    1    5     -0.89      0.00
    7    1    5      2.22      0.00
    8    1    5      1.32      0.00
    9    1    5      0.34      0.00
   10    1    5      0.96      0.00
   11    1    5     -0.08      0.00
   12    1    5     -0.32      0.00
   13    1    5      0.13      0.00
   14    1    5      0.39      0.00
  -15    2    5      0.04      0.00
  -14    2    5      0.67      0.00
  -13    2    5      2.01      0.00
  -12    2    5      0.93      0.00
  -11    2    5      0.40      0.00
  -10    2    5      0.52      0.00
   -9    2    5     -1.21      0.00
   -8    2    5     -0.69      0.00
   -7    2    5     -3.75      0.00
   -6    2    5      0.44      0.00
   -5    2    5      4.45      0.00
   -4    2    5     -2.24      0.00
   -3    2    5      6.17      0.00
   -2    2    5      8.61      0.00
   -1    2    5     -5.06      0.00
    0    2    5      2.62      0.00
    1    2    5     -2.09      0.00
    2    2    5      3.80      0.00
    3    2    5      1.54      0.00
    4    2    5     -2.37      0.00
    5    2    5      0.83      0.00
    6    2    5     -1.34      0.00
    7    2    5     -2.16      0.00
    8    2    5     -0.38      0.00
    9    2    5     -0.36      0.00
   10    2    5     -1.74      0.00
   11    2    5     -0.86      0.00
   12    2    5      0.54      0.00
   13    2    5      0.07      0.00
   14    2    5     -0.99      0.00
  -15    3    5     -0.96      0.00
  -14    3    5     -1.13      0.00
  -13    3    5      0.18      0.00
  -12    3    5      0.14      0.00
  -11    3    5     -1.15      0.00
  -10    3    5      0.94      0.00
   -9    3    5      1.78      0.00
   -8    3    5      0.77      0.00
   -7    3    5      0.73      0.00
   -6    3    5     -5.13      0.00
   -5    3    5     -0.16      0.00
   -4    3    5      2.44      0.00
   -3    3    5     -2.69      0.00
   -2    3    5      0.24      0.00
   -1    3    5     -4.69      0.00
    0    3    5      3.40      0.00
    1    3    5      4.58      0.00
    2    3    5     -5.88      0.00
    3    3    5      2.00      0.00
    4    3    5      3.03      0.00
    5    3    5      0.12      0.00
    6    3    5      2.47      0.00
    7    3    5     -0.29      0.00
    8    3    5     -0.79      0.00
    9    3    5      0.35      0.00
   10    3    5      0.71      0.00
   11    3    5     -1.42      0.00
   12    3    5     -1.81      0.00
   13    3    5      1.06      0.00
   14    3    5      1.99      0.00
  -15    4    5      1.17      0.00
  -14    4    5      0.47      0.00
  -13    4    5     -0.87      0.00
  -12    4    5      1.26      0.00
  -11    4    5      1.18      0.00
  -10    4    5     -2.47      0.00
   -9    4    5     -0.40      0.00
   -8    4    5      0.12      0.00
   -7    4    5      2.53      0.00
   -6    4    5      2.63      0.00
   -5    4    5     -4.58      0.00
   -4    4    5     -2.12      0.00
   -3    4    5     -0.81      0.00
   -2    4    5      3.49      0.00
   -1    4    5      3.17      0.00
    0    4    5    -11.22      0.00
    1    4    5      3.25      0.00
    2    4    5      4.62      0.00
    3    4    5     -4.42      0.00
    4    4    5     -0.88      0.00
    5    4    5      0.18      0.00
    6    4    5     -1.00      0.00
    7    4    5      0.57      0.00
    8    4    5     -0.89      0.00
    9    4    5     -0.13      0.00
   10    4    5      1.16      0.00
   11    4    5      0.74      0.00
   12    4    5      0.34      0.00
   13    4    5     -2.00      0.00
  -15    5    5     -0.25      0.00
  -14    5    5      1.11      0.00
  -13    5    5      1.56      0.00
  -12    5    5     -0.27      0.00
  -11    5    5      0.81      0.00
  -10    5    5      2.26      0.00
   -9    5    5     -1.61      0.00
   -8    5    5     -0.74      0.00
   -7    5    5     -1.72      0.00
   -6    5    5      1.09      0.00
   -5    5    5      3.00      0.00
   -4    5    5     -0.01      0.00
   -3    5    5     -1.58      0.00
   -2    5    5     -5.26      0.00
   -1    5    5      6.69      0.00
    0    5    5      5.07      0.00
    1    5    5     -9.57      0.00
    2    5    5      2.47      0.00
    3    5    5      5.66      0.00
    4    5    5     -1.10      0.00
    5    5    5     -0.41      0.00
    6    5    5     -0.75      0.00
    7    5    5      0.67      0.00
    8    5    5      0.29      0.00
    9    5    5     -2.28      0.00
   10    5    5     -0.64      0.00
   11    5    5      0.24      0.00
   12    5    5     -0.84      0.00
   13    5    5      2.29      0.00
  -15    6    5     -0.51      0.00
  -14    6    5     -0.77      0.00
  -13    6    5     -0.25      0.00
  -12    6    5      0.96      0.00
  -11    6    5      0.55      0.00
  -10    6    5      1.07      0.00
   -9    6    5      2.47      0.00
   -8    6    5     -0.59      0.00
   -7    6    5     -1.21      0.00
   -6    6    5     -1.33      0.00
   -5    6    5     -1.44      0.00
   -4    6    5     -1.80      0.00
   -3    6    5      1.23      0.00
   -2    6    5     -0.66      0.00
   -1    6    5     -9.51      0.00
    0    6    5      4.13      0.00
    1    6    5      3.26      0.00
    2    6    5     -8.07      0.00
    3    6    5     -1.06      0.00
    4    6    5      2.37      0.00
    5    6    5      0.83      0.00
    6    6    5      0.46      0.00
    7    6    5     -1.08      0.00
    8    6    5      1.45      0.00
    9    6    5      1.14      0.00
   10    6    5     -1.73      0.00
   11    6    5      0.74      0.00
   12    6    5     -0.77      0.00
   13    6    5     -3.23      0.00
  -15    7    5      0.30      0.00
  -14    7    5     -1.04      0.00
  -13    7    5     -0.29      0.00
  -12    7    5      0.57      0.00
   -9    7    5      0.67      0.00
   -8    7    5      2.31      0.00
   -7    7    5      1.06      0.00
   -6    7    5     -0.70      0.00
   -5    7    5      1.81      0.00
   -4    7    5      2.38      0.00
   -3    7    5     -1.97      0.00
   -2    7    5      3.07      0.00
   -1    7    5      3.75      0.00
    0    7    5     -5.54      0.00
    1    7    5      2.89      0.00
    2    7    5      3.45      0.00
    3    7    5     -2.13      0.00
    4    7    5     -0.11      0.00
    5    7    5     -0.83      0.00
    6    7    5      0.12      0.00
    7    7    5     -0.47      0.00
    8    7    5     -0.55      0.00
    9    7    5      0.75      0.00
   10    7    5     -0.67      0.00
   11    7    5     -2.34      0.00
   12    7    5      2.30      0.00
  -15    8    5      0.71      0.00
  -14    8    5      1.77      0.00
  -13    8    5     -1.78      0.00
  -12    8    5     -2.45      0.00
   -8    8    5     -1.46      0.00
   -7    8    5      0.46      0.00
   -6    8    5      0.31      0.00
   -5    8    5     -2.38      0.00
   -4    8    5     -0.11      0.00
   -3    8    5      1.75      0.00
   -2    8    5     -3.83      0.00
   -1    8    5     -0.18      0.00
    0    8    5      2.07      0.00
    1    8    5     -2.56      0.00
    2    8    5     -0.36      0.00
    3    8    5     -0.11      0.00
    4    8    5      0.22      0.00
    5    8    5      0.11      0.00
    6    8    5     -0.69      0.00
    7    8    5     -0.57      0.00
    8    8    5     -2.01      0.00
    9    8    5     -0.17      0.00
   10    8    5      1.28      0.00
   11    8    5     -1.12      0.00
   12    8    5     -3.20      0.00
  -14    9    5      1.29      0.00
  -13    9    5      4.00      0.00
   -9    9    5      1.71      0.00
   -8    9    5     -1.08      0.00
   -7    9    5     -0.75      0.00
   -6    9    5      1.04      0.00
   -5    9    5      1.14      0.00
   -4    9    5     -1.48      0.00
   -3    9    5      0.60      0.00
   -2    9    5      2.75      0.00
   -1    9    5     -1.25      0.00
    0    9    5     -0.46      0.00
    1    9    5      1.14      0.00
    2    9    5      1.67      0.00
    3    9    5     -0.06      0.00
    4    9    5     -1.28      0.00
    5    9    5      1.36      0.00
    6    9    5     -0.44      0.00
    7    9    5      1.00      0.00
    8    9    5      0.90      0.00
    9    9    5     -0.98      0.00
   10    9    5      0.09      0.00
   11    9    5      1.51      0.00
  -14   10    5     -2.92      0.00
   -9   10    5     -0.08      0.00
   -8   10    5      1.05      0.00
   -7   10    5     -0.52      0.00
   -6   10    5     -0.86      0.00
   -5   10    5      0.40      0.00
   -4   10    5      1.43      0.00
   -3   10    5     -0.38      0.00
   -2   10    5      0.59      0.00
   -1   10    5      1.98      0.00
    0   10    5      1.09      0.00
    1   10    5     -0.68      0.00
    2   10    5     -1.63      0.00
    3   10    5      2.08      0.00
    4   10    5      0.51      0.00
    5   10    5     -0.93      0.00
    6   10    5      1.12      0.00
    7   10    5     -1.78      0.00
    8   10    5     -0.65      0.00
    9   10    5      0.25      0.00
   10   10    5     -0.30      0.00
   11   10    5     -0.20      0.00
  -14   11    5     -0.09      0.00
  -10   11    5      1.41      0.00
   -9   11    5     -0.64      0.00
   -8   11    5     -0.06      0.00
   -7   11    5      0.49      0.00
   -6   11    5     -0.22      0.00
   -5   11    5     -0.27      0.00
   -4   11    5     -0.89      0.00
   -3   11    5     -0.01      0.00
   -2   11    5     -0.18      0.00
   -1   11    5     -0.81      0.00
    0   11    5     -0.69      0.00
    1   11    5      1.05      0.00
    2   11    5      0.08      0.00
    3   11    5     -2.24      0.00
    4   11    5      0.95      0.00
    5   11    5      0.22      0.00
    6   11    5      0.07      0.00
    7   11    5      2.07      0.00
    8   11    5      0.12      0.00
    9   11    5     -0.81      0.00
   10   11    5     -0.58      0.00
  -11   12    5     -1.21      0.00
  -10   12    5      0.08      0.00
   -9   12    5      0.20      0.00
   -8   12    5     -1.31      0.00
   -7   12    5     -0.51      0.00
   -6   12    5     -0.48      0.00
   -5   12    5     -0.36      0.00
   -4   12    5      0.95      0.00
   -3   12    5      0.03      0.00
   -2   12    5      0.75      0.00
   -1   12    5      1.63      0.00
    0   12    5     -0.19      0.00
    1   12    5     -0.99      0.00
    2   12    5      0.31      0.00
    3   12    5      0.09      0.00
    4   12    5     -0.92      0.00
    5   12    5      0.86      0.00
    6   12    5     -0.80      0.00
    7   12    5     -0.89      0.00
    8   12    5     -0.11      0.00
    9   12    5      0.52      0.00
   10   12    5      0.04      0.00
  -12   13    5      1.00      0.00
  -11   13    5      0.55      0.00
  -10   13    5     -0.21      0.00
   -9   13    5     -0.05      0.00
   -8   13    5      1.25      0.00
   -7   13    5     -0.21      0.00
   -6   13    5      0.41      0.00
   -5   13    5     -0.22      0.00
   -4   13    5     -0.58      0.00
   -3   13    5      0.65      0.00
   -2   13    5     -0.71      0.00
   -1   13    5     -0.18      0.00
    0   13    5      1.18      0.00
    1   13    5     -0.19      0.00
    2   13    5     -0.15      0.00
    3   13    5      0.57      0.00
    4   13    5     -0.46      0.00
    5   13    5      0.83      0.00
    6   13    5      1.85      0.00
    7   13    5      0.33      0.00
    8   13    5      0.46      0.00
    9   13    5     -1.68      0.00
  -12   14    5      0.83      0.00
  -11   14    5     -0.37      0.00
  -10   14    5      0.40      0.00
   -9   14    5     -0.13      0.00
   -8   14    5     -0.23      0.00
   -7   14    5      0.81      0.00
   -6   14    5     -0.21      0.00
   -5   14    5      0.06      0.00
   -4   14    5     -0.01      0.00
   -3   14    5     -1.09      0.00
   -2   14    5      0.09      0.00
   -1   14    5     -0.86      0.00
    0   14    5     -0.70      0.00
    1   14    5     -0.42      0.00
    2   14    5     -1.45      0.00
    3   14    5      0.07      0.00
    4   14    5      1.56      0.00
    5   14    5     -1.15      0.00
    6   14    5      0.93      0.00
    7   14    5      0.28      0.00
    8   14    5      0.92      0.00
  -11   15    5      1.08      0.00
  -10   15    5      0.48      0.00
   -9   15    5      0.04      0.00
   -8   15    5     -0.26      0.00
   -7   15    5     -0.34      0.00
   -6   15    5      0.79      0.00
   -5   15    5      0.14      0.00
   -4   15    5      0.10      0.00
   -3   15    5      1.14      0.00
   -2   15    5     -0.46      0.00
   -1   15    5     -0.63      0.00
    0   15    5     -1.23      0.00
    1   15    5      0.27      0.00
    2   15    5      0.46      0.00
    3   15    5     -1.56      0.00
    4   15    5     -0.84      0.00
    5   15    5      1.39      0.00
    6   15    5     -0.61      0.00
    7   15    5      1.08      0.00
  -10   16    5      0.41      0.00
   -9   16    5      0.98      0.00
   -8   16    5      0.63      0.00
   -7   16    5      0.69      0.00
   -6   16    5     -0.47      0.00
   -5   16    5      0.76      0.00
   -4   16    5      0.00      0.00
   -3   16    5     -0.22      0.00
   -2   16    5      1.55      0.00
   -1   16    5      1.40      0.00
    0   16    5      0.25      0.00
    1   16    5     -1.58      0.00
    2   16    5     -0.38      0.00
    3   16    5      0.90      0.00
    4   16    5     -0.28      0.00
    5   16    5     -0.46      0.00
    6   16    5      0.31      0.00
   -9   17    5     -0.15      0.00
   -8   17    5     -0.61      0.00
   -7   17    5     -0.39      0.00
   -6   17    5      0.21      0.00
   -5   17    5     -0.88      0.00
   -4   17    5      1.18      0.00
   -3   17    5      0.81      0.00
   -2   17    5     -0.42      0.00
   -1   17    5      0.27      0.00
    0   17    5      1.44      0.00
    1   17    5      0.45      0.00
    2   17    5     -0.83      0.00
    3   17    5     -1.07      0.00
    4   17    5     -0.15      0.00
    5   17    5     -0.70      0.00
   -7   18    5     -0.06      0.00
   -6   18    5      0.42      0.00
   -5   18    5      0.51      0.00
   -4   18    5     -1.69      0.00
   -3   18    5      0.14      0.00
   -2   18    5      1.47      0.00
   -1   18    5     -0.11      0.00
    0   18    5     -0.79      0.00
    1   18    5      0.63      0.00
    2   18    5      0.17      0.00
    3   18    5      0.90      0.00
   -5   19    5      0.17      0.00
   -4   19    5      1.37      0.00
   -3   19    5     -0.98      0.00
   -2   19    5     -0.99      0.00
   -1   19    5      1.05      0.00
    0   19    5      0.67      0.00
   -2  -19    6     -2.93      0.00
   -1  -19    6      0.09      0.00
    0  -19    6     -0.54      0.00
    1  -19    6      0.12      0.00
    2  -19    6      1.88      0.00
    3  -19    6     -0.46      0.00
   -4  -18    6      0.24      0.00
   -3  -18    6      2.68      0.00
   -2  -18    6      2.07      0.00
   -1  -18    6     -1.30      0.00
    0  -18    6     -0.53      0.00
    1  -18    6     -0.67      0.00
    2  -18    6     -0.29      0.00
    3  -18    6      1.56      0.00
    4  -18    6      0.91      0.00
    5  -18    6      1.39      0.00
    6  -18    6      0.47      0.00
   -6  -17    6     -0.05      0.00
   -5  -17    6     -2.45      0.00
   -4  -17    6     -0.86      0.00
   -3  -17    6     -0.97      0.00
   -2  -17    6      0.27      0.00
   -1  -17    6      1.44      0.00
    0  -17    6      1.19      0.00
    1  -17    6      0.38      0.00
    2  -17    6     -0.83      0.00
    3  -17    6     -1.23      0.00
    4  -17    6     -1.73      0.00
    5  -17    6     -0.65      0.00
    6  -17    6      1.28      0.00
    7  -17    6      2.70      0.00
   -7  -16    6     -1.33      0.00
   -6  -16    6      2.80      0.00
   -5  -16    6      1.05      0.00
   -4  -16    6     -0.55      0.00
   -3  -16    6      0.21      0.00
   -2  -16    6      0.69      0.00
   -1  -16    6     -0.05      0.00
    0  -16    6     -0.96      0.00
    1  -16    6      0.12      0.00
    2  -16    6      0.84      0.00
    3  -16    6      0.81      0.00
    4  -16    6      0.93      0.00
    5  -16    6     -2.25      0.00
    6  -16    6     -2.71      0.00
    7  -16    6     -1.92      0.00
    8  -16    6      1.44      0.00
    9  -16    6      1.66      0.00
   -9  -15    6      0.28      0.00
   -8  -15    6      1.63      0.00
   -7  -15    6     -1.87      0.00
   -6  -15    6     -1.88      0.00
   -5  -15    6     -0.01      0.00
   -4  -15    6     -0.88      0.00
   -3  -15    6     -1.41      0.00
   -2  -15    6     -0.38      0.00
   -1  -15    6      0.03      0.00
    0  -15    6      1.82      0.00
    1  -15    6      0.26      0.00
    2  -15    6     -0.35      0.00
    3  -15    6     -0.36      0.00
    4  -15    6      0.46      0.00
    5  -15    6      2.05      0.00
    6  -15    6      1.03      0.00
    7  -15    6     -0.99      0.00
    8  -15    6     -3.02      0.00
    9  -15    6     -0.98      0.00
   10  -15    6      0.92      0.00
   -9  -14    6      0.82      0.00
   -8  -14    6     -0.37      0.00
   -7  -14    6      1.41      0.00
   -6  -14    6      0.18      0.00
   -5  -14    6      1.21      0.00
   -4  -14    6      1.38      0.00
   -3  -14    6     -0.87      0.00
   -2  -14    6     -0.69      0.00
   -1  -14    6     -0.19      0.00
    0  -14    6     -2.06      0.00
    1  -14    6      0.56      0.00
    2  -14    6      0.09      0.00
    3  -14    6      0.10      0.00
    4  -14    6     -0.26      0.00
    5  -14    6     -0.35      0.00
    6  -14    6     -0.30      0.00
    7  -14    6      1.56      0.00
    8  -14    6      1.22      0.00
    9  -14    6     -0.78      0.00
   10  -14    6     -1.69      0.00
  -10  -13    6     -0.87      0.00
   -9  -13    6      0.05      0.00
   -8  -13    6     -0.11      0.00
   -7  -13    6      0.07      0.00
   -6  -13    6     -1.33      0.00
   -5  -13    6     -1.36      0.00
   -4  -13    6      0.05      0.00
   -3  -13    6      1.94      0.00
   -2  -13    6     -0.07      0.00
   -1  -13    6      0.57      0.00
    0  -13    6      0.44      0.00
    1  -13    6     -0.87      0.00
    2  -13    6      0.35      0.00
    3  -13    6     -0.36      0.00
    4  -13    6     -0.52      0.00
    5  -13    6      0.10      0.00
    6  -13    6      0.36      0.00
    7  -13    6     -0.42      0.00
    8  -13    6      0.46      0.00
    9  -13    6      1.09      0.00
   10  -13    6      0.94      0.00
   11  -13    6     -0.42      0.00
  -11  -12    6      1.00      0.00
  -10  -12    6      0.33      0.00
   -9  -12    6      0.21      0.00
   -8  -12    6      0.00      0.00
   -7  -12    6     -1.03      0.00
   -6  -12    6      1.23      0.00
   -5  -12    6      0.07      0.00
   -4  -12    6     -0.83      0.00
   -3  -12    6     -1.76      0.00
   -2  -12    6     -0.33      0.00
   -1  -12    6      0.64      0.00
    0  -12    6      0.93      0.00
    1  -12    6      0.03      0.00
    2  -12    6      0.02      0.00
    3  -12    6      0.20      0.00
    4  -12    6      0.36      0.00
    5  -12    6     -0.29      0.00
    6  -12    6      0.21      0.00
    7  -12    6     -0.10      0.00
    8  -12    6     -0.24      0.00
    9  -12    6     -1.26      0.00
   10  -12    6     -0.16      0.00
   11  -12    6     -0.37      0.00
   12  -12    6     -1.62      0.00
  -12  -11    6     -1.48      0.00
  -11  -11    6     -0.89      0.00
  -10  -11    6      0.84      0.00
   -9  -11    6     -0.37      0.00
   -8  -11    6      1.08      0.00
   -7  -11    6      0.03      0.00
   -6  -11    6     -1.42      0.00
   -5  -11    6     -0.85      0.00
   -4  -11    6      0.59      0.00
   -3  -11    6      0.88      0.00
   -2  -11    6     -1.68      0.00
   -1  -11    6     -2.40      0.00
    0  -11    6      0.21      0.00
    1  -11    6     -0.69      0.00
    2  -11    6     -0.73      0.00
    3  -11    6     -0.14      0.00
    4  -11    6     -0.03      0.00
    5  -11    6      0.15      0.00
    6  -11    6     -0.12      0.00
    7  -11    6      0.45      0.00
    8  -11    6      0.84      0.00
    9  -11    6      1.44      0.00
   10  -11    6     -1.16      0.00
   11  -11    6      1.08      0.00
   12  -11    6      0.61      0.00
  -12  -10    6      1.79      0.00
  -11  -10    6      0.25      0.00
  -10  -10    6     -0.65      0.00
   -9  -10    6     -0.18      0.00
   -8  -10    6      0.09      0.00
   -7  -10    6      0.84      0.00
   -6  -10    6      1.40      0.00
   -5  -10    6      0.29      0.00
   -4  -10    6     -1.51      0.00
   -3  -10    6      0.52      0.00
   -2  -10    6      2.79      0.00
   -1  -10    6     -0.65      0.00
    0  -10    6     -0.35      0.00
    1  -10    6      2.10      0.00
    2  -10    6      0.49      0.00
    3  -10    6      0.68      0.00
    4  -10    6     -0.35      0.00
    5  -10    6      0.72      0.00
    6  -10    6      0.19      0.00
    7  -10    6     -0.14      0.00
    8  -10    6     -1.03      0.00
    9  -10    6     -0.10      0.00
   10  -10    6      1.22      0.00
   11  -10    6     -1.16      0.00
   12  -10    6      1.60      0.00
  -13   -9    6      0.04      0.00
  -12   -9    6     -1.82      0.00
  -11   -9    6      0.16      0.00
  -10   -9    6      1.03      0.00
   -9   -9    6     -0.74      0.00
   -8   -9    6     -1.16      0.00
   -7   -9    6     -0.09      0.00
   -6   -9    6     -1.13      0.00
   -5   -9    6      1.50      0.00
   -4   -9    6     -0.01      0.00
   -3   -9    6     -2.52      0.00
   -2   -9    6     -0.09      0.00
   -1   -9    6      2.19      0.00
    0   -9    6     -3.16      0.00
    1   -9    6     -1.37      0.00
    2   -9    6      0.01      0.00
    3   -9    6     -0.64      0.00
    4   -9    6      0.69      0.00
    5   -9    6     -1.61      0.00
    6   -9    6     -0.17      0.00
    7   -9    6     -0.20      0.00
    8   -9    6     -0.06      0.00
    9   -9    6     -1.00      0.00
   10   -9    6     -0.84      0.00
   11   -9    6     -0.56      0.00
   12   -9    6     -2.14      0.00
   13   -9    6     -0.03      0.00
  -13   -8    6      1.72      0.00
  -12   -8    6      1.68      0.00
  -11   -8    6     -1.07      0.00
  -10   -8    6     -0.47      0.00
   -9   -8    6      1.32      0.00
   -8   -8    6     -0.44      0.00
   -7   -8    6      0.94      0.00
   -6   -8    6     -0.09      0.00
   -5   -8    6     -1.41      0.00
   -4   -8    6      1.38      0.00
   -3   -8    6     -0.84      0.00
   -2   -8    6     -3.68      0.00
   -1   -8    6      1.91      0.00
    0   -8    6      4.24      0.00
    1   -8    6     -2.01      0.00
    2   -8    6     -0.58      0.00
    3   -8    6      0.56      0.00
    4   -8    6      0.53      0.00
    5   -8    6      2.16      0.00
    6   -8    6     -0.35      0.00
    7   -8    6     -0.05      0.00
    8   -8    6      0.56      0.00
    9   -8    6      0.29      0.00
   10   -8    6      0.57      0.00
   11   -8    6      0.70      0.00
   12   -8    6      0.46      0.00
   13   -8    6     -1.23      0.00
  -14   -7    6     -0.21      0.00
  -13   -7    6     -2.37      0.00
  -12   -7    6     -0.50      0.00
  -11   -7    6      0.65      0.00
  -10   -7    6     -0.28      0.00
   -9   -7    6      0.32      0.00
   -8   -7    6      0.09      0.00
   -7   -7    6     -1.56      0.00
   -6   -7    6      1.74      0.00
   -5   -7    6     -0.26      0.00
   -4   -7    6      0.32      0.00
   -3   -7    6      2.99      0.00
   -2   -7    6     -0.09      0.00
   -1   -7    6     -4.82      0.00
    0   -7    6      1.41      0.00
    1   -7    6      4.38      0.00
    2   -7    6     -0.86      0.00
    3   -7    6     -1.09      0.00
    4   -7    6     -1.36      0.00
    5   -7    6     -0.34      0.00
    6   -7    6      1.30      0.00
    7   -7    6     -0.29      0.00
    8   -7    6     -0.43      0.00
    9   -7    6     -0.21      0.00
   10   -7    6     -1.25      0.00
   11   -7    6     -0.78      0.00
   12   -7    6     -0.11      0.00
   13   -7    6      1.23      0.00
  -14   -6    6      0.95      0.00
  -13   -6    6      0.67      0.00
  -12   -6    6     -0.09      0.00
  -11   -6    6     -0.14      0.00
  -10   -6    6     -0.79      0.00
   -9   -6    6     -0.36      0.00
   -8   -6    6      1.48      0.00
   -7   -6    6     -0.39      0.00
   -6   -6    6     -1.88      0.00
   -5   -6    6     -1.17      0.00
   -4   -6    6     -2.73      0.00
   -3   -6    6     -1.33      0.00
   -2   -6    6      2.39      0.00
   -1   -6    6     -1.16      0.00
    0   -6    6     -5.65      0.00
    1   -6    6      0.41      0.00
    2   -6    6      3.03      0.00
    3   -6    6     -0.33      0.00
    4   -6    6      0.53      0.00
    5   -6    6     -1.92      0.00
    6   -6    6     -0.37      0.00
    7   -6    6      0.11      0.00
    8   -6    6     -0.82      0.00
    9   -6    6      0.76      0.00
   10   -6    6      1.12      0.00
   11   -6    6     -0.26      0.00
   12   -6    6     -1.48      0.00
   13   -6    6     -1.27      0.00
   14   -6    6     -0.64      0.00
  -14   -5    6     -0.09      0.00
  -13   -5    6      0.22      0.00
  -12   -5    6     -1.19      0.00
  -11   -5    6      0.25      0.00
  -10   -5    6      1.03      0.00
   -9   -5    6     -0.56      0.00
   -8   -5    6     -0.32      0.00
   -7   -5    6      1.24      0.00
   -6   -5    6      1.18      0.00
   -5   -5    6      1.58      0.00
   -4   -5    6      0.45      0.00
   -3   -5    6     -1.02      0.00
   -2   -5    6     -0.06      0.00
   -1   -5    6      4.66      0.00
    0   -5    6      0.99      0.00
    1   -5    6     -5.63      0.00
    2   -5    6      0.93      0.00
    3   -5    6      2.32      0.00
    4   -5    6      0.11      0.00
    5   -5    6      1.34      0.00
    6   -5    6     -0.88      0.00
    7   -5    6      1.39      0.00
    8   -5    6      0.78      0.00
    9   -5    6     -0.95      0.00
   10   -5    6     -0.20      0.00
   11   -5    6      0.96      0.00
   12   -5    6      0.90      0.00
   13   -5    6     -0.35      0.00
   14   -5    6      1.18      0.00
  -15   -4    6      0.84      0.00
  -14   -4    6     -1.52      0.00
  -13   -4    6     -0.01      0.00
  -12   -4    6      0.88      0.00
  -11   -4    6     -1.21      0.00
  -10   -4    6     -0.71      0.00
   -9   -4    6      0.32      0.00
   -8   -4    6     -0.25      0.00
   -7   -4    6     -0.60      0.00
   -6   -4    6     -1.62      0.00
   -5   -4    6     -0.75      0.00
   -4   -4    6      0.31      0.00
   -3   -4    6     -0.37      0.00
   -2   -4    6     -0.42      0.00
   -1   -4    6     -0.36      0.00
    0   -4    6      1.17      0.00
    1   -4    6      0.51      0.00
    2   -4    6     -6.64      0.00
    3   -4    6     -0.98      0.00
    4   -4    6     -0.66      0.00
    5   -4    6     -0.21      0.00
    6   -4    6     -0.76      0.00
    7   -4    6     -1.23      0.00
    8   -4    6      0.55      0.00
    9   -4    6      0.47      0.00
   10   -4    6      0.61      0.00
   11   -4    6     -0.38      0.00
   12   -4    6     -0.04      0.00
   13   -4    6     -0.65      0.00
   14   -4    6     -1.77      0.00
  -15   -3    6      0.71      0.00
  -14   -3    6      1.32      0.00
  -13   -3    6     -1.27      0.00
  -12   -3    6     -0.64      0.00
  -11   -3    6      0.30      0.00
  -10   -3    6      0.47      0.00
   -9   -3    6      0.30      0.00
   -8   -3    6      0.38      0.00
   -7   -3    6      0.90      0.00
   -6   -3    6      1.05      0.00
   -5   -3    6     -0.39      0.00
   -4   -3    6      0.77      0.00
   -3   -3    6      1.41      0.00
   -2   -3    6     -5.61      0.00
   -1   -3    6     -0.28      0.00
    0   -3    6      3.85      0.00
    1   -3    6      2.50      0.00
    2   -3    6      1.53      0.00
    3   -3    6     -2.26      0.00
    4   -3    6      1.05      0.00
    5   -3    6      0.28      0.00
    6   -3    6      1.96      0.00
    7   -3    6     -0.28      0.00
    8   -3    6     -0.10      0.00
    9   -3    6     -0.38      0.00
   10   -3    6     -1.07      0.00
   11   -3    6      0.39      0.00
   12   -3    6      0.57      0.00
   13   -3    6      0.94      0.00
   14   -3    6     -0.20      0.00
  -15   -2    6     -1.15      0.00
  -14   -2    6     -0.16      0.00
  -13   -2    6      0.18      0.00
  -12   -2    6     -0.55      0.00
  -11   -2    6     -0.29      0.00
  -10   -2    6     -0.77      0.00
   -9   -2    6      0.15      0.00
   -8   -2    6     -0.01      0.00
   -7   -2    6     -0.69      0.00
   -6   -2    6      0.56      0.00
   -5   -2    6      1.69      0.00
   -4   -2    6      0.06      0.00
   -3   -2    6      5.30      0.00
   -2   -2    6      7.94      0.00
   -1   -2    6    -10.73      0.00
    0   -2    6     -4.15      0.00
    1   -2    6      1.30      0.00
    2   -2    6      2.41      0.00
    3   -2    6     -0.89      0.00
    4   -2    6     -2.23      0.00
    5   -2    6     -1.48      0.00
    6   -2    6     -1.91      0.00
    7   -2    6      0.59      0.00
    8   -2    6      0.93      0.00
    9   -2    6      1.02      0.00
   10   -2    6      0.14      0.00
   11   -2    6     -0.56      0.00
   12   -2    6     -0.39      0.00
   13   -2    6      1.29      0.00
   14   -2    6      1.32      0.00
  -15   -1    6      0.42      0.00
  -14   -1    6     -1.13      0.00
  -13   -1    6      0.07      0.00
  -12   -1    6     -0.12      0.00
  -11   -1    6     -0.40      0.00
  -10   -1    6     -0.03      0.00
   -9   -1    6     -0.22      0.00
   -8   -1    6      0.68      0.00
   -7   -1    6      0.01      0.00
   -6   -1    6     -2.84      0.00
   -5   -1    6     -1.10      0.00
   -4   -1    6      0.41      0.00
   -3   -1    6     -5.39      0.00
   -2   -1    6      9.81      0.00
   -1   -1    6     13.37      0.00
    0   -1    6     -9.02      0.00
    1   -1    6     -4.48      0.00
    2   -1    6     -0.95      0.00
    3   -1    6      2.61      0.00
    4   -1    6     -0.26      0.00
    5   -1    6     -0.21      0.00
    6   -1    6      0.16      0.00
    7   -1    6     -1.63      0.00
    8   -1    6     -1.37      0.00
    9   -1    6      0.76      0.00
   10   -1    6     -0.11      0.00
   11   -1    6     -0.46      0.00
   12   -1    6     -0.42      0.00
   13   -1    6     -1.37      0.00
   14   -1    6      0.61      0.00
  -15    0    6      0.26      0.00
  -14    0    6      1.11      0.00
  -13    0    6     -1.22      0.00
  -12    0    6     -0.74      0.00
  -11    0    6      0.15      0.00
  -10    0    6     -0.20      0.00
   -9    0    6      0.09      0.00
   -8    0    6     -0.41      0.00
   -7    0    6      2.19      0.00
   -6    0    6      2.40      0.00
   -5    0    6     -2.39      0.00
   -4    0    6      2.47      0.00
   -3    0    6      2.64      0.00
   -2    0    6    -12.04      0.00
   -1    0    6      9.50      0.00
    0    0    6     14.18      0.00
    1    0    6      0.26      0.00
    2    0    6     -2.03      0.00
    3    0    6     -1.06      0.00
    4    0    6      2.57      0.00
    5    0    6      0.28      0.00
    6    0    6      0.19      0.00
    7    0    6      2.02      0.00
    8    0    6      0.45      0.00
    9    0    6     -0.60      0.00
   10    0    6      0.90      0.00
   11    0    6     -0.73      0.00
   12    0    6     -0.68      0.00
   13    0    6     -0.46      0.00
   14    0    6     -0.43      0.00
  -15    1    6     -0.72      0.00
  -14    1    6     -0.18      0.00
  -13    1    6      1.75      0.00
  -12    1    6      0.27      0.00
  -11    1    6     -0.28      0.00
  -10    1    6      0.03      0.00
   -9    1    6     -1.54      0.00
   -8    1    6     -1.06      0.00
   -7    1    6     -3.56      0.00
   -6    1    6      1.91      0.00
   -5    1    6      3.13      0.00
   -4    1    6     -4.31      0.00
   -3    1    6      2.69      0.00
   -2    1    6      1.47      0.00
   -1    1    6    -14.13      0.00
    0    1    6     -4.42      0.00
    1    1    6     -1.95      0.00
    2    1    6      1.41      0.00
    3    1    6     -1.44      0.00
    4    1    6     -2.61      0.00
    5    1    6      0.33      0.00
    6    1    6     -1.96      0.00
    7    1    6     -1.53      0.00
    8    1    6      0.38      0.00
    9    1    6      0.01      0.00
   10    1    6     -0.57      0.00
   11    1    6      0.88      0.00
   12    1    6      1.36      0.00
   13    1    6      1.46      0.00
   14    1    6     -0.23      0.00
  -15    2    6     -0.30      0.00
  -14    2    6     -0.62      0.00
  -13    2    6     -0.29      0.00
  -12    2    6      0.21      0.00
  -11    2    6     -0.67      0.00
  -10    2    6      1.01      0.00
   -9    2    6      1.85      0.00
   -8    2    6      1.29      0.00
   -7    2    6      0.49      0.00
   -6    2    6     -5.69      0.00
   -5    2    6      1.07      0.00
   -4    2    6      4.46      0.00
   -3    2    6      1.13      0.00
   -2    2    6      7.32      0.00
   -1    2    6      3.76      0.00
    0    2    6      5.84      0.00
    1    2    6      4.44      0.00
    2    2    6     -2.40      0.00
    3    2    6      3.38      0.00
    4    2    6      1.99      0.00
    5    2    6      0.02      0.00
    6    2    6      1.92      0.00
    7    2    6     -1.36      0.00
    8    2    6     -1.18      0.00
    9    2    6     -0.37      0.00
   10    2    6     -0.48      0.00
   11    2    6     -2.14      0.00
   12    2    6     -2.76      0.00
   13    2    6      0.42      0.00
   14    2    6      1.80      0.00
  -15    3    6      1.02      0.00
  -14    3    6     -0.39      0.00
  -13    3    6     -0.39      0.00
  -12    3    6      1.44      0.00
  -11    3    6      0.76      0.00
  -10    3    6     -2.07      0.00
   -9    3    6     -0.37      0.00
   -8    3    6     -0.80      0.00
   -7    3    6      3.57      0.00
   -6    3    6      2.96      0.00
   -5    3    6     -5.44      0.00
   -4    3    6     -3.19      0.00
   -3    3    6     -4.03      0.00
   -2    3    6     -0.63      0.00
   -1    3    6      0.72      0.00
    0    3    6    -10.76      0.00
    1    3    6      1.80      0.00
    2    3    6      2.86      0.00
    3    3    6     -3.24      0.00
    4    3    6      0.65      0.00
    5    3    6     -0.13      0.00
    6    3    6     -0.51      0.00
    7    3    6      1.74      0.00
    8    3    6      0.20      0.00
    9    3    6      0.73      0.00
   10    3    6      1.49      0.00
   11    3    6      2.15      0.00
   12    3    6      1.41      0.00
   13    3    6     -2.09      0.00
  -15    4    6      0.51      0.00
  -14    4    6      2.20      0.00
  -13    4    6      0.46      0.00
  -12    4    6     -0.18      0.00
  -11    4    6      1.81      0.00
  -10    4    6      1.55      0.00
   -9    4    6     -0.70      0.00
   -8    4    6      0.03      0.00
   -7    4    6     -3.98      0.00
   -6    4    6      1.66      0.00
   -5    4    6      3.66      0.00
   -4    4    6     -0.06      0.00
   -3    4    6     -0.48      0.00
   -2    4    6     -4.86      0.00
   -1    4    6      6.56      0.00
    0    4    6      4.77      0.00
    1    4    6     -8.60      0.00
    2    4    6      1.28      0.00
    3    4    6      3.17      0.00
    4    4    6     -2.06      0.00
    5    4    6     -0.26      0.00
    6    4    6     -1.29      0.00
    7    4    6     -0.46      0.00
    8    4    6      0.01      0.00
    9    4    6     -2.01      0.00
   10    4    6     -1.10      0.00
   11    4    6     -0.93      0.00
   12    4    6     -0.30      0.00
   13    4    6      1.93      0.00
  -15    5    6     -1.00      0.00
  -14    5    6     -1.09      0.00
  -13    5    6      0.30      0.00
  -12    5    6     -0.48      0.00
  -11    5    6      0.03      0.00
  -10    5    6      1.98      0.00
   -9    5    6      0.66      0.00
   -8    5    6     -0.56      0.00
   -7    5    6      0.26      0.00
   -6    5    6     -2.59      0.00
   -5    5    6     -0.55      0.00
   -4    5    6      1.03      0.00
   -3    5    6      3.47      0.00
   -2    5    6     -0.57      0.00
   -1    5    6     -9.01      0.00
    0    5    6      7.02      0.00
    1    5    6      4.63      0.00
    2    5    6     -6.15      0.00
    3    5    6      0.72      0.00
    4    5    6      3.35      0.00
    5    5    6      1.05      0.00
    6    5    6      0.35      0.00
    7    5    6     -1.10      0.00
    8    5    6      0.65      0.00
    9    5    6      0.71      0.00
   10    5    6     -2.21      0.00
   11    5    6      0.10      0.00
   12    5    6     -0.90      0.00
   13    5    6     -1.35      0.00
  -15    6    6      0.93      0.00
  -14    6    6     -0.41      0.00
  -13    6    6      0.45      0.00
  -12    6    6      0.95      0.00
  -11    6    6     -1.84      0.00
  -10    6    6     -1.50      0.00
   -9    6    6      2.35      0.00
   -8    6    6      1.85      0.00
   -7    6    6      0.65      0.00
   -6    6    6     -0.55      0.00
   -5    6    6     -0.01      0.00
   -4    6    6     -1.04      0.00
   -3    6    6     -3.83      0.00
   -2    6    6      3.82      0.00
   -1    6    6      0.02      0.00
    0    6    6    -10.00      0.00
    1    6    6      3.76      0.00
    2    6    6      3.32      0.00
    3    6    6     -3.29      0.00
    4    6    6     -0.62      0.00
    5    6    6     -0.76      0.00
    6    6    6      0.26      0.00
    7    6    6     -0.54      0.00
    8    6    6     -0.37      0.00
    9    6    6      1.67      0.00
   10    6    6      0.81      0.00
   11    6    6     -2.01      0.00
   12    6    6      1.66      0.00
  -15    7    6      1.03      0.00
  -14    7    6      2.00      0.00
  -13    7    6     -1.41      0.00
  -12    7    6     -1.49      0.00
  -11    7    6      2.28      0.00
   -8    7    6     -0.71      0.00
   -7    7    6      1.21      0.00
   -6    7    6      1.15      0.00
   -5    7    6     -1.19      0.00
   -4    7    6      1.87      0.00
   -3    7    6      2.05      0.00
   -2    7    6     -3.71      0.00
   -1    7    6      4.20      0.00
    0    7    6      2.45      0.00
    1    7    6     -4.46      0.00
    2    7    6      1.45      0.00
    3    7    6      0.71      0.00
    4    7    6     -0.14      0.00
    5    7    6      0.17      0.00
    6    7    6     -0.90      0.00
    7    7    6     -0.79      0.00
    8    7    6     -2.73      0.00
    9    7    6     -1.55      0.00
   10    7    6      1.34      0.00
   11    7    6     -0.48      0.00
   12    7    6     -2.26      0.00
  -15    8    6     -1.18      0.00
  -14    8    6      0.40      0.00
  -13    8    6      4.02      0.00
  -12    8    6      0.94      0.00
   -8    8    6     -1.99      0.00
   -7    8    6     -1.50      0.00
   -6    8    6      0.62      0.00
   -5    8    6      0.49      0.00
   -4    8    6     -2.52      0.00
   -3    8    6      0.91      0.00
   -2    8    6      1.72      0.00
   -1    8    6     -3.61      0.00
    0    8    6      0.71      0.00
    1    8    6      0.71      0.00
    2    8    6      0.53      0.00
    3    8    6      0.70      0.00
    4    8    6     -0.73      0.00
    5    8    6      1.62      0.00
    6    8    6      0.33      0.00
    7    8    6      1.54      0.00
    8    8    6      1.27      0.00
    9    8    6     -1.03      0.00
   10    8    6     -0.68      0.00
   11    8    6      1.93      0.00
   12    8    6     -0.20      0.00
  -14    9    6     -2.21      0.00
  -13    9    6     -2.04      0.00
   -9    9    6      0.46      0.00
   -8    9    6      2.44      0.00
   -7    9    6     -0.18      0.00
   -6    9    6     -1.07      0.00
   -5    9    6      1.10      0.00
   -4    9    6      1.42      0.00
   -3    9    6     -1.60      0.00
   -2    9    6      1.28      0.00
   -1    9    6      1.88      0.00
    0    9    6     -0.13      0.00
    1    9    6     -1.32      0.00
    2    9    6     -2.52      0.00
    3    9    6      1.61      0.00
    4    9    6     -0.52      0.00
    5    9    6     -1.68      0.00
    6    9    6      0.57      0.00
    7    9    6     -1.09      0.00
    8    9    6      0.47      0.00
    9    9    6      0.39      0.00
   10    9    6     -1.07      0.00
   11    9    6     -1.40      0.00
  -14   10    6      0.32      0.00
   -9   10    6     -1.74      0.00
   -8   10    6     -1.39      0.00
   -7   10    6      0.36      0.00
   -6   10    6     -0.57      0.00
   -5   10    6     -0.92      0.00
   -4   10    6      0.35      0.00
   -3   10    6      1.23      0.00
   -2   10    6     -0.21      0.00
   -1   10    6      0.14      0.00
    0   10    6     -0.45      0.00
    1   10    6      2.12      0.00
    2   10    6     -0.06      0.00
    3   10    6     -2.30      0.00
    4   10    6      1.81      0.00
    5   10    6      0.00      0.00
    6   10    6     -0.65      0.00
    7   10    6     -0.27      0.00
    8   10    6     -1.15      0.00
    9   10    6     -0.59      0.00
   10   10    6     -0.17      0.00
   11   10    6     -0.32      0.00
  -14   11    6      3.70      0.00
  -10   11    6     -0.76      0.00
   -9   11    6      0.42      0.00
   -8   11    6     -0.81      0.00
   -7   11    6      0.18      0.00
   -6   11    6      0.42      0.00
   -5   11    6     -0.50      0.00
   -4   11    6      0.09      0.00
   -3   11    6     -0.42      0.00
   -2   11    6      0.22      0.00
   -1   11    6      1.20      0.00
    0   11    6     -0.24      0.00
    1   11    6     -1.72      0.00
    2   11    6      1.14      0.00
    3   11    6     -0.17      0.00
    4   11    6     -1.40      0.00
    5   11    6      1.10      0.00
    6   11    6      0.66      0.00
    7   11    6      1.06      0.00
    8   11    6      0.53      0.00
    9   11    6      0.58      0.00
   10   11    6     -0.13      0.00
  -11   12    6      0.09      0.00
  -10   12    6      0.09      0.00
   -9   12    6     -0.37      0.00
   -8   12    6      0.97      0.00
   -7   12    6     -1.45      0.00
   -6   12    6      0.16      0.00
   -5   12    6     -0.09      0.00
   -4   12    6     -0.50      0.00
   -3   12    6      1.36      0.00
   -2   12    6     -0.45      0.00
   -1   12    6      0.20      0.00
    0   12    6      1.80      0.00
    1   12    6     -0.41      0.00
    2   12    6     -0.62      0.00
    3   12    6      1.32      0.00
    4   12    6      0.08      0.00
    5   12    6      0.02      0.00
    6   12    6     -0.26      0.00
    7   12    6     -0.84      0.00
    8   12    6     -0.41      0.00
    9   12    6     -1.47      0.00
  -12   13    6      2.08      0.00
  -11   13    6     -0.16      0.00
  -10   13    6      0.47      0.00
   -9   13    6     -0.35      0.00
   -8   13    6     -0.22      0.00
   -7   13    6      1.65      0.00
   -6   13    6     -0.31      0.00
   -5   13    6      0.88      0.00
   -4   13    6     -0.14      0.00
   -3   13    6     -1.05      0.00
   -2   13    6      0.87      0.00
   -1   13    6     -1.62      0.00
    0   13    6     -0.79      0.00
    1   13    6      0.50      0.00
    2   13    6     -1.15      0.00
    3   13    6     -0.23      0.00
    4   13    6      1.01      0.00
    5   13    6     -0.45      0.00
    6   13    6      2.11      0.00
    7   13    6      0.91      0.00
    8   13    6      1.84      0.00
    9   13    6      1.64      0.00
  -12   14    6      0.33      0.00
  -11   14    6      1.96      0.00
  -10   14    6      0.43      0.00
   -9   14    6      0.97      0.00
   -8   14    6     -0.64      0.00
   -7   14    6     -0.70      0.00
   -6   14    6     -0.04      0.00
   -5   14    6     -1.52      0.00
   -4   14    6      0.21      0.00
   -3   14    6      0.59      0.00
   -2   14    6     -0.26      0.00
   -1   14    6      0.63      0.00
    0   14    6     -1.31      0.00
    1   14    6     -0.49      0.00
    2   14    6     -0.24      0.00
    3   14    6     -1.31      0.00
    4   14    6      0.14      0.00
    5   14    6      0.48      0.00
    6   14    6     -1.93      0.00
    7   14    6     -0.12      0.00
    8   14    6     -2.68      0.00
  -11   15    6     -0.55      0.00
  -10   15    6     -0.08      0.00
   -9   15    6      0.36      0.00
   -8   15    6      0.81      0.00
   -7   15    6      0.26      0.00
   -6   15    6      0.76      0.00
   -5   15    6      1.57      0.00
   -4   15    6     -0.77      0.00
   -3   15    6      0.03      0.00
   -2   15    6      1.03      0.00
   -1   15    6      1.15      0.00
    0   15    6      0.83      0.00
    1   15    6     -0.49      0.00
    2   15    6      0.13      0.00
    3   15    6      0.24      0.00
    4   15    6     -0.86      0.00
    5   15    6      0.58      0.00
    6   15    6      0.64      0.00
    7   15    6      1.19      0.00
  -10   16    6      0.21      0.00
   -9   16    6     -0.31      0.00
   -8   16    6      0.08      0.00
   -7   16    6      0.11      0.00
   -6   16    6     -0.71      0.00
   -5   16    6     -0.45      0.00
   -4   16    6      1.27      0.00
   -3   16    6     -0.84      0.00
   -2   16    6     -0.88      0.00
   -1   16    6     -0.66      0.00
    0   16    6      0.06      0.00
    1   16    6     -0.85      0.00
    2   16    6     -0.61      0.00
    3   16    6      0.09      0.00
    4   16    6      1.07      0.00
    5   16    6      0.14      0.00
    6   16    6      0.14      0.00
   -9   17    6      0.03      0.00
   -8   17    6     -0.22      0.00
   -7   17    6     -0.19      0.00
   -6   17    6      0.90      0.00
   -5   17    6     -0.32      0.00
   -4   17    6     -0.73      0.00
   -3   17    6      1.15      0.00
   -2   17    6      0.31      0.00
   -1   17    6     -0.32      0.00
    0   17    6     -0.11      0.00
    1   17    6      1.11      0.00
    2   17    6     -0.70      0.00
    3   17    6     -0.32      0.00
    4   17    6     -0.62      0.00
   -7   18    6      0.51      0.00
   -6   18    6     -0.44      0.00
   -5   18    6      0.92      0.00
   -4   18    6      0.40      0.00
   -3   18    6     -0.87      0.00
   -2   18    6     -0.15      0.00
   -1   18    6      0.55      0.00
    0   18    6     -0.50      0.00
    1   18    6      0.14      0.00
    2   18    6      1.21      0.00
    3   18    6      0.14      0.00
   -5   19    6     -0.44      0.00
   -4   19    6      0.11      0.00
   -3   19    6      0.68      0.00
   -2   19    6      0.25      0.00
   -1   19    6      0.00      0.00
    0   19    6      0.55      0.00
   -1  -19    7     -0.42      0.00
    0  -19    7     -0.51      0.00
    1  -19    7     -1.72      0.00
    2  -19    7     -1.01      0.00
    3  -19    7      1.09      0.00
   -4  -18    7     -1.95      0.00
   -3  -18    7     -1.17      0.00
   -2  -18    7      1.04      0.00
   -1  -18    7      1.25      0.00
    0  -18    7      1.51      0.00
    1  -18    7      0.52      0.00
    2  -18    7     -0.88      0.00
    3  -18    7     -0.90      0.00
    4  -18    7     -1.02      0.00
    5  -18    7     -0.99      0.00
   -6  -17    7      1.86      0.00
   -5  -17    7      1.71      0.00
   -4  -17    7      0.11      0.00
   -3  -17    7     -1.34      0.00
   -2  -17    7      0.24      0.00
   -1  -17    7      0.22      0.00
    0  -17    7     -0.36      0.00
    1  -17    7      1.27      0.00
    2  -17    7      0.80      0.00
    3  -17    7      0.43      0.00
    4  -17    7      1.07      0.00
    5  -17    7     -1.22      0.00
    6  -17    7     -1.79      0.00
    7  -17    7     -2.68      0.00
   -7  -16    7     -0.96      0.00
   -6  -16    7     -1.89      0.00
   -5  -16    7      0.08      0.00
   -4  -16    7      0.67      0.00
   -3  -16    7     -0.30      0.00
   -2  -16    7     -1.59      0.00
   -1  -16    7     -0.20      0.00
    0  -16    7      0.49      0.00
    1  -16    7     -0.91      0.00
    2  -16    7      0.00      0.00
    3  -16    7     -0.80      0.00
    4  -16    7      0.28      0.00
    5  -16    7      2.04      0.00
    6  -16    7      1.14      0.00
    7  -16    7     -0.10      0.00
    8  -16    7     -2.59      0.00
   -8  -15    7     -0.46      0.00
   -7  -15    7      1.50      0.00
   -6  -15    7      0.28      0.00
   -5  -15    7     -0.13      0.00
   -4  -15    7      0.93      0.00
   -3  -15    7      0.27      0.00
   -2  -15    7      1.10      0.00
   -1  -15    7      0.99      0.00
    0  -15    7      0.04      0.00
    1  -15    7      1.31      0.00
    2  -15    7      0.29      0.00
    3  -15    7      0.80      0.00
    4  -15    7     -0.74      0.00
    5  -15    7     -0.44      0.00
    6  -15    7     -0.02      0.00
    7  -15    7      2.36      0.00
    8  -15    7      2.12      0.00
    9  -15    7     -0.87      0.00
   -9  -14    7     -0.20      0.00
   -8  -14    7      0.22      0.00
   -7  -14    7     -0.40      0.00
   -6  -14    7     -0.81      0.00
   -5  -14    7     -0.63      0.00
   -4  -14    7     -0.64      0.00
   -3  -14    7      1.30      0.00
   -2  -14    7     -1.67      0.00
   -1  -14    7     -0.48      0.00
    0  -14    7      0.09      0.00
    1  -14    7     -0.98      0.00
    2  -14    7     -0.37      0.00
    3  -14    7     -1.03      0.00
    4  -14    7     -0.71      0.00
    5  -14    7     -0.14      0.00
    6  -14    7     -0.02      0.00
    7  -14    7     -1.59      0.00
    8  -14    7      0.55      0.00
    9  -14    7      1.38      0.00
   10  -14    7      0.89      0.00
  -10  -13    7      1.43      0.00
   -9  -13    7      0.16      0.00
   -8  -13    7     -0.31      0.00
   -7  -13    7     -0.33      0.00
   -6  -13    7      0.30      0.00
   -5  -13    7     -0.54      0.00
   -4  -13    7     -1.01      0.00
   -3  -13    7     -1.58      0.00
   -2  -13    7      0.94      0.00
   -1  -13    7     -0.02      0.00
    0  -13    7      0.68      0.00
    1  -13    7      0.32      0.00
    2  -13    7      0.47      0.00
    3  -13    7      0.52      0.00
    4  -13    7      0.39      0.00
    5  -13    7     -0.98      0.00
    6  -13    7      0.20      0.00
    7  -13    7      0.08      0.00
    8  -13    7     -0.63      0.00
    9  -13    7      0.12      0.00
   10  -13    7     -0.12      0.00
   11  -13    7     -0.49      0.00
  -11  -12    7     -1.33      0.00
  -10  -12    7      0.73      0.00
   -9  -12    7     -0.58      0.00
   -8  -12    7      1.15      0.00
   -7  -12    7      0.27      0.00
   -6  -12    7      0.09      0.00
   -5  -12    7     -0.44      0.00
   -4  -12    7      0.65      0.00
   -3  -12    7      0.62      0.00
   -2  -12    7     -0.88      0.00
   -1  -12    7     -1.11      0.00
    0  -12    7      0.34      0.00
    1  -12    7      0.00      0.00
    2  -12    7     -0.18      0.00
    3  -12    7      0.59      0.00
    4  -12    7      0.63      0.00
    5  -12    7      0.73      0.00
    6  -12    7     -0.44      0.00
    7  -12    7      0.27      0.00
    8  -12    7     -0.12      0.00
    9  -12    7     -0.43      0.00
   10  -12    7     -0.03      0.00
   11  -12    7      1.93      0.00
  -12  -11    7      1.98      0.00
  -11  -11    7     -0.15      0.00
  -10  -11    7     -0.34      0.00
   -9  -11    7      0.25      0.00
   -8  -11    7     -1.22      0.00
   -7  -11    7      0.17      0.00
   -6  -11    7      0.28      0.00
   -5  -11    7      0.67      0.00
   -4  -11    7     -1.91      0.00
   -3  -11    7     -0.85      0.00
   -2  -11    7      1.01      0.00
   -1  -11    7     -0.77      0.00
    0  -11    7     -1.47      0.00
    1  -11    7      0.59      0.00
    2  -11    7     -0.90      0.00
    3  -11    7     -0.81      0.00
    4  -11    7     -0.67      0.00
    5  -11    7      0.55      0.00
    6  -11    7     -0.02      0.00
    7  -11    7     -0.30      0.00
    8  -11    7     -0.50      0.00
    9  -11    7      0.53      0.00
   10  -11    7     -0.19      0.00
   11  -11    7     -2.05      0.00
   12  -11    7      1.65      0.00
  -12  -10    7     -1.08      0.00
  -11  -10    7      0.63      0.00
  -10  -10    7      0.41      0.00
   -9  -10    7      0.08      0.00
   -8  -10    7     -0.54      0.00
   -7  -10    7      0.40      0.00
   -6  -10    7     -0.15      0.00
   -5  -10    7      1.11      0.00
   -4  -10    7      1.74      0.00
   -3  -10    7     -1.24      0.00
   -2  -10    7     -0.29      0.00
   -1  -10    7      2.86      0.00
    0  -10    7     -0.09      0.00
    1  -10    7      0.38      0.00
    2  -10    7      1.09      0.00
    3  -10    7      0.47      0.00
    4  -10    7      0.83      0.00
    5  -10    7     -0.64      0.00
    6  -10    7      0.63      0.00
    7  -10    7     -0.18      0.00
    8  -10    7     -0.41      0.00
    9  -10    7     -1.27      0.00
   10  -10    7      0.21      0.00
   11  -10    7     -0.36      0.00
   12  -10    7     -2.71      0.00
  -13   -9    7      0.27      0.00
  -12   -9    7      0.01      0.00
  -11   -9    7     -1.27      0.00
  -10   -9    7     -0.91      0.00
   -9   -9    7      0.90      0.00
   -8   -9    7     -0.27      0.00
   -7   -9    7     -0.91      0.00
   -6   -9    7     -0.45      0.00
   -5   -9    7     -1.93      0.00
   -4   -9    7     -0.31      0.00
   -3   -9    7      0.12      0.00
   -2   -9    7     -3.34      0.00
   -1   -9    7     -0.64      0.00
    0   -9    7      1.79      0.00
    1   -9    7     -1.80      0.00
    2   -9    7     -0.28      0.00
    3   -9    7     -0.79      0.00
    4   -9    7      0.08      0.00
    5   -9    7      1.21      0.00
    6   -9    7     -0.29      0.00
    7   -9    7      0.35      0.00
    8   -9    7      0.52      0.00
    9   -9    7     -0.48      0.00
   10   -9    7     -0.21      0.00
   11   -9    7      1.05      0.00
   12   -9    7      0.26      0.00
   13   -9    7     -1.32      0.00
  -13   -8    7     -1.01      0.00
  -12   -8    7      0.04      0.00
  -11   -8    7      1.02      0.00
  -10   -8    7     -0.08      0.00
   -9   -8    7     -0.24      0.00
   -8   -8    7      0.93      0.00
   -7   -8    7     -0.40      0.00
   -6   -8    7      1.34      0.00
   -5   -8    7      0.65      0.00
   -4   -8    7     -0.02      0.00
   -3   -8    7      1.33      0.00
   -2   -8    7      0.34      0.00
   -1   -8    7     -4.41      0.00
    0   -8    7      0.67      0.00
    1   -8    7      3.21      0.00
    2   -8    7      0.07      0.00
    3   -8    7      0.34      0.00
    4   -8    7     -1.39      0.00
    5   -8    7     -0.05      0.00
    6   -8    7      1.24      0.00
    7   -8    7     -0.26      0.00
    8   -8    7     -0.27      0.00
    9   -8    7      0.41      0.00
   10   -8    7     -1.27      0.00
   11   -8    7     -0.82      0.00
   12   -8    7      0.06      0.00
   13   -8    7      0.49      0.00
  -14   -7    7      0.48      0.00
  -13   -7    7      0.10      0.00
  -12   -7    7     -0.66      0.00
  -11   -7    7     -0.88      0.00
  -10   -7    7     -0.35      0.00
   -9   -7    7     -0.54      0.00
   -8   -7    7      0.91      0.00
   -7   -7    7     -0.13      0.00
   -6   -7    7     -1.66      0.00
   -5   -7    7     -0.78      0.00
   -4   -7    7     -0.85      0.00
   -3   -7    7      0.45      0.00
   -2   -7    7      3.78      0.00
   -1   -7    7      1.32      0.00
    0   -7    7     -4.25      0.00
    1   -7    7     -0.26      0.00
    2   -7    7      1.59      0.00
    3   -7    7      1.01      0.00
    4   -7    7      1.33      0.00
    5   -7    7     -1.78      0.00
    6   -7    7     -0.73      0.00
    7   -7    7      0.48      0.00
    8   -7    7     -0.78      0.00
    9   -7    7      0.43      0.00
   10   -7    7      0.75      0.00
   11   -7    7     -0.29      0.00
   12   -7    7     -0.94      0.00
   13   -7    7     -1.13      0.00
  -14   -6    7      0.45      0.00
  -13   -6    7      0.81      0.00
  -12   -6    7     -0.27      0.00
  -11   -6    7      0.62      0.00
  -10   -6    7      0.25      0.00
   -9   -6    7     -0.93      0.00
   -8   -6    7     -0.93      0.00
   -7   -6    7      1.14      0.00
   -6   -6    7      0.80      0.00
   -5   -6    7      0.26      0.00
   -4   -6    7     -2.67      0.00
   -3   -6    7     -3.90      0.00
   -2   -6    7     -2.70      0.00
   -1   -6    7      3.00      0.00
    0   -6    7     -0.37      0.00
    1   -6    7     -5.03      0.00
    2   -6    7     -0.54      0.00
    3   -6    7     -1.23      0.00
    4   -6    7     -0.07      0.00
    5   -6    7      1.82      0.00
    6   -6    7     -0.51      0.00
    7   -6    7      0.86      0.00
    8   -6    7      0.98      0.00
    9   -6    7     -1.10      0.00
   10   -6    7      0.63      0.00
   11   -6    7      1.29      0.00
   12   -6    7      1.21      0.00
   13   -6    7     -0.59      0.00
  -14   -5    7     -1.25      0.00
  -13   -5    7     -0.26      0.00
  -12   -5    7      0.35      0.00
  -11   -5    7     -1.03      0.00
  -10   -5    7      0.60      0.00
   -9   -5    7      1.40      0.00
   -8   -5    7      0.03      0.00
   -7   -5    7     -0.17      0.00
   -6   -5    7     -0.60      0.00
   -5   -5    7      1.92      0.00
   -4   -5    7      4.13      0.00
   -3   -5    7      2.09      0.00
   -2   -5    7     -0.14      0.00
   -1   -5    7     -0.80      0.00
    0   -5    7      5.35      0.00
    1   -5    7      1.92      0.00
    2   -5    7     -3.38      0.00
    3   -5    7      1.51      0.00
    4   -5    7     -1.45      0.00
    5   -5    7     -0.41      0.00
    6   -5    7      0.08      0.00
    7   -5    7     -0.90      0.00
    8   -5    7      0.53      0.00
    9   -5    7      0.30      0.00
   10   -5    7     -1.00      0.00
   11   -5    7     -0.97      0.00
   12   -5    7      0.68      0.00
   13   -5    7      1.26      0.00
  -15   -4    7      0.35      0.00
  -14   -4    7      1.13      0.00
  -13   -4    7     -0.76      0.00
  -12   -4    7     -0.65      0.00
  -11   -4    7     -0.08      0.00
  -10   -4    7     -0.82      0.00
   -9   -4    7     -0.36      0.00
   -8   -4    7     -0.22      0.00
   -7   -4    7     -0.51      0.00
   -6   -4    7     -0.62      0.00
   -5   -4    7     -3.71      0.00
   -4   -4    7     -1.43      0.00
   -3   -4    7      0.20      0.00
   -2   -4    7     -2.34      0.00
   -1   -4    7     -2.20      0.00
    0   -4    7     -2.19      0.00
    1   -4    7      3.26      0.00
    2   -4    7      0.19      0.00
    3   -4    7     -2.74      0.00
    4   -4    7      1.24      0.00
    5   -4    7     -0.81      0.00
    6   -4    7      0.59      0.00
    7   -4    7     -0.67      0.00
    8   -4    7     -0.10      0.00
    9   -4    7      0.05      0.00
   10   -4    7     -0.76      0.00
   11   -4    7     -0.17      0.00
   12   -4    7     -1.06      0.00
   13   -4    7      0.55      0.00
   14   -4    7      0.00      0.00
  -15   -3    7     -1.11      0.00
  -14   -3    7     -0.45      0.00
  -13   -3    7      0.14      0.00
  -12   -3    7      0.61      0.00
  -11   -3    7      0.40      0.00
  -10   -3    7      0.11      0.00
   -9   -3    7      0.71      0.00
   -8   -3    7      1.10      0.00
   -7   -3    7      0.44      0.00
   -6   -3    7      1.57      0.00
   -5   -3    7      2.24      0.00
   -4   -3    7     -0.67      0.00
   -3   -3    7      2.81      0.00
   -2   -3    7      4.99      0.00
   -1   -3    7     -3.83      0.00
    0   -3    7     -3.79      0.00
    1   -3    7     -1.70      0.00
    2   -3    7      4.49      0.00
    3   -3    7     -0.33      0.00
    4   -3    7     -1.62      0.00
    5   -3    7     -0.90      0.00
    6   -3    7     -0.81      0.00
    7   -3    7      1.11      0.00
    8   -3    7      0.47      0.00
    9   -3    7      1.45      0.00
   10   -3    7      0.40      0.00
   11   -3    7     -0.66      0.00
   12   -3    7     -0.09      0.00
   13   -3    7      0.28      0.00
   14   -3    7      1.69      0.00
  -15   -2    7     -0.13      0.00
  -14   -2    7     -1.19      0.00
  -13   -2    7     -0.81      0.00
  -12   -2    7     -1.79      0.00
  -11   -2    7     -0.53      0.00
  -10   -2    7      0.04      0.00
   -9   -2    7     -0.70      0.00
   -8   -2    7     -0.07      0.00
   -7   -2    7     -0.74      0.00
   -6   -2    7     -2.67      0.00
   -5   -2    7     -0.71      0.00
   -4   -2    7      0.93      0.00
   -3   -2    7     -2.90      0.00
   -2   -2    7      5.74      0.00
   -1   -2    7     10.09      0.00
    0   -2    7     -1.07      0.00
    1   -2    7     -4.09      0.00
    2   -2    7     -3.23      0.00
    3   -2    7      2.86      0.00
    4   -2    7     -0.10      0.00
    5   -2    7      0.42      0.00
    6   -2    7     -0.46      0.00
    7   -2    7     -1.04      0.00
    8   -2    7     -1.00      0.00
    9   -2    7      0.29      0.00
   10   -2    7      0.52      0.00
   11   -2    7     -0.44      0.00
   12   -2    7     -0.71      0.00
   13   -2    7     -1.44      0.00
   14   -2    7     -0.35      0.00
  -15   -1    7      0.76      0.00
  -14   -1    7      1.06      0.00
  -13   -1    7     -0.27      0.00
  -12   -1    7      0.22      0.00
  -11   -1    7     -0.37      0.00
  -10   -1    7     -0.33      0.00
   -9   -1    7      0.10      0.00
   -8   -1    7     -0.41      0.00
   -7   -1    7      2.44      0.00
   -6   -1    7      1.60      0.00
   -5   -1    7     -1.82      0.00
   -4   -1    7      0.67      0.00
   -3   -1    7     -0.69      0.00
   -2   -1    7    -11.44      0.00
   -1   -1    7      1.10      0.00
    0   -1    7      6.05      0.00
    1   -1    7      0.53      0.00
    2   -1    7     -2.58      0.00
    3   -1    7     -1.44      0.00
    4   -1    7      1.55      0.00
    5   -1    7     -0.71      0.00
    6   -1    7     -0.02      0.00
    7   -1    7      1.30      0.00
    8   -1    7      0.69      0.00
    9   -1    7     -0.82      0.00
   10   -1    7      1.02      0.00
   11   -1    7     -0.05      0.00
   12   -1    7     -0.17      0.00
   13   -1    7      0.10      0.00
   14   -1    7     -0.20      0.00
  -15    0    7     -1.86      0.00
  -14    0    7     -1.23      0.00
  -13    0    7      0.79      0.00
  -12    0    7     -0.28      0.00
  -11    0    7     -0.38      0.00
  -10    0    7      0.25      0.00
   -9    0    7     -0.35      0.00
   -8    0    7     -0.62      0.00
   -7    0    7     -3.09      0.00
   -6    0    7      2.58      0.00
   -5    0    7      2.92      0.00
   -4    0    7     -1.04      0.00
   -3    0    7      6.35      0.00
   -2    0    7      5.36      0.00
   -1    0    7     -7.13      0.00
    0    0    7     -0.41      0.00
    1    0    7      1.84      0.00
    2    0    7      2.48      0.00
    3    0    7     -1.72      0.00
    4    0    7     -0.69      0.00
    5    0    7      1.20      0.00
    6    0    7     -1.09      0.00
    7    0    7     -1.26      0.00
    8    0    7      0.13      0.00
    9    0    7     -0.50      0.00
   10    0    7     -1.30      0.00
   11    0    7      0.97      0.00
   12    0    7      0.72      0.00
   13    0    7      1.13      0.00
   14    0    7     -0.45      0.00
  -15    1    7      1.59      0.00
  -14    1    7     -0.13      0.00
  -13    1    7     -1.07      0.00
  -12    1    7      0.49      0.00
  -11    1    7     -0.42      0.00
  -10    1    7      0.03      0.00
   -9    1    7      0.65      0.00
   -8    1    7      1.12      0.00
   -7    1    7      0.13      0.00
   -6    1    7     -5.18      0.00
   -5    1    7      1.12      0.00
   -4    1    7      2.28      0.00
   -3    1    7     -2.44      0.00
   -2    1    7      2.67      0.00
   -1    1    7     -0.24      0.00
    0    1    7     -0.60      0.00
    1    1    7     -0.34      0.00
    2    1    7     -1.57      0.00
    3    1    7      2.77      0.00
    4    1    7     -0.74      0.00
    5    1    7     -0.72      0.00
    6    1    7      0.86      0.00
    7    1    7     -1.00      0.00
    8    1    7      0.03      0.00
    9    1    7      0.93      0.00
   10    1    7      0.09      0.00
   11    1    7     -1.31      0.00
   12    1    7     -1.20      0.00
   13    1    7      1.09      0.00
  -15    2    7     -0.29      0.00
  -14    2    7     -0.03      0.00
  -13    2    7      0.28      0.00
  -12    2    7      0.39      0.00
  -11    2    7      0.85      0.00
  -10    2    7     -0.82      0.00
   -9    2    7      0.21      0.00
   -8    2    7     -0.76      0.00
   -7    2    7      3.37      0.00
   -6    2    7      1.81      0.00
   -5    2    7     -5.23      0.00
   -4    2    7     -1.61      0.00
   -3    2    7     -0.40      0.00
   -2    2    7      3.37      0.00
   -1    2    7      5.67      0.00
    0    2    7     -4.11      0.00
    1    2    7      2.60      0.00
    2    2    7      1.25      0.00
    3    2    7     -2.06      0.00
    4    2    7      1.83      0.00
    5    2    7     -0.55      0.00
    6    2    7      0.16      0.00
    7    2    7      1.25      0.00
    8    2    7     -0.67      0.00
    9    2    7     -0.07      0.00
   10    2    7      0.08      0.00
   11    2    7      0.91      0.00
   12    2    7      0.12      0.00
   13    2    7     -3.39      0.00
  -15    3    7      1.48      0.00
  -14    3    7      1.74      0.00
  -13    3    7     -0.24      0.00
  -12    3    7      0.04      0.00
  -11    3    7      0.86      0.00
  -10    3    7      0.19      0.00
   -9    3    7     -0.60      0.00
   -8    3    7     -0.35      0.00
   -7    3    7     -4.33      0.00
   -6    3    7      3.11      0.00
   -5    3    7      4.29      0.00
   -4    3    7     -0.24      0.00
   -3    3    7     -1.91      0.00
   -2    3    7     -7.40      0.00
   -1    3    7      1.42      0.00
    0    3    7      2.34      0.00
    1    3    7     -5.99      0.00
    2    3    7      1.79      0.00
    3    3    7      1.92      0.00
    4    3    7     -1.58      0.00
    5    3    7      0.25      0.00
    6    3    7     -1.79      0.00
    7    3    7     -0.31      0.00
    8    3    7      0.53      0.00
    9    3    7     -0.72      0.00
   10    3    7      0.14      0.00
   11    3    7     -0.52      0.00
   12    3    7      1.77      0.00
   13    3    7      3.37      0.00
  -15    4    7     -1.48      0.00
  -14    4    7     -0.44      0.00
  -13    4    7      0.67      0.00
  -12    4    7     -1.08      0.00
  -11    4    7      0.49      0.00
  -10    4    7      2.18      0.00
   -9    4    7     -0.59      0.00
   -8    4    7      0.69      0.00
   -7    4    7      0.48      0.00
   -6    4    7     -4.80      0.00
   -5    4    7     -1.03      0.00
   -4    4    7      1.78      0.00
   -3    4    7      4.14      0.00
   -2    4    7      0.67      0.00
   -1    4    7     -5.85      0.00
    0    4    7      6.30      0.00
    1    4    7      2.87      0.00
    2    4    7     -4.97      0.00
    3    4    7      0.92      0.00
    4    4    7      2.43      0.00
    5    4    7      0.87      0.00
    6    4    7      0.07      0.00
    7    4    7     -1.79      0.00
    8    4    7     -0.64      0.00
    9    4    7     -0.38      0.00
   10    4    7     -2.31      0.00
   11    4    7     -0.63      0.00
   12    4    7     -2.23      0.00
   13    4    7     -0.84      0.00
  -15    5    7      1.59      0.00
  -14    5    7     -0.12      0.00
  -13    5    7      1.31      0.00
  -12    5    7      0.86      0.00
  -11    5    7     -3.18      0.00
  -10    5    7     -1.35      0.00
   -9    5    7      2.57      0.00
   -8    5    7     -0.02      0.00
   -7    5    7      1.50      0.00
   -6    5    7      0.99      0.00
   -5    5    7     -0.32      0.00
   -4    5    7     -1.64      0.00
   -3    5    7     -2.28      0.00
   -2    5    7      5.14      0.00
   -1    5    7     -1.75      0.00
    0    5    7     -8.75      0.00
    1    5    7      5.86      0.00
    2    5    7      4.06      0.00
    3    5    7     -2.38      0.00
    4    5    7     -0.46      0.00
    5    5    7     -0.33      0.00
    6    5    7      1.15      0.00
    7    5    7      0.27      0.00
    8    5    7      0.05      0.00
    9    5    7      1.51      0.00
   10    5    7      1.14      0.00
   11    5    7     -0.97      0.00
   12    5    7      1.71      0.00
   13    5    7      0.36      0.00
  -15    6    7      0.79      0.00
  -14    6    7      1.70      0.00
  -13    6    7     -1.01      0.00
  -12    6    7      1.07      0.00
  -11    6    7      3.70      0.00
  -10    6    7     -2.15      0.00
   -7    6    7      0.34      0.00
   -6    6    7      0.55      0.00
   -5    6    7     -2.05      0.00
   -4    6    7      0.23      0.00
   -3    6    7     -1.38      0.00
   -2    6    7     -4.71      0.00
   -1    6    7      5.87      0.00
    0    6    7     -0.52      0.00
    1    6    7     -7.36      0.00
    2    6    7      1.52      0.00
    3    6    7      0.77      0.00
    4    6    7     -0.39      0.00
    5    6    7     -0.33      0.00
    6    6    7     -1.03      0.00
    7    6    7     -0.21      0.00
    8    6    7     -1.89      0.00
    9    6    7     -1.28      0.00
   10    6    7      1.49      0.00
   11    6    7      0.20      0.00
   12    6    7     -1.38      0.00
  -15    7    7     -1.28      0.00
  -14    7    7     -0.26      0.00
  -13    7    7      2.33      0.00
  -12    7    7     -0.63      0.00
  -11    7    7     -2.34      0.00
   -7    7    7     -1.23      0.00
   -6    7    7      1.11      0.00
   -5    7    7      1.78      0.00
   -4    7    7     -0.94      0.00
   -3    7    7      2.48      0.00
   -2    7    7      0.83      0.00
   -1    7    7     -3.49      0.00
    0    7    7      4.18      0.00
    1    7    7      0.84      0.00
    2    7    7     -0.93      0.00
    3    7    7      1.12      0.00
    4    7    7     -0.52      0.00
    5    7    7      1.45      0.00
    6    7    7      0.23      0.00
    7    7    7      1.05      0.00
    8    7    7      1.08      0.00
    9    7    7     -1.76      0.00
   10    7    7     -2.37      0.00
   11    7    7      0.59      0.00
   12    7    7     -0.79      0.00
  -15    8    7      0.26      0.00
  -14    8    7     -0.81      0.00
  -13    8    7     -2.32      0.00
  -12    8    7      2.33      0.00
   -8    8    7      2.58      0.00
   -7    8    7     -0.66      0.00
   -6    8    7     -1.86      0.00
   -5    8    7      0.44      0.00
   -4    8    7      0.66      0.00
   -3    8    7     -2.23      0.00
   -2    8    7      1.62      0.00
   -1    8    7      0.14      0.00
    0    8    7     -1.74      0.00
    1    8    7     -0.68      0.00
    2    8    7     -2.06      0.00
    3    8    7      1.41      0.00
    4    8    7     -0.69      0.00
    5    8    7     -2.02      0.00
    6    8    7      0.27      0.00
    7    8    7     -0.62      0.00
    8    8    7      0.93      0.00
    9    8    7      1.84      0.00
   10    8    7      0.11      0.00
   11    8    7     -0.97      0.00
  -14    9    7      0.59      0.00
  -13    9    7      0.21      0.00
   -8    9    7     -1.12      0.00
   -7    9    7      1.54      0.00
   -6    9    7      0.19      0.00
   -5    9    7     -1.20      0.00
   -4    9    7      0.57      0.00
   -3    9    7      0.90      0.00
   -2    9    7     -1.23      0.00
   -1    9    7      0.62      0.00
    0    9    7     -0.55      0.00
    1    9    7      2.21      0.00
    2    9    7     -1.21      0.00
    3    9    7     -2.79      0.00
    4    9    7      1.88      0.00
    5    9    7     -0.39      0.00
    6    9    7     -1.14      0.00
    7    9    7     -1.26      0.00
    8    9    7     -1.51      0.00
    9    9    7     -1.36      0.00
   10    9    7     -0.43      0.00
   11    9    7     -0.44      0.00
  -14   10    7      2.49      0.00
  -13   10    7      1.51      0.00
   -9   10    7      0.38      0.00
   -8   10    7     -1.16      0.00
   -7   10    7     -0.45      0.00
   -6   10    7      0.69      0.00
   -5   10    7      0.36      0.00
   -4   10    7      0.53      0.00
   -3   10    7      1.10      0.00
   -2   10    7      1.27      0.00
   -1   10    7      1.57      0.00
    0   10    7      0.14      0.00
    1   10    7     -1.46      0.00
    2   10    7      3.08      0.00
    3   10    7      0.30      0.00
    4   10    7     -0.95      0.00
    5   10    7      1.08      0.00
    6   10    7      0.73      0.00
    7   10    7      1.30      0.00
    8   10    7      0.41      0.00
    9   10    7      1.04      0.00
   10   10    7      0.07      0.00
  -14   11    7     -2.15      0.00
  -10   11    7      0.64      0.00
   -9   11    7      0.23      0.00
   -8   11    7      1.27      0.00
   -7   11    7     -1.23      0.00
   -6   11    7      0.47      0.00
   -5   11    7     -0.29      0.00
   -4   11    7     -1.13      0.00
   -3   11    7      0.22      0.00
   -2   11    7     -1.00      0.00
   -1   11    7     -0.30      0.00
    0   11    7      2.00      0.00
    1   11    7     -1.06      0.00
    2   11    7     -1.83      0.00
    3   11    7      1.03      0.00
    4   11    7     -0.21      0.00
    5   11    7     -0.11      0.00
    6   11    7     -0.93      0.00
    7   11    7     -0.56      0.00
    8   11    7     -0.16      0.00
    9   11    7     -0.91      0.00
   10   11    7      0.52      0.00
  -11   12    7     -0.54      0.00
  -10   12    7      0.15      0.00
   -9   12    7     -0.64      0.00
   -8   12    7     -0.29      0.00
   -7   12    7      0.92      0.00
   -6   12    7     -1.40      0.00
   -5   12    7      1.14      0.00
   -4   12    7      0.10      0.00
   -3   12    7      0.22      0.00
   -2   12    7      2.03      0.00
   -1   12    7     -1.90      0.00
    0   12    7     -1.13      0.00
    1   12    7      1.52      0.00
    2   12    7     -0.61      0.00
    3   12    7     -0.07      0.00
    4   12    7      0.90      0.00
    5   12    7     -0.14      0.00
    6   12    7      1.29      0.00
    7   12    7     -0.72      0.00
    8   12    7      0.58      0.00
    9   12    7      0.08      0.00
  -11   13    7      1.67      0.00
  -10   13    7     -0.72      0.00
   -9   13    7      0.64      0.00
   -8   13    7     -0.75      0.00
   -7   13    7      0.32      0.00
   -6   13    7      0.15      0.00
   -5   13    7     -1.56      0.00
   -4   13    7      0.54      0.00
   -3   13    7     -1.18      0.00
   -2   13    7     -0.25      0.00
   -1   13    7      2.28      0.00
    0   13    7     -0.92      0.00
    1   13    7     -1.06      0.00
    2   13    7     -0.61      0.00
    3   13    7     -1.26      0.00
    4   13    7      0.34      0.00
    5   13    7      0.30      0.00
    6   13    7     -0.76      0.00
    7   13    7      0.65      0.00
    8   13    7     -1.53      0.00
  -12   14    7     -2.39      0.00
  -11   14    7     -0.01      0.00
  -10   14    7      0.54      0.00
   -9   14    7      0.57      0.00
   -8   14    7      0.37      0.00
   -7   14    7     -0.64      0.00
   -6   14    7      1.15      0.00
   -5   14    7      0.52      0.00
   -4   14    7     -0.97      0.00
   -3   14    7      0.62      0.00
   -2   14    7     -0.88      0.00
   -1   14    7     -0.52      0.00
    0   14    7      0.38      0.00
    1   14    7      0.35      0.00
    2   14    7      0.77      0.00
    3   14    7      0.25      0.00
    4   14    7     -0.23      0.00
    5   14    7      1.25      0.00
    6   14    7     -0.04      0.00
    7   14    7      0.48      0.00
    8   14    7     -0.38      0.00
  -11   15    7     -0.23      0.00
  -10   15    7     -0.64      0.00
   -9   15    7     -1.70      0.00
   -8   15    7      0.64      0.00
   -7   15    7     -0.21      0.00
   -6   15    7     -1.02      0.00
   -5   15    7      0.94      0.00
   -4   15    7      0.80      0.00
   -3   15    7     -0.71      0.00
   -2   15    7      0.07      0.00
   -1   15    7     -0.69      0.00
    0   15    7     -0.61      0.00
    1   15    7     -1.87      0.00
    2   15    7     -0.22      0.00
    3   15    7      0.13      0.00
    4   15    7      0.48      0.00
    5   15    7      0.69      0.00
    6   15    7      1.40      0.00
    7   15    7     -0.81      0.00
  -10   16    7      2.08      0.00
   -9   16    7      1.45      0.00
   -8   16    7     -0.72      0.00
   -7   16    7      0.82      0.00
   -6   16    7      0.21      0.00
   -5   16    7     -1.64      0.00
   -4   16    7      0.15      0.00
   -3   16    7      0.38      0.00
   -2   16    7     -0.81      0.00
   -1   16    7     -0.61      0.00
    0   16    7      0.28      0.00
    1   16    7      0.81      0.00
    2   16    7     -1.32      0.00
    3   16    7      0.22      0.00
    4   16    7     -0.43      0.00
    5   16    7     -0.10      0.00
   -9   17    7      0.06      0.00
   -8   17    7      1.09      0.00
   -7   17    7     -0.35      0.00
   -6   17    7      0.54      0.00
   -5   17    7      1.40      0.00
   -4   17    7     -0.48      0.00
   -3   17    7      0.58      0.00
   -2   17    7      0.77      0.00
   -1   17    7      0.29      0.00
    0   17    7     -1.19      0.00
    1   17    7      0.61      0.00
    2   17    7      1.05      0.00
    3   17    7     -0.35      0.00
    4   17    7      0.46      0.00
   -7   18    7      0.66      0.00
   -6   18    7     -0.16      0.00
   -5   18    7     -0.09      0.00
   -4   18    7      0.61      0.00
   -3   18    7     -0.05      0.00
   -2   18    7      0.51      0.00
   -1   18    7      0.10      0.00
    0   18    7     -0.24      0.00
    1   18    7     -2.57      0.00
    2   18    7      0.18      0.00
   -4   19    7      0.83      0.00
   -3   19    7      0.97      0.00
   -2   19    7      0.30      0.00
   -1   19    7      0.83      0.00
    0  -19    8      0.76      0.00
    1  -19    8      0.23      0.00
    2  -19    8     -0.88      0.00
   -4  -18    8      0.60      0.00
   -3  -18    8     -1.84      0.00
   -2  -18    8      0.40      0.00
   -1  -18    8     -0.05      0.00
    0  -18    8      0.32      0.00
    1  -18    8      1.42      0.00
    2  -18    8      0.87      0.00
    3  -18    8      0.23      0.00
    4  -18    8      1.13      0.00
    5  -18    8      0.04      0.00
   -6  -17    8     -2.16      0.00
   -5  -17    8     -0.67      0.00
   -4  -17    8      1.97      0.00
   -3  -17    8      0.87      0.00
   -2  -17    8     -1.62      0.00
   -1  -17    8      0.85      0.00
    0  -17    8      0.25      0.00
    1  -17    8     -0.34      0.00
    2  -17    8      0.49      0.00
    3  -17    8     -0.88      0.00
    4  -17    8     -0.04      0.00
    5  -17    8      2.01      0.00
    6  -17    8      2.29      0.00
    7  -17    8      0.88      0.00
   -7  -16    8      1.62      0.00
   -6  -16    8      0.80      0.00
   -5  -16    8     -0.72      0.00
   -4  -16    8     -0.11      0.00
   -3  -16    8      1.30      0.00
   -2  -16    8      1.09      0.00
   -1  -16    8     -0.63      0.00
    0  -16    8     -0.36      0.00
    1  -16    8     -0.14      0.00
    2  -16    8     -0.10      0.00
    3  -16    8      0.90      0.00
    4  -16    8     -1.76      0.00
    5  -16    8     -1.62      0.00
    6  -16    8     -0.87      0.00
    7  -16    8      2.14      0.00
    8  -16    8      1.95      0.00
   -8  -15    8      1.05      0.00
   -7  -15    8     -1.16      0.00
   -6  -15    8     -0.13      0.00
   -5  -15    8     -0.57      0.00
   -4  -15    8     -1.34      0.00
   -3  -15    8      0.65      0.00
   -2  -15    8     -0.06      0.00
   -1  -15    8      1.26      0.00
    0  -15    8      1.55      0.00
    1  -15    8      0.49      0.00
    2  -15    8     -0.49      0.00
    3  -15    8     -0.42      0.00
    4  -15    8      0.60      0.00
    5  -15    8      0.45      0.00
    6  -15    8     -0.12      0.00
    7  -15    8     -2.17      0.00
    8  -15    8      0.57      0.00
    9  -15    8      0.71      0.00
   -9  -14    8     -1.10      0.00
   -8  -14    8     -1.02      0.00
   -7  -14    8      0.59      0.00
   -6  -14    8     -0.31      0.00
   -5  -14    8      0.47      0.00
   -4  -14    8     -0.97      0.00
   -3  -14    8     -2.14      0.00
   -2  -14    8     -0.18      0.00
   -1  -14    8     -1.66      0.00
    0  -14    8     -0.92      0.00
    1  -14    8     -0.14      0.00
    2  -14    8      0.50      0.00
    3  -14    8     -0.12      0.00
    4  -14    8      0.09      0.00
    5  -14    8     -1.48      0.00
    6  -14    8      0.31      0.00
    7  -14    8     -0.12      0.00
    8  -14    8     -1.27      0.00
    9  -14    8      0.87      0.00
   10  -14    8      0.16      0.00
  -10  -13    8      1.20      0.00
   -9  -13    8      1.24      0.00
   -8  -13    8      0.89      0.00
   -7  -13    8     -0.13      0.00
   -6  -13    8      0.60      0.00
   -5  -13    8     -1.06      0.00
   -4  -13    8      1.42      0.00
   -3  -13    8      0.96      0.00
   -2  -13    8      0.61      0.00
   -1  -13    8      0.57      0.00
    0  -13    8      0.89      0.00
    1  -13    8      0.16      0.00
    2  -13    8      0.07      0.00
    3  -13    8      0.65      0.00
    4  -13    8      0.66      0.00
    5  -13    8      1.38      0.00
    6  -13    8     -0.50      0.00
    7  -13    8      1.16      0.00
    8  -13    8     -0.60      0.00
    9  -13    8     -1.47      0.00
   10  -13    8      0.49      0.00
  -11  -12    8     -0.51      0.00
  -10  -12    8     -1.09      0.00
   -9  -12    8     -0.50      0.00
   -8  -12    8     -1.28      0.00
   -7  -12    8     -0.50      0.00
   -6  -12    8      0.44      0.00
   -5  -12    8      1.35      0.00
   -4  -12    8     -2.22      0.00
   -3  -12    8     -1.22      0.00
   -2  -12    8     -0.15      0.00
   -1  -12    8      0.15      0.00
    0  -12    8     -0.73      0.00
    1  -12    8      0.93      0.00
    2  -12    8     -0.81      0.00
    3  -12    8     -0.67      0.00
    4  -12    8     -0.41      0.00
    5  -12    8      0.60      0.00
    6  -12    8      0.14      0.00
    7  -12    8     -0.76      0.00
    8  -12    8      0.67      0.00
    9  -12    8      0.46      0.00
   10  -12    8     -0.93      0.00
   11  -12    8     -1.22      0.00
  -12  -11    8     -1.15      0.00
  -11  -11    8      1.24      0.00
  -10  -11    8      0.30      0.00
   -9  -11    8      1.19      0.00
   -8  -11    8      0.20      0.00
   -7  -11    8      0.39      0.00
   -6  -11    8     -1.52      0.00
   -5  -11    8      0.00      0.00
   -4  -11    8      1.77      0.00
   -3  -11    8     -1.19      0.00
   -2  -11    8     -1.67      0.00
   -1  -11    8      0.48      0.00
    0  -11    8     -0.68      0.00
    1  -11    8     -0.76      0.00
    2  -11    8      0.50      0.00
    3  -11    8     -0.23      0.00
    4  -11    8     -0.31      0.00
    5  -11    8     -0.77      0.00
    6  -11    8      0.73      0.00
    7  -11    8     -0.03      0.00
    8  -11    8     -0.80      0.00
    9  -11    8     -1.10      0.00
   10  -11    8      0.16      0.00
   11  -11    8     -0.82      0.00
   12  -11    8     -3.25      0.00
  -12  -10    8     -0.81      0.00
  -11  -10    8     -1.26      0.00
  -10  -10    8     -1.47      0.00
   -9  -10    8     -0.55      0.00
   -8  -10    8      0.20      0.00
   -7  -10    8     -0.83      0.00
   -6  -10    8      1.16      0.00
   -5  -10    8     -1.50      0.00
   -4  -10    8     -0.33      0.00
   -3  -10    8      2.04      0.00
   -2  -10    8     -0.70      0.00
   -1  -10    8     -0.41      0.00
    0  -10    8      1.90      0.00
    1  -10    8      0.32      0.00
    2  -10    8      1.19      0.00
    3  -10    8      0.15      0.00
    4  -10    8      0.89      0.00
    5  -10    8      0.71      0.00
    6  -10    8      0.04      0.00
    7  -10    8      0.72      0.00
    8  -10    8      0.64      0.00
    9  -10    8     -0.23      0.00
   10  -10    8     -0.18      0.00
   11  -10    8      1.40      0.00
   12  -10    8      0.61      0.00
  -13   -9    8     -0.44      0.00
  -12   -9    8      0.31      0.00
  -11   -9    8      1.19      0.00
  -10   -9    8      0.97      0.00
   -9   -9    8     -0.44      0.00
   -8   -9    8      0.57      0.00
   -7   -9    8     -0.36      0.00
   -6   -9    8     -0.57      0.00
   -5   -9    8      0.61      0.00
   -4   -9    8     -1.64      0.00
   -3   -9    8     -1.19      0.00
   -2   -9    8      0.66      0.00
   -1   -9    8     -3.14      0.00
    0   -9    8     -1.26      0.00
    1   -9    8     -0.17      0.00
    2   -9    8     -0.92      0.00
    3   -9    8      0.47      0.00
    4   -9    8     -1.28      0.00
    5   -9    8      0.03      0.00
    6   -9    8      0.07      0.00
    7   -9    8     -0.91      0.00
    8   -9    8     -0.17      0.00
    9   -9    8      0.42      0.00
   10   -9    8     -1.11      0.00
   11   -9    8     -0.81      0.00
   12   -9    8      0.41      0.00
  -13   -8    8      0.52      0.00
  -12   -8    8     -0.81      0.00
  -11   -8    8     -1.48      0.00
  -10   -8    8     -0.47      0.00
   -9   -8    8     -0.58      0.00
   -8   -8    8      0.71      0.00
   -7   -8    8      1.33      0.00
   -6   -8    8      0.02      0.00
   -5   -8    8      0.03      0.00
   -4   -8    8      0.81      0.00
   -3   -8    8     -0.07      0.00
   -2   -8    8      1.84      0.00
   -1   -8    8      2.41      0.00
    0   -8    8     -1.86      0.00
    1   -8    8     -0.07      0.00
    2   -8    8     -0.03      0.00
    3   -8    8      0.59      0.00
    4   -8    8      1.02      0.00
    5   -8    8     -1.22      0.00
    6   -8    8     -0.06      0.00
    7   -8    8      0.86      0.00
    8   -8    8     -0.84      0.00
    9   -8    8      0.52      0.00
   10   -8    8      0.58      0.00
   11   -8    8      0.15      0.00
   12   -8    8     -0.61      0.00
   13   -8    8     -1.55      0.00
  -14   -7    8     -0.73      0.00
  -13   -7    8      0.37      0.00
  -12   -7    8      0.44      0.00
  -11   -7    8      0.52      0.00
  -10   -7    8      0.16      0.00
   -9   -7    8     -0.36      0.00
   -8   -7    8     -1.99      0.00
   -7   -7    8     -0.21      0.00
   -6   -7    8      0.06      0.00
   -5   -7    8     -0.33      0.00
   -4   -7    8     -1.99      0.00
   -3   -7    8     -1.37      0.00
   -2   -7    8     -0.99      0.00
   -1   -7    8      2.97      0.00
    0   -7    8      1.59      0.00
    1   -7    8     -1.14      0.00
    2   -7    8      0.23      0.00
    3   -7    8     -1.63      0.00
    4   -7    8      0.66      0.00
    5   -7    8      1.67      0.00
    6   -7    8     -0.68      0.00
    7   -7    8      0.14      0.00
    8   -7    8      0.52      0.00
    9   -7    8     -1.40      0.00
   10   -7    8      0.81      0.00
   11   -7    8      0.38      0.00
   12   -7    8      1.97      0.00
   13   -7    8      1.12      0.00
  -14   -6    8     -0.17      0.00
  -13   -6    8     -0.50      0.00
  -12   -6    8     -0.12      0.00
  -11   -6    8     -0.62      0.00
  -10   -6    8      0.24      0.00
   -9   -6    8      1.36      0.00
   -8   -6    8      0.79      0.00
   -7   -6    8     -0.08      0.00
   -6   -6    8     -0.33      0.00
   -5   -6    8      1.49      0.00
   -4   -6    8      1.98      0.00
   -3   -6    8     -1.51      0.00
   -2   -6    8     -3.64      0.00
   -1   -6    8     -3.07      0.00
    0   -6    8      2.71      0.00
    1   -6    8     -0.49      0.00
    2   -6    8     -1.87      0.00
    3   -6    8      0.92      0.00
    4   -6    8     -2.57      0.00
    5   -6    8     -0.48      0.00
    6   -6    8      0.59      0.00
    7   -6    8     -0.97      0.00
    8   -6    8      0.56      0.00
    9   -6    8     -0.28      0.00
   10   -6    8     -1.94      0.00
   11   -6    8     -1.06      0.00
   12   -6    8     -0.64      0.00
   13   -6    8      1.18      0.00
  -14   -5    8      0.51      0.00
  -13   -5    8     -0.23      0.00
  -12   -5    8     -0.36      0.00
  -11   -5    8      0.37      0.00
  -10   -5    8     -0.46      0.00
   -9   -5    8     -0.43      0.00
   -8   -5    8     -0.15      0.00
   -7   -5    8     -0.54      0.00
   -6   -5    8     -0.41      0.00
   -5   -5    8     -2.75      0.00
   -4   -5    8      1.63      0.00
   -3   -5    8      4.22      0.00
   -2   -5    8      2.37      0.00
   -1   -5    8     -0.91      0.00
    0   -5    8     -0.74      0.00
    1   -5    8      5.44      0.00
    2   -5    8      0.79      0.00
    3   -5    8     -0.30      0.00
    4   -5    8      1.94      0.00
    5   -5    8     -1.25      0.00
    6   -5    8     -0.04      0.00
    7   -5    8     -0.08      0.00
    8   -5    8     -0.11      0.00
    9   -5    8      1.12      0.00
   10   -5    8     -0.35      0.00
   11   -5    8     -0.79      0.00
   12   -5    8     -1.76      0.00
   13   -5    8      0.29      0.00
  -15   -4    8      0.06      0.00
  -14   -4    8     -1.32      0.00
  -13   -4    8     -0.25      0.00
  -12   -4    8      0.47      0.00
  -11   -4    8     -0.37      0.00
  -10   -4    8      0.21      0.00
   -9   -4    8      0.55      0.00
   -8   -4    8      1.04      0.00
   -7   -4    8      0.03      0.00
   -6   -4    8      0.26      0.00
   -5   -4    8     -0.67      0.00
   -4   -4    8     -5.40      0.00
   -3   -4    8     -1.83      0.00
   -2   -4    8      1.32      0.00
   -1   -4    8     -1.99      0.00
    0   -4    8     -6.13      0.00
    1   -4    8     -4.36      0.00
    2   -4    8      2.97      0.00
    3   -4    8     -1.46      0.00
    4   -4    8     -0.63      0.00
    5   -4    8      0.17      0.00
    6   -4    8     -0.24      0.00
    7   -4    8      0.50      0.00
    8   -4    8     -0.56      0.00
    9   -4    8      0.97      0.00
   10   -4    8      1.43      0.00
   11   -4    8      0.48      0.00
   12   -4    8      0.03      0.00
   13   -4    8     -1.66      0.00
  -15   -3    8     -0.15      0.00
  -14   -3    8      0.09      0.00
  -13   -3    8     -1.42      0.00
  -12   -3    8     -1.65      0.00
  -11   -3    8      0.48      0.00
  -10   -3    8      0.24      0.00
   -9   -3    8     -0.52      0.00
   -8   -3    8      0.03      0.00
   -7   -3    8      0.70      0.00
   -6   -3    8     -0.05      0.00
   -5   -3    8      2.84      0.00
   -4   -3    8      3.26      0.00
   -3   -3    8     -1.96      0.00
   -2   -3    8      1.79      0.00
   -1   -3    8      7.30      0.00
    0   -3    8      3.81      0.00
    1   -3    8     -3.80      0.00
    2   -3    8     -3.45      0.00
    3   -3    8      2.25      0.00
    4   -3    8     -0.81      0.00
    5   -3    8      0.50      0.00
    6   -3    8     -0.27      0.00
    7   -3    8      0.46      0.00
    8   -3    8      0.18      0.00
    9   -3    8     -0.55      0.00
   10   -3    8      0.23      0.00
   11   -3    8     -0.33      0.00
   12   -3    8      0.24      0.00
   13   -3    8     -0.33      0.00
  -15   -2    8      0.66      0.00
  -14   -2    8      0.24      0.00
  -13   -2    8      0.45      0.00
  -12   -2    8     -0.42      0.00
  -11   -2    8     -1.44      0.00
  -10   -2    8     -0.37      0.00
   -9   -2    8      0.08      0.00
   -8   -2    8     -1.22      0.00
   -7   -2    8      0.34      0.00
   -6   -2    8     -0.66      0.00
   -5   -2    8     -2.61      0.00
   -4   -2    8      1.01      0.00
   -3   -2    8      1.09      0.00
   -2   -2    8     -6.24      0.00
   -1   -2    8     -2.33      0.00
    0   -2    8      3.16      0.00
    1   -2    8      4.22      0.00
    2   -2    8     -1.26      0.00
    3   -2    8     -0.63      0.00
    4   -2    8      1.06      0.00
    5   -2    8     -0.71      0.00
    6   -2    8     -0.44      0.00
    7   -2    8     -0.12      0.00
    8   -2    8      0.19      0.00
    9   -2    8     -1.31      0.00
   10   -2    8      0.10      0.00
   11   -2    8      0.17      0.00
   12   -2    8     -0.01      0.00
   13   -2    8      0.37      0.00
  -15   -1    8     -2.19      0.00
  -14   -1    8     -1.13      0.00
  -13   -1    8      0.60      0.00
  -12   -1    8      0.46      0.00
  -11   -1    8      0.32      0.00
  -10   -1    8      0.41      0.00
   -9   -1    8      0.67      0.00
   -8   -1    8      0.52      0.00
   -7   -1    8     -1.71      0.00
   -6   -1    8      3.05      0.00
   -5   -1    8      1.79      0.00
   -4   -1    8     -1.61      0.00
   -3   -1    8      3.68      0.00
   -2   -1    8      2.11      0.00
   -1   -1    8     -6.08      0.00
    0   -1    8     -3.78      0.00
    1   -1    8     -0.81      0.00
    2   -1    8      1.13      0.00
    3   -1    8     -2.57      0.00
    4   -1    8     -0.16      0.00
    5   -1    8      0.60      0.00
    6   -1    8      0.06      0.00
    7   -1    8     -0.56      0.00
    8   -1    8      1.08      0.00
    9   -1    8      0.63      0.00
   10   -1    8     -1.25      0.00
   11   -1    8      0.80      0.00
   12   -1    8      0.41      0.00
   13   -1    8      1.67      0.00
  -15    0    8      2.71      0.00
  -14    0    8     -0.92      0.00
  -13    0    8     -2.39      0.00
  -12    0    8      0.04      0.00
  -11    0    8     -0.84      0.00
  -10    0    8     -0.63      0.00
   -9    0    8     -0.26      0.00
   -8    0    8      0.98      0.00
   -7    0    8     -0.22      0.00
   -6    0    8     -4.84      0.00
   -5    0    8      1.75      0.00
   -4    0    8      2.75      0.00
   -3    0    8      0.20      0.00
   -2    0    8      6.62      0.00
   -1    0    8      4.14      0.00
    0    0    8      1.63      0.00
    1    0    8      0.10      0.00
    2    0    8      0.94      0.00
    3    0    8      2.43      0.00
    4    0    8     -1.71      0.00
    5    0    8     -0.30      0.00
    6    0    8      0.19      0.00
    7    0    8     -0.48      0.00
    8    0    8     -0.63      0.00
    9    0    8      0.80      0.00
   10    0    8     -0.29      0.00
   11    0    8     -1.62      0.00
   12    0    8     -1.04      0.00
   13    0    8     -0.62      0.00
  -15    1    8     -0.89      0.00
  -14    1    8      1.99      0.00
  -13    1    8      1.04      0.00
  -12    1    8     -0.28      0.00
  -11    1    8      1.51      0.00
  -10    1    8     -0.45      0.00
   -9    1    8     -0.05      0.00
   -8    1    8     -1.14      0.00
   -7    1    8      2.74      0.00
   -6    1    8      1.58      0.00
   -5    1    8     -4.92      0.00
   -4    1    8     -2.38      0.00
   -3    1    8     -3.26      0.00
   -2    1    8     -2.23      0.00
   -1    1    8      1.55      0.00
    0    1    8     -4.09      0.00
    1    1    8      0.28      0.00
    2    1    8     -1.23      0.00
    3    1    8     -0.83      0.00
    4    1    8      1.35      0.00
    5    1    8     -1.63      0.00
    6    1    8      0.07      0.00
    7    1    8      0.89      0.00
    8    1    8     -0.14      0.00
    9    1    8      0.31      0.00
   10    1    8      0.79      0.00
   11    1    8      1.05      0.00
   12    1    8      1.03      0.00
   13    1    8     -1.54      0.00
  -15    2    8      0.51      0.00
  -14    2    8     -0.37      0.00
  -13    2    8     -0.54      0.00
  -12    2    8     -0.85      0.00
  -11    2    8     -0.67      0.00
  -10    2    8      0.38      0.00
   -9    2    8     -0.14      0.00
   -8    2    8     -0.07      0.00
   -7    2    8     -3.60      0.00
   -6    2    8      2.34      0.00
   -5    2    8      3.74      0.00
   -4    2    8      1.10      0.00
   -3    2    8      1.65      0.00
   -2    2    8     -3.01      0.00
   -1    2    8      1.90      0.00
    0    2    8      3.81      0.00
    1    2    8     -2.06      0.00
    2    2    8      2.34      0.00
    3    2    8      0.91      0.00
    4    2    8      0.13      0.00
    5    2    8      1.02      0.00
    6    2    8     -1.69      0.00
    7    2    8     -0.60      0.00
    8    2    8     -0.50      0.00
    9    2    8     -1.42      0.00
   10    2    8     -0.46      0.00
   11    2    8     -1.61      0.00
   12    2    8      0.56      0.00
   13    2    8      2.32      0.00
  -15    3    8     -0.29      0.00
  -14    3    8      0.69      0.00
  -13    3    8      1.23      0.00
  -12    3    8      0.17      0.00
  -11    3    8      0.34      0.00
  -10    3    8      0.64      0.00
   -9    3    8     -1.67      0.00
   -8    3    8      0.67      0.00
   -7    3    8      0.70      0.00
   -6    3    8     -3.56      0.00
   -5    3    8     -0.07      0.00
   -4    3    8      1.54      0.00
   -3    3    8      1.83      0.00
   -2    3    8      0.18      0.00
   -1    3    8     -4.45      0.00
    0    3    8      2.59      0.00
    1    3    8      1.11      0.00
    2    3    8     -2.85      0.00
    3    3    8      0.89      0.00
    4    3    8      0.75      0.00
    5    3    8      0.67      0.00
    6    3    8      0.15      0.00
    7    3    8     -0.94      0.00
    8    3    8      0.29      0.00
    9    3    8      0.12      0.00
   10    3    8     -0.76      0.00
   11    3    8      1.14      0.00
   12    3    8     -1.00      0.00
   13    3    8      1.17      0.00
  -15    4    8      0.82      0.00
  -14    4    8     -0.34      0.00
  -13    4    8      1.17      0.00
  -12    4    8      0.60      0.00
  -11    4    8     -2.03      0.00
  -10    4    8      0.26      0.00
   -9    4    8      2.88      0.00
   -8    4    8     -0.96      0.00
   -7    4    8      1.11      0.00
   -6    4    8     -0.44      0.00
   -5    4    8     -2.68      0.00
   -4    4    8     -3.06      0.00
   -3    4    8     -1.29      0.00
   -2    4    8      4.06      0.00
   -1    4    8     -2.00      0.00
    0    4    8     -5.55      0.00
    1    4    8      4.74      0.00
    2    4    8      2.45      0.00
    3    4    8     -1.66      0.00
    4    4    8     -0.73      0.00
    5    4    8     -0.44      0.00
    6    4    8      1.27      0.00
    7    4    8      0.10      0.00
    8    4    8     -0.22      0.00
    9    4    8      0.63      0.00
   10    4    8     -0.12      0.00
   11    4    8     -1.52      0.00
   12    4    8      0.51      0.00
   13    4    8     -1.07      0.00
  -15    5    8      1.06      0.00
  -14    5    8      0.93      0.00
  -13    5    8     -1.16      0.00
  -12    5    8      1.83      0.00
  -11    5    8      2.88      0.00
  -10    5    8     -2.91      0.00
   -9    5    8     -2.50      0.00
   -8    5    8      0.43      0.00
   -7    5    8      0.37      0.00
   -6    5    8      2.27      0.00
   -5    5    8     -0.03      0.00
   -4    5    8      1.10      0.00
   -3    5    8     -2.00      0.00
   -2    5    8     -2.85      0.00
   -1    5    8      6.87      0.00
    0    5    8     -1.22      0.00
    1    5    8     -6.10      0.00
    2    5    8      2.23      0.00
    3    5    8      1.20      0.00
    4    5    8      0.18      0.00
    5    5    8     -0.85      0.00
    6    5    8     -0.66      0.00
    7    5    8      0.66      0.00
    8    5    8     -0.72      0.00
    9    5    8     -0.41      0.00
   10    5    8      1.38      0.00
   11    5    8      0.72      0.00
   12    5    8     -0.37      0.00
  -15    6    8     -1.44      0.00
  -14    6    8      0.44      0.00
  -13    6    8      1.46      0.00
  -12    6    8     -1.36      0.00
  -11    6    8     -0.53      0.00
  -10    6    8      4.89      0.00
   -9    6    8      0.97      0.00
   -7    6    8     -2.11      0.00
   -6    6    8     -0.34      0.00
   -5    6    8      0.70      0.00
   -4    6    8     -1.87      0.00
   -3    6    8      1.15      0.00
   -2    6    8     -2.26      0.00
   -1    6    8     -4.33      0.00
    0    6    8      4.93      0.00
    1    6    8     -0.29      0.00
    2    6    8     -2.34      0.00
    3    6    8      1.10      0.00
    4    6    8     -0.33      0.00
    5    6    8      0.79      0.00
    6    6    8     -1.26      0.00
    7    6    8     -0.18      0.00
    8    6    8      0.77      0.00
    9    6    8     -1.35      0.00
   10    6    8     -1.85      0.00
   11    6    8      0.14      0.00
   12    6    8     -0.30      0.00
  -15    7    8      1.05      0.00
  -14    7    8     -0.85      0.00
  -13    7    8     -2.26      0.00
  -12    7    8      1.17      0.00
  -11    7    8      0.14      0.00
  -10    7    8     -3.37      0.00
   -7    7    8      0.41      0.00
   -6    7    8     -0.98      0.00
   -5    7    8      1.33      0.00
   -4    7    8      1.57      0.00
   -3    7    8     -0.88      0.00
   -2    7    8      2.88      0.00
   -1    7    8     -0.69      0.00
    0    7    8     -1.72      0.00
    1    7    8      1.37      0.00
    2    7    8     -1.18      0.00
    3    7    8      0.46      0.00
    4    7    8     -0.56      0.00
    5    7    8     -0.99      0.00
    6    7    8      1.15      0.00
    7    7    8     -0.40      0.00
    8    7    8      0.06      0.00
    9    7    8      1.29      0.00
   10    7    8     -0.34      0.00
   11    7    8     -1.11      0.00
   12    7    8      0.30      0.00
  -15    8    8      0.41      0.00
  -14    8    8      1.74      0.00
  -13    8    8      2.27      0.00
  -12    8    8     -3.42      0.00
  -11    8    8     -0.87      0.00
   -8    8    8     -1.02      0.00
   -7    8    8      1.30      0.00
   -6    8    8     -0.19      0.00
   -5    8    8     -1.95      0.00
   -4    8    8      0.41      0.00
   -3    8    8      0.23      0.00
   -2    8    8     -2.08      0.00
   -1    8    8      0.73      0.00
    0    8    8     -0.99      0.00
    1    8    8      1.82      0.00
    2    8    8     -0.93      0.00
    3    8    8     -1.68      0.00
    4    8    8      1.81      0.00
    5    8    8     -1.32      0.00
    6    8    8     -2.00      0.00
    7    8    8     -1.08      0.00
    8    8    8     -0.47      0.00
    9    8    8     -0.53      0.00
   10    8    8      1.00      0.00
   11    8    8      0.79      0.00
  -14    9    8     -0.45      0.00
  -13    9    8      0.21      0.00
  -12    9    8      2.93      0.00
   -9    9    8      0.50      0.00
   -8    9    8     -0.27      0.00
   -7    9    8     -0.10      0.00
   -6    9    8      1.56      0.00
   -5    9    8      1.08      0.00
   -4    9    8     -0.34      0.00
   -3    9    8      1.44      0.00
   -2    9    8      1.44      0.00
   -1    9    8      0.95      0.00
    0    9    8     -0.45      0.00
    1    9    8     -1.60      0.00
    2    9    8      3.24      0.00
    3    9    8     -0.55      0.00
    4    9    8     -0.39      0.00
    5    9    8      2.03      0.00
    6    9    8      1.30      0.00
    7    9    8      0.91      0.00
    8    9    8     -0.23      0.00
    9    9    8      0.03      0.00
   10    9    8     -1.53      0.00
   11    9    8     -1.31      0.00
  -14   10    8     -0.63      0.00
  -13   10    8     -0.30      0.00
   -9   10    8      0.26      0.00
   -8   10    8      0.21      0.00
   -7   10    8     -1.72      0.00
   -6   10    8     -0.27      0.00
   -5   10    8      0.21      0.00
   -4   10    8      0.28      0.00
   -3   10    8      0.18      0.00
   -2   10    8     -0.07      0.00
   -1   10    8      0.02      0.00
    0   10    8      2.14      0.00
    1   10    8     -1.54      0.00
    2   10    8     -1.85      0.00
    3   10    8      1.29      0.00
    4   10    8     -0.88      0.00
    5   10    8     -0.70      0.00
    6   10    8     -1.83      0.00
    7   10    8     -0.97      0.00
    8   10    8     -0.20      0.00
    9   10    8      0.27      0.00
   10   10    8      1.54      0.00
  -10   11    8     -1.14      0.00
   -9   11    8     -0.45      0.00
   -8   11    8      0.88      0.00
   -7   11    8      1.45      0.00
   -6   11    8     -1.33      0.00
   -5   11    8      0.34      0.00
   -4   11    8     -0.63      0.00
   -3   11    8     -0.10      0.00
   -2   11    8      1.05      0.00
   -1   11    8     -2.18      0.00
    0   11    8     -1.26      0.00
    1   11    8      1.98      0.00
    2   11    8     -1.23      0.00
    3   11    8     -0.66      0.00
    4   11    8      0.70      0.00
    5   11    8      0.67      0.00
    6   11    8      2.02      0.00
    7   11    8     -0.45      0.00
    8   11    8     -0.31      0.00
    9   11    8     -1.55      0.00
   10   11    8     -1.41      0.00
  -11   12    8      1.45      0.00
  -10   12    8     -1.09      0.00
   -9   12    8     -0.33      0.00
   -8   12    8     -1.61      0.00
   -7   12    8     -0.11      0.00
   -6   12    8     -0.09      0.00
   -5   12    8     -0.81      0.00
   -4   12    8      1.35      0.00
   -3   12    8     -1.03      0.00
   -2   12    8      0.52      0.00
   -1   12    8      3.11      0.00
    0   12    8     -1.44      0.00
    1   12    8     -1.52      0.00
    2   12    8      0.45      0.00
    3   12    8     -0.48      0.00
    4   12    8      0.09      0.00
    5   12    8     -0.68      0.00
    6   12    8     -0.92      0.00
    7   12    8      0.37      0.00
    8   12    8     -0.36      0.00
    9   12    8      1.62      0.00
  -11   13    8      0.42      0.00
  -10   13    8      0.74      0.00
   -9   13    8      0.15      0.00
   -8   13    8     -0.04      0.00
   -7   13    8     -0.05      0.00
   -6   13    8      1.67      0.00
   -5   13    8     -0.47      0.00
   -4   13    8     -0.72      0.00
   -3   13    8      0.93      0.00
   -2   13    8     -1.97      0.00
   -1   13    8     -1.05      0.00
    0   13    8      1.48      0.00
    1   13    8      0.87      0.00
    2   13    8      0.06      0.00
    3   13    8     -0.17      0.00
    4   13    8      0.20      0.00
    5   13    8      1.72      0.00
    6   13    8      0.53      0.00
    7   13    8      0.93      0.00
    8   13    8     -0.91      0.00
  -12   14    8      2.19      0.00
  -11   14    8     -0.84      0.00
  -10   14    8     -0.19      0.00
   -9   14    8     -0.70      0.00
   -8   14    8      1.18      0.00
   -7   14    8     -1.94      0.00
   -6   14    8     -1.59      0.00
   -5   14    8      0.97      0.00
   -4   14    8     -0.37      0.00
   -3   14    8      0.04      0.00
   -2   14    8      0.56      0.00
   -1   14    8     -1.25      0.00
    0   14    8     -2.05      0.00
    1   14    8     -2.18      0.00
    2   14    8      0.97      0.00
    3   14    8      0.58      0.00
    4   14    8      0.15      0.00
    5   14    8      0.27      0.00
    6   14    8      0.60      0.00
    7   14    8     -0.87      0.00
  -11   15    8      0.93      0.00
  -10   15    8      2.03      0.00
   -9   15    8      0.29      0.00
   -8   15    8     -1.01      0.00
   -7   15    8      2.33      0.00
   -6   15    8     -0.44      0.00
   -5   15    8     -1.24      0.00
   -4   15    8      0.50      0.00
   -3   15    8     -0.74      0.00
   -2   15    8     -0.13      0.00
   -1   15    8      0.36      0.00
    0   15    8      1.59      0.00
    1   15    8      0.04      0.00
    2   15    8     -2.31      0.00
    3   15    8      0.31      0.00
    4   15    8     -0.85      0.00
    5   15    8     -0.67      0.00
    6   15    8      1.48      0.00
  -10   16    8     -1.34      0.00
   -9   16    8      2.01      0.00
   -8   16    8      1.11      0.00
   -7   16    8     -0.81      0.00
   -6   16    8      1.30      0.00
   -5   16    8      0.46      0.00
   -4   16    8     -0.60      0.00
   -3   16    8      1.11      0.00
   -2   16    8     -0.02      0.00
   -1   16    8     -0.91      0.00
    0   16    8     -2.23      0.00
    1   16    8      1.41      0.00
    2   16    8      0.98      0.00
    3   16    8      0.30      0.00
    4   16    8      1.53      0.00
    5   16    8     -1.04      0.00
   -9   17    8     -2.04      0.00
   -8   17    8     -0.86      0.00
   -7   17    8      0.47      0.00
   -6   17    8     -0.50      0.00
   -5   17    8      0.53      0.00
   -4   17    8      0.36      0.00
   -3   17    8     -0.37      0.00
   -2   17    8      0.92      0.00
   -1   17    8      0.85      0.00
    0   17    8     -0.30      0.00
    1   17    8     -3.29      0.00
    2   17    8     -0.20      0.00
    3   17    8     -1.16      0.00
    4   17    8      0.25      0.00
   -7   18    8     -0.69      0.00
   -6   18    8     -0.17      0.00
   -5   18    8     -0.18      0.00
   -4   18    8      0.90      0.00
   -3   18    8      0.29      0.00
   -2   18    8     -0.28      0.00
   -1   18    8      0.59      0.00
    0   18    8      2.23      0.00
    1   18    8      0.74      0.00
    2   18    8     -1.55      0.00
   -4  -18    9      2.54      0.00
   -3  -18    9      0.82      0.00
   -2  -18    9     -1.37      0.00
   -1  -18    9      0.60      0.00
    0  -18    9      0.15      0.00
    1  -18    9      0.18      0.00
    2  -18    9      0.20      0.00
    3  -18    9     -0.84      0.00
    4  -18    9     -1.03      0.00
   -6  -17    9      0.27      0.00
   -5  -17    9     -1.39      0.00
   -4  -17    9     -1.71      0.00
   -3  -17    9      2.14      0.00
   -2  -17    9      1.61      0.00
   -1  -17    9     -0.45      0.00
    0  -17    9     -0.34      0.00
    1  -17    9     -0.25      0.00
    2  -17    9      0.16      0.00
    3  -17    9      0.95      0.00
    4  -17    9     -1.48      0.00
    5  -17    9     -1.55      0.00
    6  -17    9     -0.51      0.00
   -7  -16    9     -0.86      0.00
   -6  -16    9      1.18      0.00
   -5  -16    9      0.38      0.00
   -4  -16    9     -0.93      0.00
   -3  -16    9     -1.09      0.00
   -2  -16    9      0.14      0.00
   -1  -16    9      0.98      0.00
    0  -16    9      0.77      0.00
    1  -16    9     -0.49      0.00
    2  -16    9     -1.26      0.00
    3  -16    9     -0.01      0.00
    4  -16    9      1.11      0.00
    5  -16    9     -0.24      0.00
    6  -16    9     -1.44      0.00
    7  -16    9     -2.30      0.00
    8  -16    9      0.42      0.00
   -8  -15    9     -0.99      0.00
   -7  -15    9     -0.09      0.00
   -6  -15    9     -1.26      0.00
   -5  -15    9      0.65      0.00
   -4  -15    9     -0.65      0.00
   -3  -15    9     -0.93      0.00
   -2  -15    9      0.40      0.00
   -1  -15    9     -0.04      0.00
    0  -15    9      0.76      0.00
    1  -15    9      1.62      0.00
    2  -15    9      0.99      0.00
    3  -15    9     -0.61      0.00
    4  -15    9      0.75      0.00
    5  -15    9      0.13      0.00
    6  -15    9      1.93      0.00
    7  -15    9      0.56      0.00
    8  -15    9     -0.98      0.00
    9  -15    9      0.68      0.00
   -9  -14    9      2.85      0.00
   -8  -14    9      0.44      0.00
   -7  -14    9      0.49      0.00
   -6  -14    9      0.63      0.00
   -5  -14    9     -0.46      0.00
   -4  -14    9      2.00      0.00
   -3  -14    9      0.31      0.00
   -2  -14    9      0.05      0.00
   -1  -14    9     -0.49      0.00
    0  -14    9     -0.72      0.00
    1  -14    9     -0.90      0.00
    2  -14    9      0.22      0.00
    3  -14    9      0.11      0.00
    4  -14    9     -0.59      0.00
    5  -14    9      0.70      0.00
    6  -14    9     -1.38      0.00
    7  -14    9      1.18      0.00
    8  -14    9     -0.76      0.00
    9  -14    9     -1.01      0.00
  -10  -13    9     -1.97      0.00
   -9  -13    9     -1.21      0.00
   -8  -13    9     -0.25      0.00
   -7  -13    9     -1.12      0.00
   -6  -13    9      0.48      0.00
   -5  -13    9     -0.11      0.00
   -4  -13    9     -2.11      0.00
   -3  -13    9     -0.64      0.00
   -2  -13    9      0.03      0.00
   -1  -13    9      1.75      0.00
    0  -13    9      0.35      0.00
    1  -13    9      0.67      0.00
    2  -13    9     -1.09      0.00
    3  -13    9      0.11      0.00
    4  -13    9     -0.23      0.00
    5  -13    9      0.54      0.00
    6  -13    9      0.61      0.00
    7  -13    9     -0.60      0.00
    8  -13    9      1.68      0.00
    9  -13    9     -0.41      0.00
   10  -13    9     -1.81      0.00
  -11  -12    9      1.61      0.00
  -10  -12    9      0.43      0.00
   -9  -12    9      0.80      0.00
   -8  -12    9      0.28      0.00
   -7  -12    9      0.49      0.00
   -6  -12    9     -1.99      0.00
   -5  -12    9      0.71      0.00
   -4  -12    9      1.02      0.00
   -3  -12    9     -0.34      0.00
   -2  -12    9     -1.59      0.00
   -1  -12    9     -0.74      0.00
    0  -12    9     -0.12      0.00
    1  -12    9     -0.11      0.00
    2  -12    9      0.97      0.00
    3  -12    9     -0.28      0.00
    4  -12    9     -0.05      0.00
    5  -12    9     -0.83      0.00
    6  -12    9      0.51      0.00
    7  -12    9     -0.30      0.00
    8  -12    9     -0.88      0.00
    9  -12    9      0.01      0.00
   10  -12    9      0.88      0.00
   11  -12    9      0.24      0.00
  -12  -11    9     -1.67      0.00
  -11  -11    9     -0.33      0.00
  -10  -11    9     -0.82      0.00
   -9  -11    9     -0.79      0.00
   -8  -11    9      0.36      0.00
   -7  -11    9     -0.11      0.00
   -6  -11    9      1.28      0.00
   -5  -11    9     -2.30      0.00
   -4  -11    9     -0.76      0.00
   -3  -11    9      0.58      0.00
   -2  -11    9     -0.20      0.00
   -1  -11    9     -0.97      0.00
    0  -11    9      0.10      0.00
    1  -11    9     -0.66      0.00
    2  -11    9      0.05      0.00
    3  -11    9     -0.23      0.00
    4  -11    9      0.39      0.00
    5  -11    9     -0.02      0.00
    6  -11    9     -0.26      0.00
    7  -11    9      0.33      0.00
    8  -11    9      0.16      0.00
    9  -11    9      0.15      0.00
   10  -11    9     -0.88      0.00
   11  -11    9      0.59      0.00
  -12  -10    9      0.80      0.00
  -11  -10    9     -0.13      0.00
  -10  -10    9      1.35      0.00
   -9  -10    9     -1.02      0.00
   -8  -10    9     -0.31      0.00
   -7  -10    9     -0.20      0.00
   -6  -10    9     -0.09      0.00
   -5  -10    9      1.65      0.00
   -4  -10    9     -1.22      0.00
   -3  -10    9     -0.56      0.00
   -2  -10    9      2.10      0.00
   -1  -10    9      0.40      0.00
    0  -10    9      0.70      0.00
    1  -10    9      0.14      0.00
    2  -10    9      0.04      0.00
    3  -10    9      1.33      0.00
    4  -10    9      0.07      0.00
    5  -10    9      0.76      0.00
    6  -10    9     -0.34      0.00
    7  -10    9     -0.55      0.00
    8  -10    9      0.00      0.00
    9  -10    9      0.22      0.00
   10  -10    9      0.35      0.00
   11  -10    9     -0.39      0.00
   12  -10    9      0.89      0.00
  -13   -9    9     -0.68      0.00
  -12   -9    9     -0.50      0.00
  -11   -9    9     -0.77      0.00
  -10   -9    9     -0.39      0.00
   -9   -9    9      0.80      0.00
   -8   -9    9      0.53      0.00
   -7   -9    9      0.98      0.00
   -6   -9    9     -0.52      0.00
   -5   -9    9     -0.61      0.00
   -4   -9    9      0.32      0.00
   -3   -9    9     -2.25      0.00
   -2   -9    9     -1.62      0.00
   -1   -9    9      0.65      0.00
    0   -9    9     -1.39      0.00
    1   -9    9     -0.13      0.00
    2   -9    9     -1.84      0.00
    3   -9    9     -0.92      0.00
    4   -9    9     -0.22      0.00
    5   -9    9     -0.84      0.00
    6   -9    9      0.20      0.00
    7   -9    9     -0.06      0.00
    8   -9    9     -1.42      0.00
    9   -9    9     -0.24      0.00
   10   -9    9     -0.32      0.00
   11   -9    9      0.47      0.00
   12   -9    9     -0.52      0.00
  -13   -8    9      0.47      0.00
  -12   -8    9      0.04      0.00
  -11   -8    9     -0.69      0.00
  -10   -8    9     -0.71      0.00
   -9   -8    9     -0.85      0.00
   -8   -8    9     -1.98      0.00
   -7   -8    9     -0.08      0.00
   -6   -8    9      0.74      0.00
   -5   -8    9      0.05      0.00
   -4   -8    9      0.03      0.00
   -3   -8    9      1.09      0.00
   -2   -8    9     -0.56      0.00
   -1   -8    9      1.56      0.00
    0   -8    9      2.09      0.00
    1   -8    9      0.89      0.00
    2   -8    9      1.35      0.00
    3   -8    9     -0.84      0.00
    4   -8    9      1.06      0.00
    5   -8    9      1.10      0.00
    6   -8    9     -0.43      0.00
    7   -8    9      0.46      0.00
    8   -8    9      0.38      0.00
    9   -8    9     -0.95      0.00
   10   -8    9      0.24      0.00
   11   -8    9     -1.28      0.00
   12   -8    9      1.65      0.00
  -14   -7    9     -0.57      0.00
  -13   -7    9     -1.11      0.00
  -12   -7    9      0.48      0.00
  -11   -7    9      1.07      0.00
  -10   -7    9      0.37      0.00
   -9   -7    9      1.55      0.00
   -8   -7    9      1.01      0.00
   -7   -7    9     -1.03      0.00
   -6   -7    9     -0.70      0.00
   -5   -7    9      0.25      0.00
   -4   -7    9     -0.15      0.00
   -3   -7    9     -1.26      0.00
   -2   -7    9     -1.94      0.00
   -1   -7    9     -2.30      0.00
    0   -7    9      1.29      0.00
    1   -7    9     -0.39      0.00
    2   -7    9      0.27      0.00
    3   -7    9      1.03      0.00
    4   -7    9     -1.77      0.00
    5   -7    9      0.03      0.00
    6   -7    9      0.50      0.00
    7   -7    9     -1.32      0.00
    8   -7    9      0.50      0.00
    9   -7    9     -1.02      0.00
   10   -7    9     -1.06      0.00
   11   -7    9     -0.29      0.00
   12   -7    9     -1.87      0.00
   13   -7    9      1.84      0.00
  -14   -6    9      1.02      0.00
  -13   -6    9     -0.08      0.00
  -12   -6    9     -1.32      0.00
  -11   -6    9     -0.52      0.00
  -10   -6    9     -0.50      0.00
   -9   -6    9     -0.87      0.00
   -8   -6    9      0.52      0.00
   -7   -6    9      0.52      0.00
   -6   -6    9     -0.06      0.00
   -5   -6    9     -1.65      0.00
   -4   -6    9      0.97      0.00
   -3   -6    9      1.80      0.00
   -2   -6    9      0.78      0.00
   -1   -6    9     -2.96      0.00
    0   -6    9     -2.72      0.00
    1   -6    9      1.99      0.00
    2   -6    9     -1.44      0.00
    3   -6    9     -0.24      0.00
    4   -6    9      0.94      0.00
    5   -6    9     -1.37      0.00
    6   -6    9      0.09      0.00
    7   -6    9      0.39      0.00
    8   -6    9     -0.25      0.00
    9   -6    9      2.07      0.00
   10   -6    9     -0.44      0.00
   11   -6    9     -0.45      0.00
   12   -6    9     -2.01      0.00
   13   -6    9     -2.10      0.00
  -14   -5    9     -2.09      0.00
  -13   -5    9     -0.08      0.00
  -12   -5    9      0.70      0.00
  -11   -5    9     -0.12      0.00
  -10   -5    9      0.92      0.00
   -9   -5    9      0.32      0.00
   -8   -5    9      0.17      0.00
   -7   -5    9     -0.27      0.00
   -6   -5    9      0.32      0.00
   -5   -5    9     -0.26      0.00
   -4   -5    9     -3.33      0.00
   -3   -5    9      0.20      0.00
   -2   -5    9      3.47      0.00
   -1   -5    9      3.36      0.00
    0   -5    9     -2.17      0.00
    1   -5    9     -1.52      0.00
    2   -5    9      3.04      0.00
    3   -5    9     -0.96      0.00
    4   -5    9      0.63      0.00
    5   -5    9      1.02      0.00
    6   -5    9      0.06      0.00
    7   -5    9      0.48      0.00
    8   -5    9     -1.09      0.00
    9   -5    9      0.26      0.00
   10   -5    9      2.15      0.00
   11   -5    9      1.68      0.00
   12   -5    9      1.53      0.00
   13   -5    9     -1.37      0.00
  -15   -4    9      0.67      0.00
  -14   -4    9      1.50      0.00
  -13   -4    9     -1.81      0.00
  -12   -4    9     -1.48      0.00
  -11   -4    9     -0.04      0.00
  -10   -4    9     -0.52      0.00
   -9   -4    9     -0.03      0.00
   -8   -4    9     -0.06      0.00
   -7   -4    9      0.82      0.00
   -6   -4    9     -0.24      0.00
   -5   -4    9      2.02      0.00
   -4   -4    9      0.91      0.00
   -3   -4    9     -4.50      0.00
   -2   -4    9     -3.48      0.00
   -1   -4    9      1.89      0.00
    0   -4    9      2.54      0.00
    1   -4    9     -4.67      0.00
    2   -4    9     -3.27      0.00
    3   -4    9      0.84      0.00
    4   -4    9     -1.53      0.00
    5   -4    9      0.21      0.00
    6   -4    9     -0.20      0.00
    7   -4    9      0.74      0.00
    8   -4    9      0.64      0.00
    9   -4    9     -2.05      0.00
   10   -4    9     -0.97      0.00
   11   -4    9     -0.94      0.00
   12   -4    9      1.00      0.00
   13   -4    9      0.69      0.00
  -15   -3    9     -0.60      0.00
  -14   -3    9     -0.46      0.00
  -13   -3    9      1.62      0.00
  -12   -3    9     -0.05      0.00
  -11   -3    9     -0.73      0.00
  -10   -3    9      0.13      0.00
   -9   -3    9      0.16      0.00
   -8   -3    9     -1.11      0.00
   -7   -3    9     -0.37      0.00
   -6   -3    9      0.05      0.00
   -5   -3    9     -0.64      0.00
   -4   -3    9      3.72      0.00
   -3   -3    9      4.28      0.00
   -2   -3    9     -1.24      0.00
   -1   -3    9     -2.89      0.00
    0   -3    9      2.78      0.00
    1   -3    9      6.13      0.00
    2   -3    9     -0.44      0.00
    3   -3    9     -0.35      0.00
    4   -3    9      0.07      0.00
    5   -3    9     -0.81      0.00
    6   -3    9     -0.35      0.00
    7   -3    9     -0.34      0.00
    8   -3    9      0.77      0.00
    9   -3    9     -0.19      0.00
   10   -3    9     -0.58      0.00
   11   -3    9      0.04      0.00
   12   -3    9     -0.47      0.00
   13   -3    9      1.12      0.00
  -15   -2    9     -1.46      0.00
  -14   -2    9     -1.16      0.00
  -13   -2    9     -0.53      0.00
  -12   -2    9      0.36      0.00
  -11   -2    9      0.53      0.00
  -10   -2    9      0.21      0.00
   -9   -2    9      0.94      0.00
   -8   -2    9      0.96      0.00
   -7   -2    9     -2.14      0.00
   -6   -2    9      0.31      0.00
   -5   -2    9     -1.35      0.00
   -4   -2    9     -3.07      0.00
   -3   -2    9      1.87      0.00
   -2   -2    9      1.89      0.00
   -1   -2    9     -2.43      0.00
    0   -2    9     -5.00      0.00
    1   -2    9     -1.72      0.00
    2   -2    9      1.49      0.00
    3   -2    9     -0.92      0.00
    4   -2    9      0.88      0.00
    5   -2    9      0.26      0.00
    6   -2    9      0.46      0.00
    7   -2    9     -0.94      0.00
    8   -2    9      0.45      0.00
    9   -2    9      0.99      0.00
   10   -2    9     -1.06      0.00
   11   -2    9     -0.13      0.00
   12   -2    9     -0.27      0.00
   13   -2    9      0.89      0.00
  -15   -1    9      2.38      0.00
  -14   -1    9     -1.24      0.00
  -13   -1    9     -1.98      0.00
  -12   -1    9      0.06      0.00
  -11   -1    9     -0.84      0.00
  -10   -1    9     -0.42      0.00
   -9   -1    9     -1.00      0.00
   -8   -1    9      1.50      0.00
   -7   -1    9      1.70      0.00
   -6   -1    9     -2.49      0.00
   -5   -1    9      2.42      0.00
   -4   -1    9      0.40      0.00
   -3   -1    9     -1.75      0.00
   -2   -1    9      3.79      0.00
   -1   -1    9      2.47      0.00
    0   -1    9      0.87      0.00
    1   -1    9     -1.96      0.00
    2   -1    9     -0.02      0.00
    3   -1    9     -0.25      0.00
    4   -1    9     -2.40      0.00
    5   -1    9     -0.50      0.00
    6   -1    9      0.22      0.00
    7   -1    9      1.14      0.00
    8   -1    9     -0.33      0.00
    9   -1    9      1.17      0.00
   10   -1    9      0.65      0.00
   11   -1    9     -0.62      0.00
   12   -1    9     -0.50      0.00
   13   -1    9     -1.12      0.00
  -15    0    9     -0.73      0.00
  -14    0    9      2.77      0.00
  -13    0    9      0.03      0.00
  -12    0    9     -1.09      0.00
  -11    0    9      1.27      0.00
  -10    0    9     -0.34      0.00
   -9    0    9      0.13      0.00
   -8    0    9     -2.70      0.00
   -7    0    9      0.84      0.00
   -6    0    9      1.05      0.00
   -5    0    9     -3.49      0.00
   -4    0    9      0.90      0.00
   -3    0    9     -1.26      0.00
   -2    0    9     -0.98      0.00
   -1    0    9      3.17      0.00
    0    0    9      0.21      0.00
    1    0    9      2.10      0.00
    2    0    9     -0.18      0.00
    3    0    9      2.13      0.00
    4    0    9      1.44      0.00
    5    0    9     -1.38      0.00
    6    0    9     -0.92      0.00
    7    0    9     -0.41      0.00
    8    0    9     -0.85      0.00
    9    0    9     -1.17      0.00
   10    0    9     -0.01      0.00
   11    0    9      0.02      0.00
   12    0    9      0.95      0.00
   13    0    9     -1.08      0.00
  -15    1    9     -1.12      0.00
  -14    1    9     -1.25      0.00
  -13    1    9      0.79      0.00
  -12    1    9     -1.09      0.00
  -11    1    9     -0.84      0.00
  -10    1    9      0.50      0.00
   -9    1    9     -0.21      0.00
   -8    1    9      1.20      0.00
   -7    1    9     -2.31      0.00
   -6    1    9      1.69      0.00
   -5    1    9      2.36      0.00
   -4    1    9     -0.46      0.00
   -3    1    9      0.80      0.00
   -2    1    9     -5.14      0.00
   -1    1    9     -2.61      0.00
    0    1    9      0.36      0.00
    1    1    9     -2.26      0.00
    2    1    9      0.55      0.00
    3    1    9     -0.96      0.00
    4    1    9      0.94      0.00
    5    1    9      1.22      0.00
    6    1    9     -0.52      0.00
    7    1    9      0.17      0.00
    8    1    9      0.55      0.00
    9    1    9     -0.41      0.00
   10    1    9      0.27      0.00
   11    1    9     -0.72      0.00
   12    1    9      0.79      0.00
   13    1    9      3.37      0.00
  -15    2    9      0.74      0.00
  -14    2    9     -0.09      0.00
  -13    2    9      0.58      0.00
  -12    2    9      0.95      0.00
  -11    2    9     -0.89      0.00
  -10    2    9      0.13      0.00
   -9    2    9     -1.33      0.00
   -8    2    9     -0.30      0.00
   -7    2    9      0.49      0.00
   -6    2    9     -2.81      0.00
   -5    2    9      0.07      0.00
   -4    2    9      1.56      0.00
   -3    2    9      2.83      0.00
   -2    2    9      4.76      0.00
   -1    2    9     -0.06      0.00
    0    2    9      2.28      0.00
    1    2    9      1.37      0.00
    2    2    9     -0.97      0.00
    3    2    9      0.38      0.00
    4    2    9     -0.59      0.00
    5    2    9      0.40      0.00
    6    2    9     -0.03      0.00
    7    2    9     -0.68      0.00
    8    2    9      0.24      0.00
    9    2    9     -0.40      0.00
   10    2    9     -1.12      0.00
   11    2    9      0.92      0.00
   12    2    9     -2.22      0.00
   13    2    9     -0.12      0.00
  -15    3    9      0.87      0.00
  -14    3    9      0.30      0.00
  -13    3    9      0.57      0.00
  -12    3    9      1.04      0.00
  -11    3    9      0.00      0.00
  -10    3    9      0.08      0.00
   -9    3    9      2.14      0.00
   -8    3    9     -1.21      0.00
   -7    3    9      0.69      0.00
   -6    3    9      0.04      0.00
   -5    3    9     -2.26      0.00
   -4    3    9     -2.85      0.00
   -3    3    9     -2.39      0.00
   -2    3    9      0.11      0.00
   -1    3    9     -2.14      0.00
    0    3    9     -3.09      0.00
    1    3    9      3.07      0.00
    2    3    9      1.61      0.00
    3    3    9     -0.40      0.00
    4    3    9     -1.09      0.00
    5    3    9     -0.87      0.00
    6    3    9      0.84      0.00
    7    3    9      0.11      0.00
    8    3    9      0.17      0.00
    9    3    9      1.28      0.00
   10    3    9      0.10      0.00
   11    3    9     -0.37      0.00
   12    3    9      2.38      0.00
   13    3    9     -0.60      0.00
  -15    4    9      0.41      0.00
  -14    4    9     -0.11      0.00
  -13    4    9     -1.58      0.00
  -12    4    9      0.60      0.00
  -11    4    9      1.89      0.00
  -10    4    9     -1.77      0.00
   -9    4    9     -1.15      0.00
   -8    4    9      0.74      0.00
   -7    4    9     -0.30      0.00
   -6    4    9      1.11      0.00
   -5    4    9     -0.55      0.00
   -4    4    9      0.22      0.00
   -3    4    9     -2.15      0.00
   -2    4    9     -1.62      0.00
   -1    4    9      5.25      0.00
    0    4    9     -1.51      0.00
    1    4    9     -4.46      0.00
    2    4    9      1.41      0.00
    3    4    9      1.07      0.00
    4    4    9      1.20      0.00
    5    4    9     -0.96      0.00
    6    4    9     -0.62      0.00
    7    4    9      0.26      0.00
    8    4    9     -0.70      0.00
    9    4    9     -0.35      0.00
   10    4    9      0.75      0.00
   11    4    9     -0.62      0.00
   12    4    9     -1.63      0.00
  -15    5    9     -0.60      0.00
  -14    5    9      1.76      0.00
  -13    5    9      1.02      0.00
  -12    5    9     -1.87      0.00
  -11    5    9     -0.56      0.00
  -10    5    9      3.15      0.00
   -9    5    9     -0.14      0.00
   -8    5    9     -0.97      0.00
   -7    5    9     -1.57      0.00
   -6    5    9      0.92      0.00
   -5    5    9      2.30      0.00
   -4    5    9     -0.07      0.00
   -3    5    9      2.06      0.00
   -2    5    9     -2.19      0.00
   -1    5    9     -3.14      0.00
    0    5    9      5.47      0.00
    1    5    9      0.42      0.00
    2    5    9     -1.76      0.00
    3    5    9      0.73      0.00
    4    5    9     -0.40      0.00
    5    5    9      0.41      0.00
    6    5    9     -1.79      0.00
    7    5    9     -0.47      0.00
    8    5    9      0.14      0.00
    9    5    9     -1.16      0.00
   10    5    9     -0.61      0.00
   11    5    9      1.35      0.00
   12    5    9      1.60      0.00
  -15    6    9      1.04      0.00
  -14    6    9     -1.23      0.00
  -13    6    9     -0.18      0.00
  -12    6    9      2.00      0.00
  -11    6    9      0.05      0.00
  -10    6    9     -1.73      0.00
   -9    6    9      1.70      0.00
   -8    6    9      2.02      0.00
   -7    6    9      0.22      0.00
   -6    6    9     -2.50      0.00
   -5    6    9     -0.61      0.00
   -4    6    9     -0.39      0.00
   -3    6    9     -1.93      0.00
   -2    6    9      1.85      0.00
   -1    6    9     -2.39      0.00
    0    6    9     -2.58      0.00
    1    6    9      2.15      0.00
    2    6    9     -0.50      0.00
    3    6    9     -0.08      0.00
    4    6    9     -0.08      0.00
    5    6    9      0.24      0.00
    6    6    9      1.36      0.00
    7    6    9     -0.43      0.00
    8    6    9      0.08      0.00
    9    6    9      0.90      0.00
   10    6    9     -0.53      0.00
   11    6    9     -1.20      0.00
   12    6    9     -0.22      0.00
  -15    7    9      0.41      0.00
  -14    7    9      1.38      0.00
  -13    7    9      0.35      0.00
  -12    7    9     -3.94      0.00
  -11    7    9     -0.95      0.00
  -10    7    9      0.22      0.00
   -8    7    9     -1.04      0.00
   -7    7    9      1.91      0.00
   -6    7    9      0.83      0.00
   -5    7    9     -0.47      0.00
   -4    7    9      1.92      0.00
   -3    7    9      0.52      0.00
   -2    7    9     -1.45      0.00
   -1    7    9      1.77      0.00
    0    7    9     -1.03      0.00
    1    7    9      0.74      0.00
    2    7    9     -0.40      0.00
    3    7    9     -0.66      0.00
    4    7    9      1.12      0.00
    5    7    9     -1.37      0.00
    6    7    9     -1.24      0.00
    7    7    9     -0.37      0.00
    8    7    9     -0.23      0.00
    9    7    9     -0.70      0.00
   10    7    9      0.48      0.00
   11    7    9      0.69      0.00
  -15    8    9      0.30      0.00
  -14    8    9     -0.75      0.00
  -13    8    9      1.53      0.00
  -12    8    9      4.04      0.00
  -11    8    9     -0.39      0.00
   -8    8    9      0.15      0.00
   -7    8    9     -0.93      0.00
   -6    8    9      1.03      0.00
   -5    8    9      0.04      0.00
   -4    8    9     -1.48      0.00
   -3    8    9      1.95      0.00
   -2    8    9      1.12      0.00
   -1    8    9     -0.18      0.00
    0    8    9     -0.84      0.00
    1    8    9     -1.15      0.00
    2    8    9      2.84      0.00
    3    8    9     -1.01      0.00
    4    8    9      0.11      0.00
    5    8    9      1.79      0.00
    6    8    9      0.66      0.00
    7    8    9      0.18      0.00
    8    8    9     -0.08      0.00
    9    8    9      0.59      0.00
   10    8    9     -1.05      0.00
   11    8    9     -0.96      0.00
  -14    9    9     -0.60      0.00
  -13    9    9     -3.29      0.00
  -12    9    9     -1.70      0.00
   -9    9    9     -0.19      0.00
   -8    9    9      0.26      0.00
   -7    9    9     -0.53      0.00
   -6    9    9     -0.13      0.00
   -5    9    9      0.96      0.00
   -4    9    9      0.43      0.00
   -3    9    9     -1.57      0.00
   -2    9    9      0.04      0.00
   -1    9    9      0.08      0.00
    0    9    9      1.33      0.00
    1    9    9     -2.66      0.00
    2    9    9     -2.11      0.00
    3    9    9      0.84      0.00
    4    9    9     -1.58      0.00
    5    9    9     -0.15      0.00
    6    9    9     -0.81      0.00
    7    9    9     -0.64      0.00
    8    9    9     -0.83      0.00
    9    9    9     -0.51      0.00
   10    9    9      0.81      0.00
  -14   10    9      2.04      0.00
  -13   10    9      1.16      0.00
  -10   10    9     -1.44      0.00
   -9   10    9     -0.54      0.00
   -8   10    9      0.31      0.00
   -7   10    9      0.48      0.00
   -6   10    9     -1.58      0.00
   -5   10    9      0.02      0.00
   -4   10    9      0.99      0.00
   -3   10    9      1.40      0.00
   -2   10    9      0.68      0.00
   -1   10    9     -1.35      0.00
    0   10    9     -0.43      0.00
    1   10    9      2.41      0.00
    2   10    9     -1.27      0.00
    3   10    9     -0.41      0.00
    4   10    9      0.14      0.00
    5   10    9     -0.36      0.00
    6   10    9      1.42      0.00
    7   10    9     -0.02      0.00
    8   10    9     -0.14      0.00
    9   10    9     -0.90      0.00
   10   10    9     -0.53      0.00
  -13   11    9      0.99      0.00
  -10   11    9     -0.79      0.00
   -9   11    9     -0.17      0.00
   -8   11    9     -0.90      0.00
   -7   11    9      0.70      0.00
   -6   11    9      0.82      0.00
   -5   11    9     -0.93      0.00
   -4   11    9     -0.06      0.00
   -3   11    9     -1.21      0.00
   -2   11    9      0.52      0.00
   -1   11    9      2.82      0.00
    0   11    9     -1.83      0.00
    1   11    9     -1.25      0.00
    2   11    9      1.12      0.00
    3   11    9     -0.39      0.00
    4   11    9      0.16      0.00
    5   11    9     -0.56      0.00
    6   11    9     -0.32      0.00
    7   11    9      1.10      0.00
    8   11    9      0.83      0.00
    9   11    9      0.74      0.00
  -11   12    9      1.29      0.00
  -10   12    9      0.99      0.00
   -9   12    9     -0.62      0.00
   -8   12    9     -0.87      0.00
   -7   12    9     -0.96      0.00
   -6   12    9      0.51      0.00
   -5   12    9     -0.35      0.00
   -4   12    9      0.39      0.00
   -3   12    9      1.99      0.00
   -2   12    9     -1.61      0.00
   -1   12    9     -1.42      0.00
    0   12    9      2.09      0.00
    1   12    9     -0.02      0.00
    2   12    9     -0.47      0.00
    3   12    9      0.41      0.00
    4   12    9      0.36      0.00
    5   12    9      0.70      0.00
    6   12    9     -0.93      0.00
    7   12    9     -0.71      0.00
    8   12    9     -1.35      0.00
    9   12    9     -0.32      0.00
  -11   13    9     -2.31      0.00
  -10   13    9     -0.07      0.00
   -9   13    9      0.84      0.00
   -8   13    9      1.58      0.00
   -7   13    9     -1.66      0.00
   -6   13    9     -0.75      0.00
   -5   13    9      0.50      0.00
   -4   13    9     -1.55      0.00
   -3   13    9     -0.45      0.00
   -2   13    9      1.29      0.00
   -1   13    9     -0.44      0.00
    0   13    9     -1.93      0.00
    1   13    9     -0.80      0.00
    2   13    9      0.83      0.00
    3   13    9     -0.20      0.00
    4   13    9      0.03      0.00
    5   13    9      0.57      0.00
    6   13    9      1.25      0.00
    7   13    9      0.32      0.00
    8   13    9      2.09      0.00
  -12   14    9      1.91      0.00
  -11   14    9      2.11      0.00
  -10   14    9      1.41      0.00
   -9   14    9     -0.63      0.00
   -8   14    9     -0.47      0.00
   -7   14    9      2.12      0.00
   -6   14    9     -1.65      0.00
   -5   14    9     -0.75      0.00
   -4   14    9      0.30      0.00
   -3   14    9     -1.19      0.00
   -2   14    9     -0.48      0.00
   -1   14    9     -0.21      0.00
    0   14    9      0.98      0.00
    1   14    9     -1.12      0.00
    2   14    9     -1.44      0.00
    3   14    9      1.21      0.00
    4   14    9     -0.63      0.00
    5   14    9     -1.27      0.00
    6   14    9     -0.17      0.00
    7   14    9     -1.09      0.00
  -11   15    9     -1.57      0.00
  -10   15    9     -2.01      0.00
   -9   15    9      2.00      0.00
   -8   15    9      0.10      0.00
   -7   15    9     -0.11      0.00
   -6   15    9      2.03      0.00
   -5   15    9     -0.21      0.00
   -4   15    9     -0.03      0.00
   -3   15    9      0.87      0.00
   -2   15    9      0.07      0.00
   -1   15    9     -0.37      0.00
    0   15    9     -1.27      0.00
    1   15    9      2.00      0.00
    2   15    9     -0.52      0.00
    3   15    9     -0.04      0.00
    4   15    9      1.96      0.00
    5   15    9      0.17      0.00
    6   15    9     -0.83      0.00
  -10   16    9      0.35      0.00
   -9   16    9     -2.33      0.00
   -8   16    9     -0.36      0.00
   -7   16    9     -0.31      0.00
   -6   16    9     -0.79      0.00
   -5   16    9      0.38      0.00
   -4   16    9     -0.42      0.00
   -3   16    9     -0.89      0.00
   -2   16    9     -0.28      0.00
   -1   16    9      0.15      0.00
    0   16    9     -1.14      0.00
    1   16    9     -2.68      0.00
    2   16    9      0.79      0.00
    3   16    9     -1.21      0.00
    4   16    9      0.88      0.00
    5   16    9      2.39      0.00
   -8   17    9      0.43      0.00
   -7   17    9     -0.76      0.00
   -6   17    9      0.15      0.00
   -5   17    9     -0.02      0.00
   -4   17    9      0.64      0.00
   -3   17    9      0.23      0.00
   -2   17    9     -0.05      0.00
   -1   17    9      0.53      0.00
    0   17    9      2.49      0.00
    1   17    9      0.47      0.00
    2   17    9     -0.80      0.00
    3   17    9      0.46      0.00
   -6   18    9      0.12      0.00
   -5   18    9     -0.33      0.00
   -4   18    9     -0.57      0.00
   -3   18    9      0.05      0.00
   -2   18    9     -0.39      0.00
   -1   18    9     -1.79      0.00
    0   18    9     -1.59      0.00
    1   18    9      2.64      0.00
   -3  -18   10      1.57      0.00
   -2  -18   10      1.25      0.00
   -1  -18   10     -0.52      0.00
    0  -18   10     -0.56      0.00
    1  -18   10      0.56      0.00
    2  -18   10     -0.08      0.00
    3  -18   10     -0.06      0.00
    4  -18   10     -1.68      0.00
   -5  -17   10      0.82      0.00
   -4  -17   10      0.20      0.00
   -3  -17   10     -1.53      0.00
   -2  -17   10      1.06      0.00
   -1  -17   10      2.35      0.00
    0  -17   10      0.87      0.00
    1  -17   10     -0.73      0.00
    2  -17   10     -0.16      0.00
    3  -17   10      1.22      0.00
    4  -17   10      2.06      0.00
    5  -17   10      0.24      0.00
    6  -17   10     -1.16      0.00
   -7  -16   10     -0.29      0.00
   -6  -16   10     -0.25      0.00
   -5  -16   10      0.36      0.00
   -4  -16   10      0.03      0.00
   -3  -16   10     -0.19      0.00
   -2  -16   10     -1.09      0.00
   -1  -16   10     -1.06      0.00
    0  -16   10      0.95      0.00
    1  -16   10      1.14      0.00
    2  -16   10     -0.33      0.00
    3  -16   10     -1.77      0.00
    4  -16   10      0.31      0.00
    5  -16   10      0.55      0.00
    6  -16   10      1.83      0.00
    7  -16   10      0.39      0.00
   -8  -15   10      0.07      0.00
   -7  -15   10      0.39      0.00
   -6  -15   10     -0.66      0.00
   -5  -15   10      0.23      0.00
   -4  -15   10      1.60      0.00
   -3  -15   10      1.14      0.00
   -2  -15   10      1.76      0.00
   -1  -15   10      0.69      0.00
    0  -15   10     -0.20      0.00
    1  -15   10      0.43      0.00
    2  -15   10      1.56      0.00
    3  -15   10      0.40      0.00
    4  -15   10     -0.82      0.00
    5  -15   10      0.99      0.00
    6  -15   10     -0.81      0.00
    7  -15   10      1.49      0.00
    8  -15   10     -0.23      0.00
   -9  -14   10     -1.66      0.00
   -8  -14   10      0.71      0.00
   -7  -14   10     -0.03      0.00
   -6  -14   10      1.00      0.00
   -5  -14   10     -1.43      0.00
   -4  -14   10     -1.41      0.00
   -3  -14   10     -1.42      0.00
   -2  -14   10     -0.98      0.00
   -1  -14   10      0.97      0.00
    0  -14   10     -0.98      0.00
    1  -14   10     -1.39      0.00
    2  -14   10     -1.84      0.00
    3  -14   10      0.77      0.00
    4  -14   10     -0.81      0.00
    5  -14   10     -0.75      0.00
    6  -14   10     -0.16      0.00
    7  -14   10     -1.26      0.00
    8  -14   10      1.43      0.00
    9  -14   10     -0.30      0.00
  -10  -13   10      2.01      0.00
   -9  -13   10     -0.12      0.00
   -8  -13   10     -0.51      0.00
   -7  -13   10     -0.78      0.00
   -6  -13   10     -1.62      0.00
   -5  -13   10      0.79      0.00
   -4  -13   10     -0.18      0.00
   -3  -13   10      1.10      0.00
   -2  -13   10     -0.72      0.00
   -1  -13   10      0.08      0.00
    0  -13   10      2.00      0.00
    1  -13   10      1.18      0.00
    2  -13   10      0.70      0.00
    3  -13   10     -0.68      0.00
    4  -13   10      1.22      0.00
    5  -13   10     -0.18      0.00
    6  -13   10      1.04      0.00
    7  -13   10      0.17      0.00
    8  -13   10     -0.64      0.00
    9  -13   10      0.50      0.00
   10  -13   10      0.68      0.00
  -11  -12   10      0.16      0.00
  -10  -12   10     -0.64      0.00
   -9  -12   10      0.16      0.00
   -8  -12   10      0.69      0.00
   -7  -12   10      1.35      0.00
   -6  -12   10      0.81      0.00
   -5  -12   10     -1.29      0.00
   -4  -12   10     -0.44      0.00
   -3  -12   10     -0.87      0.00
   -2  -12   10      0.71      0.00
   -1  -12   10     -0.66      0.00
    0  -12   10     -0.46      0.00
    1  -12   10     -0.42      0.00
    2  -12   10      0.28      0.00
    3  -12   10     -0.14      0.00
    4  -12   10     -0.02      0.00
    5  -12   10      0.03      0.00
    6  -12   10     -0.93      0.00
    7  -12   10     -0.51      0.00
    8  -12   10     -0.18      0.00
    9  -12   10      0.83      0.00
   10  -12   10     -0.39      0.00
  -12  -11   10      0.18      0.00
  -11  -11   10     -1.21      0.00
  -10  -11   10      1.76      0.00
   -9  -11   10     -1.20      0.00
   -8  -11   10     -1.20      0.00
   -7  -11   10     -0.82      0.00
   -6  -11   10      0.29      0.00
   -5  -11   10      0.56      0.00
   -4  -11   10     -0.96      0.00
   -3  -11   10     -0.91      0.00
   -2  -11   10     -0.03      0.00
   -1  -11   10      0.09      0.00
    0  -11   10      0.38      0.00
    1  -11   10     -0.57      0.00
    2  -11   10     -0.49      0.00
    3  -11   10      0.57      0.00
    4  -11   10     -0.10      0.00
    5  -11   10      0.57      0.00
    6  -11   10     -0.14      0.00
    7  -11   10      0.20      0.00
    8  -11   10     -0.92      0.00
    9  -11   10     -1.08      0.00
   10  -11   10      0.33      0.00
   11  -11   10     -1.44      0.00
  -12  -10   10      0.69      0.00
  -11  -10   10     -0.80      0.00
  -10  -10   10     -1.49      0.00
   -9  -10   10      1.90      0.00
   -8  -10   10      0.87      0.00
   -7  -10   10      0.49      0.00
   -6  -10   10     -0.51      0.00
   -5  -10   10      0.08      0.00
   -4  -10   10      0.52      0.00
   -3  -10   10     -0.77      0.00
   -2  -10   10     -0.62      0.00
   -1  -10   10      1.05      0.00
    0  -10   10      0.45      0.00
    1  -10   10      1.67      0.00
    2  -10   10     -0.89      0.00
    3  -10   10     -0.29      0.00
    4  -10   10      0.05      0.00
    5  -10   10      0.28      0.00
    6  -10   10      0.52      0.00
    7  -10   10     -0.66      0.00
    8  -10   10     -0.43      0.00
    9  -10   10     -0.43      0.00
   10  -10   10     -0.31      0.00
   11  -10   10      0.78      0.00
  -13   -9   10     -0.29      0.00
  -12   -9   10     -0.82      0.00
  -11   -9   10      0.19      0.00
  -10   -9   10     -0.48      0.00
   -9   -9   10     -1.63      0.00
   -8   -9   10     -1.47      0.00
   -7   -9   10      0.03      0.00
   -6   -9   10      0.09      0.00
   -5   -9   10     -0.71      0.00
   -4   -9   10     -0.26      0.00
   -3   -9   10     -0.15      0.00
   -2   -9   10     -2.12      0.00
   -1   -9   10     -1.38      0.00
    0   -9   10     -0.62      0.00
    1   -9   10     -0.30      0.00
    2   -9   10      0.95      0.00
    3   -9   10     -0.80      0.00
    4   -9   10      0.35      0.00
    5   -9   10     -0.30      0.00
    6   -9   10     -0.55      0.00
    7   -9   10      0.37      0.00
    8   -9   10     -0.39      0.00
    9   -9   10     -0.61      0.00
   10   -9   10     -0.97      0.00
   11   -9   10     -1.60      0.00
   12   -9   10      1.32      0.00
  -13   -8   10     -0.82      0.00
  -12   -8   10      0.32      0.00
  -11   -8   10      0.55      0.00
  -10   -8   10     -0.17      0.00
   -9   -8   10      1.34      0.00
   -8   -8   10      1.11      0.00
   -7   -8   10     -0.71      0.00
   -6   -8   10      0.37      0.00
   -5   -8   10     -0.21      0.00
   -4   -8   10     -0.58      0.00
   -3   -8   10      0.76      0.00
   -2   -8   10      0.83      0.00
   -1   -8   10     -0.51      0.00
    0   -8   10      0.94      0.00
    1   -8   10     -0.32      0.00
    2   -8   10      0.88      0.00
    3   -8   10      0.84      0.00
    4   -8   10     -0.43      0.00
    5   -8   10      0.84      0.00
    6   -8   10      0.59      0.00
    7   -8   10     -0.82      0.00
    8   -8   10      0.93      0.00
    9   -8   10     -0.72      0.00
   10   -8   10      0.85      0.00
   11   -8   10     -0.29      0.00
   12   -8   10     -3.11      0.00
  -14   -7   10      0.63      0.00
  -13   -7   10      0.10      0.00
  -12   -7   10     -1.20      0.00
  -11   -7   10     -0.10      0.00
  -10   -7   10      0.48      0.00
   -9   -7   10     -0.96      0.00
   -8   -7   10      0.27      0.00
   -7   -7   10      0.40      0.00
   -6   -7   10     -0.30      0.00
   -5   -7   10      0.21      0.00
   -4   -7   10      0.05      0.00
   -3   -7   10     -0.27      0.00
   -2   -7   10      0.85      0.00
   -1   -7   10     -1.71      0.00
    0   -7   10     -1.97      0.00
    1   -7   10      0.58      0.00
    2   -7   10     -1.74      0.00
    3   -7   10      0.05      0.00
    4   -7   10      0.00      0.00
    5   -7   10     -1.11      0.00
    6   -7   10      0.20      0.00
    7   -7   10     -0.01      0.00
    8   -7   10     -0.60      0.00
    9   -7   10      1.84      0.00
   10   -7   10     -0.67      0.00
   11   -7   10      1.78      0.00
   12   -7   10      0.12      0.00
  -14   -6   10     -1.62      0.00
  -13   -6   10     -0.31      0.00
  -12   -6   10     -0.15      0.00
  -11   -6   10     -1.07      0.00
  -10   -6   10      0.10      0.00
   -9   -6   10     -0.01      0.00
   -8   -6   10      0.01      0.00
   -7   -6   10     -0.03      0.00
   -6   -6   10     -0.06      0.00
   -5   -6   10     -0.82      0.00
   -4   -6   10     -1.55      0.00
   -3   -6   10     -0.83      0.00
   -2   -6   10      1.12      0.00
   -1   -6   10      3.50      0.00
    0   -6   10     -1.31      0.00
    1   -6   10     -1.28      0.00
    2   -6   10      1.01      0.00
    3   -6   10     -1.48      0.00
    4   -6   10      0.50      0.00
    5   -6   10      0.70      0.00
    6   -6   10     -0.05      0.00
    7   -6   10      0.83      0.00
    8   -6   10     -1.43      0.00
    9   -6   10     -0.36      0.00
   10   -6   10      1.09      0.00
   11   -6   10      0.54      0.00
   12   -6   10      1.64      0.00
  -14   -5   10      2.02      0.00
  -13   -5   10     -0.57      0.00
  -12   -5   10      0.10      0.00
  -11   -5   10      0.36      0.00
  -10   -5   10     -0.23      0.00
   -9   -5   10      0.46      0.00
   -8   -5   10     -0.61      0.00
   -7   -5   10      0.58      0.00
   -6   -5   10      0.09      0.00
   -5   -5   10      2.01      0.00
   -4   -5   10      1.75      0.00
   -3   -5   10     -0.83      0.00
   -2   -5   10     -2.19      0.00
   -1   -5   10      1.27      0.00
    0   -5   10      4.13      0.00
    1   -5   10     -1.36      0.00
    2   -5   10     -0.08      0.00
    3   -5   10      1.33      0.00
    4   -5   10     -1.04      0.00
    5   -5   10      0.17      0.00
    6   -5   10     -0.18      0.00
    7   -5   10      0.61      0.00
    8   -5   10      1.20      0.00
    9   -5   10     -2.52      0.00
   10   -5   10     -1.15      0.00
   11   -5   10     -1.50      0.00
   12   -5   10      2.12      0.00
   13   -5   10      2.77      0.00
  -15   -4   10     -2.15      0.00
  -14   -4   10     -1.46      0.00
  -13   -4   10      1.31      0.00
  -12   -4   10     -0.19      0.00
  -11   -4   10     -0.13      0.00
  -10   -4   10     -0.10      0.00
   -9   -4   10      0.18      0.00
   -8   -4   10     -0.45      0.00
   -7   -4   10     -1.17      0.00
   -6   -4   10     -0.47      0.00
   -5   -4   10     -1.95      0.00
   -4   -4   10      0.48      0.00
   -3   -4   10      1.66      0.00
   -2   -4   10     -1.25      0.00
   -1   -4   10     -5.30      0.00
    0   -4   10     -0.72      0.00
    1   -4   10      2.96      0.00
    2   -4   10     -2.08      0.00
    3   -4   10     -0.78      0.00
    4   -4   10     -0.31      0.00
    5   -4   10     -0.87      0.00
    6   -4   10     -0.41      0.00
    7   -4   10     -1.09      0.00
    8   -4   10      0.71      0.00
    9   -4   10      0.79      0.00
   10   -4   10     -0.66      0.00
   11   -4   10     -0.45      0.00
   12   -4   10     -2.93      0.00
   13   -4   10      0.48      0.00
  -15   -3   10      0.24      0.00
  -14   -3   10     -1.03      0.00
  -13   -3   10     -1.40      0.00
  -12   -3   10      0.67      0.00
  -11   -3   10      1.12      0.00
  -10   -3   10      0.61      0.00
   -9   -3   10      0.64      0.00
   -8   -3   10      1.42      0.00
   -7   -3   10     -1.05      0.00
   -6   -3   10     -0.01      0.00
   -5   -3   10     -0.01      0.00
   -4   -3   10     -0.96      0.00
   -3   -3   10      1.58      0.00
   -2   -3   10      3.49      0.00
   -1   -3   10      2.03      0.00
    0   -3   10     -3.33      0.00
    1   -3   10     -0.43      0.00
    2   -3   10      2.25      0.00
    3   -3   10     -0.03      0.00
    4   -3   10      0.61      0.00
    5   -3   10      0.07      0.00
    6   -3   10      0.80      0.00
    7   -3   10     -0.11      0.00
    8   -3   10      0.16      0.00
    9   -3   10      1.60      0.00
   10   -3   10     -0.35      0.00
   11   -3   10      0.40      0.00
   12   -3   10      0.56      0.00
   13   -3   10     -0.17      0.00
  -15   -2   10      0.84      0.00
  -14   -2   10     -0.83      0.00
  -13   -2   10     -1.23      0.00
  -12   -2   10     -1.06      0.00
  -11   -2   10     -1.09      0.00
  -10   -2   10      0.01      0.00
   -9   -2   10     -1.34      0.00
   -8   -2   10      0.78      0.00
   -7   -2   10      1.71      0.00
   -6   -2   10     -2.40      0.00
   -5   -2   10      0.19      0.00
   -4   -2   10     -1.79      0.00
   -3   -2   10     -2.50      0.00
   -2   -2   10      0.39      0.00
   -1   -2   10      1.34      0.00
    0   -2   10      1.26      0.00
    1   -2   10     -2.46      0.00
    2   -2   10     -0.17      0.00
    3   -2   10     -0.41      0.00
    4   -2   10     -0.62      0.00
    5   -2   10     -0.27      0.00
    6   -2   10     -0.13      0.00
    7   -2   10      0.93      0.00
    8   -2   10     -1.19      0.00
    9   -2   10     -0.21      0.00
   10   -2   10      0.92      0.00
   11   -2   10     -0.56      0.00
   12   -2   10     -0.75      0.00
   13   -2   10     -1.32      0.00
  -15   -1   10     -0.17      0.00
  -14   -1   10      2.13      0.00
  -13   -1   10     -0.34      0.00
  -12   -1   10     -0.34      0.00
  -11   -1   10      0.68      0.00
  -10   -1   10      0.12      0.00
   -9   -1   10      0.73      0.00
   -8   -1   10     -3.21      0.00
   -7   -1   10      1.09      0.00
   -6   -1   10      2.73      0.00
   -5   -1   10     -0.78      0.00
   -4   -1   10      2.52      0.00
   -3   -1   10     -1.38      0.00
   -2   -1   10     -1.71      0.00
   -1   -1   10      0.48      0.00
    0   -1   10      0.67      0.00
    1   -1   10      1.44      0.00
    2   -1   10     -1.03      0.00
    3   -1   10      1.52      0.00
    4   -1   10     -0.31      0.00
    5   -1   10     -0.77      0.00
    6   -1   10     -0.88      0.00
    7   -1   10      0.09      0.00
    8   -1   10      0.31      0.00
    9   -1   10     -1.15      0.00
   10   -1   10     -0.30      0.00
   11   -1   10      0.47      0.00
   12   -1   10      1.90      0.00
   13   -1   10      0.14      0.00
  -15    0   10     -2.28      0.00
  -14    0   10     -1.55      0.00
  -13    0   10      0.93      0.00
  -12    0   10     -1.35      0.00
  -11    0   10     -0.52      0.00
  -10    0   10     -0.31      0.00
   -9    0   10      0.09      0.00
   -8    0   10      1.56      0.00
   -7    0   10     -3.85      0.00
   -6    0   10     -0.28      0.00
   -5    0   10      0.92      0.00
   -4    0   10      0.36      0.00
   -3    0   10      3.31      0.00
   -2    0   10     -1.96      0.00
   -1    0   10     -0.61      0.00
    0    0   10      0.30      0.00
    1    0   10     -0.08      0.00
    2    0   10      1.03      0.00
    3    0   10     -0.29      0.00
    4    0   10      2.37      0.00
    5    0   10      1.26      0.00
    6    0   10     -0.14      0.00
    7    0   10     -0.59      0.00
    8    0   10      0.24      0.00
    9    0   10     -0.56      0.00
   10    0   10     -0.66      0.00
   11    0   10     -1.48      0.00
   12    0   10     -0.42      0.00
   13    0   10      2.55      0.00
  -15    1   10      1.55      0.00
  -14    1   10     -0.68      0.00
  -13    1   10      0.47      0.00
  -12    1   10      1.39      0.00
  -11    1   10     -1.24      0.00
  -10    1   10      0.49      0.00
   -9    1   10     -1.38      0.00
   -8    1   10     -0.01      0.00
   -7    1   10      2.05      0.00
   -6    1   10     -1.66      0.00
   -5    1   10     -0.12      0.00
   -4    1   10     -1.23      0.00
   -3    1   10      0.31      0.00
   -2    1   10      2.89      0.00
   -1    1   10     -1.60      0.00
    0    1   10      0.14      0.00
    1    1   10     -0.48      0.00
    2    1   10     -1.38      0.00
    3    1   10     -1.71      0.00
    4    1   10     -2.50      0.00
    5    1   10     -0.14      0.00
    6    1   10      0.62      0.00
    7    1   10      0.57      0.00
    8    1   10      1.31      0.00
    9    1   10      1.03      0.00
   10    1   10      0.40      0.00
   11    1   10      2.01      0.00
   12    1   10     -1.51      0.00
   13    1   10      0.18      0.00
  -15    2   10      0.83      0.00
  -14    2   10      0.04      0.00
  -13    2   10     -1.12      0.00
  -12    2   10      0.85      0.00
  -11    2   10      0.80      0.00
  -10    2   10     -0.46      0.00
   -9    2   10      1.91      0.00
   -8    2   10     -1.80      0.00
   -7    2   10     -0.58      0.00
   -6    2   10     -0.22      0.00
   -5    2   10     -1.58      0.00
   -4    2   10     -0.76      0.00
   -3    2   10     -1.50      0.00
   -2    2   10      1.09      0.00
   -1    2   10      1.07      0.00
    0    2   10     -0.08      0.00
    1    2   10      3.12      0.00
    2    2   10      2.29      0.00
    3    2   10      1.73      0.00
    4    2   10     -0.47      0.00
    5    2   10     -1.23      0.00
    6    2   10     -0.53      0.00
    7    2   10     -1.20      0.00
    8    2   10     -1.41      0.00
    9    2   10      0.29      0.00
   10    2   10     -0.98      0.00
   11    2   10     -0.80      0.00
   12    2   10      2.10      0.00
  -15    3   10      0.40      0.00
  -14    3   10      0.41      0.00
  -13    3   10     -1.10      0.00
  -12    3   10     -0.85      0.00
  -11    3   10      1.18      0.00
  -10    3   10     -1.21      0.00
   -9    3   10     -1.02      0.00
   -8    3   10      1.27      0.00
   -7    3   10     -0.29      0.00
   -6    3   10      1.42      0.00
   -5    3   10      0.31      0.00
   -4    3   10      0.08      0.00
   -3    3   10     -2.25      0.00
   -2    3   10     -2.84      0.00
   -1    3   10      2.22      0.00
    0    3   10     -1.65      0.00
    1    3   10     -3.12      0.00
    2    3   10      0.11      0.00
    3    3   10      0.37      0.00
    4    3   10      1.84      0.00
    5    3   10     -0.34      0.00
    6    3   10      0.02      0.00
    7    3   10      0.88      0.00
    8    3   10      0.07      0.00
    9    3   10     -0.03      0.00
   10    3   10      1.38      0.00
   11    3   10     -0.48      0.00
   12    3   10     -0.23      0.00
  -15    4   10     -0.51      0.00
  -14    4   10      2.26      0.00
  -13    4   10      1.04      0.00
  -12    4   10     -1.48      0.00
  -11    4   10     -0.62      0.00
  -10    4   10      2.39      0.00
   -9    4   10     -0.29      0.00
   -8    4   10     -0.60      0.00
   -7    4   10     -1.38      0.00
   -6    4   10     -0.51      0.00
   -5    4   10      1.04      0.00
   -4    4   10     -0.36      0.00
   -3    4   10      2.29      0.00
   -2    4   10     -1.27      0.00
   -1    4   10     -2.52      0.00
    0    4   10      4.29      0.00
    1    4   10      0.71      0.00
    2    4   10     -0.80      0.00
    3    4   10     -0.10      0.00
    4    4   10     -0.92      0.00
    5    4   10      0.21      0.00
    6    4   10     -1.50      0.00
    7    4   10     -0.70      0.00
    8    4   10     -0.32      0.00
    9    4   10     -1.12      0.00
   10    4   10     -0.15      0.00
   11    4   10      1.54      0.00
   12    4   10      0.57      0.00
  -15    5   10      0.75      0.00
  -14    5   10     -1.99      0.00
  -13    5   10      1.34      0.00
  -12    5   10      2.00      0.00
  -11    5   10     -0.70      0.00
  -10    5   10     -1.46      0.00
   -9    5   10      0.68      0.00
   -8    5   10      1.15      0.00
   -7    5   10      0.74      0.00
   -6    5   10     -1.35      0.00
   -5    5   10      0.07      0.00
   -4    5   10      0.38      0.00
   -3    5   10     -1.25      0.00
   -2    5   10      2.23      0.00
   -1    5   10     -1.71      0.00
    0    5   10     -2.10      0.00
    1    5   10      2.52      0.00
    2    5   10      0.20      0.00
    3    5   10      0.25      0.00
    4    5   10      0.43      0.00
    5    5   10      0.86      0.00
    6    5   10      1.16      0.00
    7    5   10     -0.13      0.00
    8    5   10      0.07      0.00
    9    5   10     -0.10      0.00
   10    5   10     -1.19      0.00
   11    5   10     -0.76      0.00
   12    5   10      0.87      0.00
  -15    6   10      1.29      0.00
  -14    6   10      1.14      0.00
  -13    6   10     -1.57      0.00
  -12    6   10     -2.29      0.00
  -11    6   10      0.60      0.00
  -10    6   10      0.72      0.00
   -9    6   10     -0.40      0.00
   -8    6   10     -0.76      0.00
   -7    6   10      1.26      0.00
   -6    6   10     -0.37      0.00
   -5    6   10     -1.48      0.00
   -4    6   10      0.26      0.00
   -3    6   10     -1.39      0.00
   -2    6   10     -2.00      0.00
   -1    6   10      1.60      0.00
    0    6   10     -1.77      0.00
    1    6   10     -0.72      0.00
    2    6   10     -0.04      0.00
    3    6   10     -0.08      0.00
    4    6   10      0.14      0.00
    5    6   10     -1.12      0.00
    6    6   10     -0.39      0.00
    7    6   10      0.11      0.00
    8    6   10      0.79      0.00
    9    6   10      0.69      0.00
   10    6   10      0.58      0.00
   11    6   10      0.03      0.00
  -15    7   10     -0.52      0.00
  -14    7   10     -0.51      0.00
  -13    7   10      1.49      0.00
  -12    7   10      1.50      0.00
  -11    7   10     -1.58      0.00
  -10    7   10     -1.02      0.00
   -9    7   10      0.45      0.00
   -8    7   10      0.03      0.00
   -7    7   10     -0.57      0.00
   -6    7   10      2.09      0.00
   -5    7   10      0.51      0.00
   -4    7   10     -0.06      0.00
   -3    7   10      3.39      0.00
   -2    7   10      0.60      0.00
   -1    7   10     -0.59      0.00
    0    7   10     -0.13      0.00
    1    7   10     -0.68      0.00
    2    7   10      1.48      0.00
    3    7   10     -1.43      0.00
    4    7   10      0.44      0.00
    5    7   10      1.05      0.00
    6    7   10      0.40      0.00
    7    7   10     -0.43      0.00
    8    7   10     -1.42      0.00
    9    7   10     -0.30      0.00
   10    7   10     -1.08      0.00
   11    7   10     -0.30      0.00
  -14    8   10      0.33      0.00
  -13    8   10     -2.29      0.00
  -12    8   10      0.88      0.00
  -11    8   10      1.69      0.00
  -10    8   10      1.48      0.00
   -9    8   10     -0.03      0.00
   -8    8   10      0.35      0.00
   -7    8   10     -0.60      0.00
   -6    8   10     -0.94      0.00
   -5    8   10      0.52      0.00
   -4    8   10     -0.77      0.00
   -3    8   10     -2.70      0.00
   -2    8   10      0.80      0.00
   -1    8   10      0.26      0.00
    0    8   10      0.82      0.00
    1    8   10     -2.43      0.00
    2    8   10     -1.16      0.00
    3    8   10      0.72      0.00
    4    8   10     -2.20      0.00
    5    8   10     -0.27      0.00
    6    8   10     -0.51      0.00
    7    8   10      0.48      0.00
    8    8   10      0.44      0.00
    9    8   10      0.12      0.00
   10    8   10      1.63      0.00
   11    8   10     -0.56      0.00
  -14    9   10      1.12      0.00
  -13    9   10     -0.48      0.00
  -12    9   10     -3.70      0.00
  -11    9   10     -1.46      0.00
  -10    9   10     -1.99      0.00
   -9    9   10     -0.23      0.00
   -8    9   10      0.37      0.00
   -7    9   10      0.67      0.00
   -6    9   10     -0.66      0.00
   -5    9   10      0.31      0.00
   -4    9   10      1.84      0.00
   -3    9   10      1.27      0.00
   -2    9   10     -0.80      0.00
   -1    9   10     -0.99      0.00
    0    9   10     -0.08      0.00
    1    9   10      1.78      0.00
    2    9   10     -1.53      0.00
    3    9   10      0.19      0.00
    4    9   10      0.47      0.00
    5    9   10     -0.58      0.00
    6    9   10      1.17      0.00
    7    9   10      0.00      0.00
    8    9   10     -0.37      0.00
    9    9   10     -1.13      0.00
   10    9   10     -1.30      0.00
  -14   10   10     -0.17      0.00
  -13   10   10      3.39      0.00
  -12   10   10      1.83      0.00
  -10   10   10      0.70      0.00
   -9   10   10     -0.11      0.00
   -8   10   10     -1.30      0.00
   -7   10   10      0.16      0.00
   -6   10   10      0.69      0.00
   -5   10   10     -0.90      0.00
   -4   10   10     -0.04      0.00
   -3   10   10      0.74      0.00
   -2   10   10      1.67      0.00
   -1   10   10      2.22      0.00
    0   10   10     -1.53      0.00
    1   10   10     -0.14      0.00
    2   10   10      1.33      0.00
    3   10   10     -0.55      0.00
    4   10   10     -0.01      0.00
    5   10   10     -1.05      0.00
    6   10   10     -0.99      0.00
    7   10   10      1.04      0.00
    8   10   10      1.36      0.00
    9   10   10      1.08      0.00
  -13   11   10     -3.68      0.00
  -11   11   10      0.13      0.00
  -10   11   10      0.26      0.00
   -9   11   10      0.16      0.00
   -8   11   10      0.86      0.00
   -7   11   10     -0.56      0.00
   -6   11   10      0.16      0.00
   -5   11   10     -0.23      0.00
   -4   11   10     -0.54      0.00
   -3   11   10      0.73      0.00
   -2   11   10     -1.91      0.00
   -1   11   10     -1.38      0.00
    0   11   10      1.95      0.00
    1   11   10     -1.38      0.00
    2   11   10     -0.61      0.00
    3   11   10      0.84      0.00
    4   11   10      0.94      0.00
    5   11   10      0.90      0.00
    6   11   10     -1.26      0.00
    7   11   10     -1.76      0.00
    8   11   10     -1.35      0.00
    9   11   10     -0.57      0.00
  -11   12   10     -2.14      0.00
  -10   12   10      0.12      0.00
   -9   12   10      0.31      0.00
   -8   12   10     -0.16      0.00
   -7   12   10     -1.60      0.00
   -6   12   10     -0.72      0.00
   -5   12   10      0.70      0.00
   -4   12   10     -0.78      0.00
   -3   12   10     -0.42      0.00
   -2   12   10      2.29      0.00
   -1   12   10     -0.55      0.00
    0   12   10     -1.90      0.00
    1   12   10      0.40      0.00
    2   12   10     -0.22      0.00
    3   12   10     -0.85      0.00
    4   12   10     -0.32      0.00
    5   12   10      0.33      0.00
    6   12   10      1.38      0.00
    7   12   10      0.27      0.00
    8   12   10      0.80      0.00
  -12   13   10      1.92      0.00
  -11   13   10      1.91      0.00
  -10   13   10     -0.31      0.00
   -9   13   10     -0.31      0.00
   -8   13   10      0.98      0.00
   -7   13   10      2.19      0.00
   -6   13   10     -1.46      0.00
   -5   13   10     -0.89      0.00
   -4   13   10      0.04      0.00
   -3   13   10     -1.22      0.00
   -2   13   10     -1.05      0.00
   -1   13   10      0.74      0.00
    0   13   10      0.75      0.00
    1   13   10     -1.01      0.00
    2   13   10     -0.04      0.00
    3   13   10      0.82      0.00
    4   13   10     -0.24      0.00
    5   13   10     -0.95      0.00
    6   13   10     -0.47      0.00
    7   13   10     -0.37      0.00
  -11   14   10     -1.42      0.00
  -10   14   10     -1.11      0.00
   -9   14   10      0.87      0.00
   -8   14   10     -1.29      0.00
   -7   14   10     -0.33      0.00
   -6   14   10      1.54      0.00
   -5   14   10     -0.53      0.00
   -4   14   10      0.25      0.00
   -3   14   10      0.57      0.00
   -2   14   10     -0.44      0.00
   -1   14   10     -1.09      0.00
    0   14   10     -0.88      0.00
    1   14   10      1.10      0.00
    2   14   10     -1.13      0.00
    3   14   10      0.65      0.00
    4   14   10      1.77      0.00
    5   14   10      1.05      0.00
    6   14   10     -0.62      0.00
  -10   15   10     -0.40      0.00
   -9   15   10     -2.45      0.00
   -8   15   10     -0.19      0.00
   -7   15   10     -0.67      0.00
   -6   15   10     -0.52      0.00
   -5   15   10      0.31      0.00
   -4   15   10     -1.04      0.00
   -3   15   10     -1.00      0.00
   -2   15   10     -0.06      0.00
   -1   15   10      0.55      0.00
    0   15   10     -0.72      0.00
    1   15   10     -0.99      0.00
    2   15   10      0.83      0.00
    3   15   10     -1.91      0.00
    4   15   10      0.37      0.00
    5   15   10      1.57      0.00
   -9   16   10      2.32      0.00
   -8   16   10      0.41      0.00
   -7   16   10     -1.03      0.00
   -6   16   10      0.05      0.00
   -5   16   10     -0.14      0.00
   -4   16   10      0.73      0.00
   -3   16   10      0.10      0.00
   -2   16   10     -1.18      0.00
   -1   16   10     -0.86      0.00
    0   16   10      0.99      0.00
    1   16   10     -0.10      0.00
    2   16   10      0.93      0.00
    3   16   10      0.88      0.00
    4   16   10     -1.84      0.00
   -8   17   10      0.73      0.00
   -7   17   10      1.65      0.00
   -6   17   10     -0.50      0.00
   -5   17   10     -0.04      0.00
   -4   17   10     -0.60      0.00
   -3   17   10      0.38      0.00
   -2   17   10      0.63      0.00
   -1   17   10     -1.08      0.00
    0   17   10     -1.12      0.00
    1   17   10      1.13      0.00
    2   17   10     -0.73      0.00
   -6   18   10      0.49      0.00
   -5   18   10      0.53      0.00
   -4   18   10      0.78      0.00
   -3   18   10     -0.44      0.00
   -2   18   10     -0.14      0.00
   -1   18   10      1.08      0.00
    0   18   10     -1.86      0.00
   -2  -18   11      0.57      0.00
   -1  -18   11      2.60      0.00
    0  -18   11      0.36      0.00
    1  -18   11     -0.15      0.00
    2  -18   11      0.93      0.00
    3  -18   11      0.73      0.00
   -5  -17   11     -1.25      0.00
   -4  -17   11      0.81      0.00
   -3  -17   11      1.60      0.00
   -2  -17   11     -1.02      0.00
   -1  -17   11     -0.88      0.00
    0  -17   11      1.79      0.00
    1  -17   11      0.25      0.00
    2  -17   11     -0.49      0.00
    3  -17   11     -0.68      0.00
    4  -17   11      1.35      0.00
    5  -17   11      1.71      0.00
   -7  -16   11      0.77      0.00
   -6  -16   11      0.18      0.00
   -5  -16   11      1.24      0.00
   -4  -16   11     -0.08      0.00
   -3  -16   11      0.29      0.00
   -2  -16   11      1.31      0.00
   -1  -16   11     -0.73      0.00
    0  -16   11     -1.40      0.00
    1  -16   11      0.37      0.00
    2  -16   11      0.52      0.00
    3  -16   11     -0.74      0.00
    4  -16   11     -2.01      0.00
    5  -16   11     -0.43      0.00
    6  -16   11     -1.10      0.00
    7  -16   11      1.45      0.00
   -8  -15   11      0.32      0.00
   -7  -15   11     -0.05      0.00
   -6  -15   11     -0.40      0.00
   -5  -15   11     -1.83      0.00
   -4  -15   11     -0.02      0.00
   -3  -15   11     -0.34      0.00
   -2  -15   11      1.05      0.00
   -1  -15   11      2.93      0.00
    0  -15   11      0.08      0.00
    1  -15   11     -0.66      0.00
    2  -15   11     -0.48      0.00
    3  -15   11      2.10      0.00
    4  -15   11      0.07      0.00
    5  -15   11     -0.01      0.00
    6  -15   11      0.35      0.00
    7  -15   11     -1.32      0.00
    8  -15   11      0.74      0.00
   -9  -14   11     -1.01      0.00
   -8  -14   11     -0.77      0.00
   -7  -14   11     -1.03      0.00
   -6  -14   11      0.43      0.00
   -5  -14   11      0.43      0.00
   -4  -14   11     -0.98      0.00
   -3  -14   11      0.05      0.00
   -2  -14   11     -2.57      0.00
   -1  -14   11     -0.93      0.00
    0  -14   11      1.76      0.00
    1  -14   11      0.24      0.00
    2  -14   11     -0.70      0.00
    3  -14   11     -1.60      0.00
    4  -14   11      1.48      0.00
    5  -14   11     -0.68      0.00
    6  -14   11      0.61      0.00
    7  -14   11      0.23      0.00
    8  -14   11     -0.47      0.00
    9  -14   11      1.52      0.00
  -10  -13   11     -0.15      0.00
   -9  -13   11      1.94      0.00
   -8  -13   11      1.08      0.00
   -7  -13   11      1.18      0.00
   -6  -13   11     -0.74      0.00
   -5  -13   11      0.03      0.00
   -4  -13   11     -0.05      0.00
   -3  -13   11      0.26      0.00
   -2  -13   11      2.40      0.00
   -1  -13   11     -0.01      0.00
    0  -13   11      0.22      0.00
    1  -13   11      0.83      0.00
    2  -13   11      1.05      0.00
    3  -13   11     -0.20      0.00
    4  -13   11     -0.10      0.00
    5  -13   11      1.09      0.00
    6  -13   11     -0.69      0.00
    7  -13   11     -0.30      0.00
    8  -13   11     -0.42      0.00
    9  -13   11     -0.48      0.00
  -11  -12   11     -1.55      0.00
  -10  -12   11      0.33      0.00
   -9  -12   11     -1.86      0.00
   -8  -12   11     -1.38      0.00
   -7  -12   11     -0.09      0.00
   -6  -12   11      0.92      0.00
   -5  -12   11     -0.17      0.00
   -4  -12   11     -0.21      0.00
   -3  -12   11     -1.19      0.00
   -2  -12   11     -1.08      0.00
   -1  -12   11     -0.53      0.00
    0  -12   11     -0.44      0.00
    1  -12   11     -0.68      0.00
    2  -12   11     -0.28      0.00
    3  -12   11      0.63      0.00
    4  -12   11     -0.70      0.00
    5  -12   11      0.05      0.00
    6  -12   11      0.16      0.00
    7  -12   11      0.36      0.00
    8  -12   11     -1.41      0.00
    9  -12   11     -0.97      0.00
   10  -12   11      0.49      0.00
  -11  -11   11     -0.43      0.00
  -10  -11   11     -0.99      0.00
   -9  -11   11      2.46      0.00
   -8  -11   11      0.83      0.00
   -7  -11   11     -1.06      0.00
   -6  -11   11     -1.06      0.00
   -5  -11   11     -0.72      0.00
   -4  -11   11     -0.53      0.00
   -3  -11   11     -0.38      0.00
   -2  -11   11     -0.31      0.00
   -1  -11   11      0.47      0.00
    0  -11   11     -0.37      0.00
    1  -11   11      0.72      0.00
    2  -11   11     -1.04      0.00
    3  -11   11     -0.20      0.00
    4  -11   11      0.14      0.00
    5  -11   11      0.37      0.00
    6  -11   11      0.12      0.00
    7  -11   11     -0.74      0.00
    8  -11   11      0.92      0.00
    9  -11   11     -0.85      0.00
   10  -11   11     -0.84      0.00
   11  -11   11     -0.50      0.00
  -12  -10   11     -1.75      0.00
  -11  -10   11      0.94      0.00
  -10  -10   11     -1.00      0.00
   -9  -10   11     -2.46      0.00
   -8  -10   11     -0.16      0.00
   -7  -10   11      1.51      0.00
   -6  -10   11      0.51      0.00
   -5  -10   11      0.30      0.00
   -4  -10   11     -0.03      0.00
   -3  -10   11      0.23      0.00
   -2  -10   11     -0.46      0.00
   -1  -10   11     -0.03      0.00
    0  -10   11      0.27      0.00
    1  -10   11      0.17      0.00
    2  -10   11      1.21      0.00
    3  -10   11     -0.10      0.00
    4  -10   11      0.51      0.00
    5  -10   11     -0.67      0.00
    6  -10   11      0.04      0.00
    7  -10   11      0.26      0.00
    8  -10   11     -0.74      0.00
    9  -10   11      0.42      0.00
   10  -10   11     -0.53      0.00
   11  -10   11      0.09      0.00
  -13   -9   11     -0.22      0.00
  -12   -9   11      0.17      0.00
  -11   -9   11      0.21      0.00
  -10   -9   11      0.71      0.00
   -9   -9   11      1.25      0.00
   -8   -9   11     -0.24      0.00
   -7   -9   11     -1.42      0.00
   -6   -9   11      0.05      0.00
   -5   -9   11     -1.38      0.00
   -4   -9   11     -0.97      0.00
   -3   -9   11     -0.25      0.00
   -2   -9   11     -0.05      0.00
   -1   -9   11     -1.06      0.00
    0   -9   11     -0.60      0.00
    1   -9   11     -1.21      0.00
    2   -9   11      0.05      0.00
    3   -9   11     -0.21      0.00
    4   -9   11     -0.26      0.00
    5   -9   11      0.55      0.00
    6   -9   11     -0.23      0.00
    7   -9   11     -0.59      0.00
    8   -9   11      0.63      0.00
    9   -9   11     -0.33      0.00
   10   -9   11      1.44      0.00
   11   -9   11     -0.41      0.00
  -13   -8   11      0.36      0.00
  -12   -8   11     -1.40      0.00
  -11   -8   11     -1.10      0.00
  -10   -8   11      0.11      0.00
   -9   -8   11     -0.89      0.00
   -8   -8   11      0.80      0.00
   -7   -8   11      0.90      0.00
   -6   -8   11      0.30      0.00
   -5   -8   11      1.83      0.00
   -4   -8   11     -0.42      0.00
   -3   -8   11     -0.21      0.00
   -2   -8   11      1.49      0.00
   -1   -8   11      0.54      0.00
    0   -8   11      0.23      0.00
    1   -8   11      0.33      0.00
    2   -8   11     -1.19      0.00
    3   -8   11      0.36      0.00
    4   -8   11     -0.28      0.00
    5   -8   11     -0.33      0.00
    6   -8   11      0.58      0.00
    7   -8   11     -0.26      0.00
    8   -8   11     -0.59      0.00
    9   -8   11      0.65      0.00
   10   -8   11     -0.97      0.00
   11   -8   11      2.36      0.00
   12   -8   11      0.99      0.00
  -13   -7   11     -0.32      0.00
  -12   -7   11      0.79      0.00
  -11   -7   11     -0.23      0.00
  -10   -7   11     -0.31      0.00
   -9   -7   11     -0.06      0.00
   -8   -7   11     -0.67      0.00
   -7   -7   11     -0.64      0.00
   -6   -7   11     -1.16      0.00
   -5   -7   11     -1.14      0.00
   -4   -7   11      0.58      0.00
   -3   -7   11     -1.19      0.00
   -2   -7   11     -0.19      0.00
   -1   -7   11      2.48      0.00
    0   -7   11     -0.62      0.00
    1   -7   11      0.06      0.00
    2   -7   11      0.50      0.00
    3   -7   11     -0.63      0.00
    4   -7   11      0.43      0.00
    5   -7   11     -0.05      0.00
    6   -7   11     -0.54      0.00
    7   -7   11      0.78      0.00
    8   -7   11     -1.50      0.00
    9   -7   11     -0.25      0.00
   10   -7   11     -0.14      0.00
   11   -7   11     -0.50      0.00
   12   -7   11      1.89      0.00
  -14   -6   11      1.66      0.00
  -13   -6   11     -0.13      0.00
  -12   -6   11     -0.41      0.00
  -11   -6   11     -0.39      0.00
  -10   -6   11     -0.07      0.00
   -9   -6   11      0.50      0.00
   -8   -6   11     -0.10      0.00
   -7   -6   11      1.08      0.00
   -6   -6   11      0.42      0.00
   -5   -6   11     -0.03      0.00
   -4   -6   11     -0.12      0.00
   -3   -6   11     -0.25      0.00
   -2   -6   11     -3.34      0.00
   -1   -6   11     -1.20      0.00
    0   -6   11      2.39      0.00
    1   -6   11     -1.28      0.00
    2   -6   11      0.36      0.00
    3   -6   11      0.40      0.00
    4   -6   11     -0.68      0.00
    5   -6   11      0.09      0.00
    6   -6   11     -0.46      0.00
    7   -6   11      0.13      0.00
    8   -6   11      1.15      0.00
    9   -6   11     -2.15      0.00
   10   -6   11     -0.68      0.00
   11   -6   11     -2.59      0.00
   12   -6   11      0.81      0.00
  -14   -5   11     -1.88      0.00
  -13   -5   11      1.29      0.00
  -12   -5   11      1.27      0.00
  -11   -5   11      1.57      0.00
  -10   -5   11     -0.07      0.00
   -9   -5   11      0.18      0.00
   -8   -5   11     -0.44      0.00
   -7   -5   11     -1.41      0.00
   -6   -5   11      0.56      0.00
   -5   -5   11     -0.23      0.00
   -4   -5   11      0.50      0.00
   -3   -5   11      2.85      0.00
   -2   -5   11      2.35      0.00
   -1   -5   11     -2.90      0.00
    0   -5   11     -0.31      0.00
    1   -5   11      2.21      0.00
    2   -5   11     -1.61      0.00
    3   -5   11      0.26      0.00
    4   -5   11      0.46      0.00
    5   -5   11     -0.20      0.00
    6   -5   11      0.11      0.00
    7   -5   11     -1.32      0.00
    8   -5   11      0.94      0.00
    9   -5   11      1.35      0.00
   10   -5   11      0.69      0.00
   11   -5   11      0.47      0.00
   12   -5   11     -3.63      0.00
  -14   -4   11     -1.41      0.00
  -13   -4   11     -2.95      0.00
  -12   -4   11     -0.81      0.00
  -11   -4   11      0.24      0.00
  -10   -4   11      1.00      0.00
   -9   -4   11      0.13      0.00
   -8   -4   11      1.65      0.00
   -7   -4   11     -0.67      0.00
   -6   -4   11     -1.69      0.00
   -5   -4   11     -0.62      0.00
   -4   -4   11     -2.48      0.00
   -3   -4   11     -3.05      0.00
   -2   -4   11      0.75      0.00
   -1   -4   11      1.66      0.00
    0   -4   11     -3.69      0.00
    1   -4   11     -0.69      0.00
    2   -4   11      1.13      0.00
    3   -4   11     -0.93      0.00
    4   -4   11     -0.37      0.00
    5   -4   11     -0.12      0.00
    6   -4   11      0.44      0.00
    7   -4   11      0.17      0.00
    8   -4   11     -0.88      0.00
    9   -4   11      1.05      0.00
   10   -4   11     -0.91      0.00
   11   -4   11      1.48      0.00
   12   -4   11      0.81      0.00
  -15   -3   11      0.06      0.00
  -14   -3   11      1.21      0.00
  -13   -3   11      0.59      0.00
  -12   -3   11     -0.91      0.00
  -11   -3   11     -0.63      0.00
  -10   -3   11      0.31      0.00
   -9   -3   11     -0.89      0.00
   -8   -3   11     -0.31      0.00
   -7   -3   11      2.29      0.00
   -6   -3   11     -0.12      0.00
   -5   -3   11      0.99      0.00
   -4   -3   11      1.93      0.00
   -3   -3   11      1.09      0.00
   -2   -3   11     -0.25      0.00
   -1   -3   11      2.27      0.00
    0   -3   11      2.66      0.00
    1   -3   11     -1.49      0.00
    2   -3   11      0.49      0.00
    3   -3   11      0.41      0.00
    4   -3   11      0.86      0.00
    5   -3   11      0.11      0.00
    6   -3   11      0.30      0.00
    7   -3   11      1.19      0.00
    8   -3   11     -0.95      0.00
    9   -3   11     -0.84      0.00
   10   -3   11      0.91      0.00
   11   -3   11     -1.13      0.00
   12   -3   11      0.61      0.00
  -15   -2   11     -0.95      0.00
  -14   -2   11     -0.30      0.00
  -13   -2   11     -0.59      0.00
  -12   -2   11      0.18      0.00
  -11   -2   11     -0.16      0.00
  -10   -2   11      0.27      0.00
   -9   -2   11      0.86      0.00
   -8   -2   11     -3.10      0.00
   -7   -2   11     -0.45      0.00
   -6   -2   11      1.43      0.00
   -5   -2   11     -1.52      0.00
   -4   -2   11     -0.10      0.00
   -3   -2   11     -1.34      0.00
   -2   -2   11     -1.53      0.00
   -1   -2   11     -2.03      0.00
    0   -2   11      0.73      0.00
    1   -2   11      0.70      0.00
    2   -2   11     -1.14      0.00
    3   -2   11      0.73      0.00
    4   -2   11     -1.08      0.00
    5   -2   11      0.05      0.00
    6   -2   11     -1.18      0.00
    7   -2   11     -0.50      0.00
    8   -2   11      0.64      0.00
    9   -2   11     -1.33      0.00
   10   -2   11     -0.74      0.00
   11   -2   11      0.32      0.00
   12   -2   11      1.02      0.00
  -15   -1   11     -1.14      0.00
  -14   -1   11     -0.77      0.00
  -13   -1   11      0.76      0.00
  -12   -1   11     -0.37      0.00
  -11   -1   11      0.05      0.00
  -10   -1   11     -1.01      0.00
   -9   -1   11      0.98      0.00
   -8   -1   11      2.12      0.00
   -7   -1   11     -3.33      0.00
   -6   -1   11      0.42      0.00
   -5   -1   11      1.73      0.00
   -4   -1   11      1.24      0.00
   -3   -1   11      2.62      0.00
   -2   -1   11     -0.22      0.00
   -1   -1   11     -0.09      0.00
    0   -1   11     -1.39      0.00
    1   -1   11      0.50      0.00
    2   -1   11     -0.33      0.00
    3   -1   11     -0.92      0.00
    4   -1   11      1.63      0.00
    5   -1   11      0.44      0.00
    6   -1   11      0.86      0.00
    7   -1   11      0.08      0.00
    8   -1   11      0.79      0.00
    9   -1   11      0.44      0.00
   10   -1   11     -0.57      0.00
   11   -1   11     -0.82      0.00
   12   -1   11     -0.18      0.00
  -15    0   11      0.87      0.00
  -14    0   11     -1.32      0.00
  -13    0   11     -0.66      0.00
  -12    0   11      0.40      0.00
  -11    0   11     -0.48      0.00
  -10    0   11      0.50      0.00
   -9    0   11     -2.21      0.00
   -8    0   11      0.18      0.00
   -7    0   11      1.30      0.00
   -6    0   11     -3.10      0.00
   -5    0   11     -1.11      0.00
   -4    0   11     -2.04      0.00
   -3    0   11      0.84      0.00
   -2    0   11      2.56      0.00
   -1    0   11      0.34      0.00
    0    0   11      1.51      0.00
    1    0   11      0.32      0.00
    2    0   11      1.12      0.00
    3    0   11     -1.07      0.00
    4    0   11     -2.02      0.00
    5    0   11     -0.19      0.00
    6    0   11     -0.01      0.00
    7    0   11     -0.16      0.00
    8    0   11      0.22      0.00
    9    0   11      0.92      0.00
   10    0   11      0.51      0.00
   11    0   11      0.81      0.00
   12    0   11     -1.97      0.00
  -15    1   11      1.33      0.00
  -14    1   11      0.57      0.00
  -13    1   11     -0.93      0.00
  -12    1   11      0.68      0.00
  -11    1   11      0.59      0.00
  -10    1   11     -0.04      0.00
   -9    1   11      1.64      0.00
   -8    1   11     -1.63      0.00
   -7    1   11      0.99      0.00
   -6    1   11      1.01      0.00
   -5    1   11     -0.61      0.00
   -4    1   11     -0.49      0.00
   -3    1   11     -3.36      0.00
   -2    1   11     -0.47      0.00
   -1    1   11     -0.47      0.00
    0    1   11     -1.09      0.00
    1    1   11      0.65      0.00
    2    1   11      0.45      0.00
    3    1   11      1.61      0.00
    4    1   11     -0.78      0.00
    5    1   11     -1.09      0.00
    6    1   11     -0.20      0.00
    7    1   11     -0.56      0.00
    8    1   11     -1.21      0.00
    9    1   11      0.21      0.00
   10    1   11      0.00      0.00
   11    1   11      0.90      0.00
   12    1   11      2.96      0.00
  -15    2   11     -0.43      0.00
  -14    2   11      0.03      0.00
  -13    2   11     -1.30      0.00
  -12    2   11     -1.86      0.00
  -11    2   11      0.42      0.00
  -10    2   11     -1.02      0.00
   -9    2   11     -0.72      0.00
   -8    2   11      0.40      0.00
   -7    2   11     -2.16      0.00
   -6    2   11      0.83      0.00
   -5    2   11      0.16      0.00
   -4    2   11      1.31      0.00
   -3    2   11      0.06      0.00
   -2    2   11     -1.21      0.00
   -1    2   11      2.82      0.00
    0    2   11      0.33      0.00
    1    2   11     -0.56      0.00
    2    2   11      0.29      0.00
    3    2   11      0.74      0.00
    4    2   11      2.56      0.00
    5    2   11     -0.13      0.00
    6    2   11     -0.29      0.00
    7    2   11      0.78      0.00
    8    2   11     -0.34      0.00
    9    2   11     -1.32      0.00
   10    2   11     -0.25      0.00
   11    2   11     -1.89      0.00
   12    2   11     -0.39      0.00
  -15    3   11      0.20      0.00
  -14    3   11      3.00      0.00
  -13    3   11      1.85      0.00
  -12    3   11     -0.38      0.00
  -11    3   11     -0.74      0.00
  -10    3   11      1.17      0.00
   -9    3   11     -0.85      0.00
   -8    3   11      0.50      0.00
   -7    3   11      0.05      0.00
   -6    3   11     -0.85      0.00
   -5    3   11      1.05      0.00
   -4    3   11     -1.00      0.00
   -3    3   11      1.76      0.00
   -2    3   11     -1.65      0.00
   -1    3   11     -3.18      0.00
    0    3   11      2.02      0.00
    1    3   11      0.15      0.00
    2    3   11     -0.50      0.00
    3    3   11     -1.60      0.00
    4    3   11     -1.68      0.00
    5    3   11      0.66      0.00
    6    3   11     -0.30      0.00
    7    3   11     -0.21      0.00
    8    3   11      0.85      0.00
    9    3   11      0.23      0.00
   10    3   11      1.15      0.00
   11    3   11      2.34      0.00
   12    3   11      0.49      0.00
  -15    4   11     -0.78      0.00
  -14    4   11     -3.31      0.00
  -13    4   11      1.39      0.00
  -12    4   11      1.41      0.00
  -11    4   11     -0.37      0.00
  -10    4   11     -0.25      0.00
   -9    4   11      0.42      0.00
   -8    4   11     -0.25      0.00
   -7    4   11      0.50      0.00
   -6    4   11     -1.75      0.00
   -5    4   11     -1.21      0.00
   -4    4   11      0.19      0.00
   -3    4   11     -1.41      0.00
   -2    4   11      2.55      0.00
   -1    4   11     -0.40      0.00
    0    4   11     -1.32      0.00
    1    4   11      1.92      0.00
    2    4   11      0.72      0.00
    3    4   11      1.41      0.00
    4    4   11      0.55      0.00
    5    4   11      0.01      0.00
    6    4   11      0.29      0.00
    7    4   11     -0.29      0.00
    8    4   11     -0.32      0.00
    9    4   11     -0.62      0.00
   10    4   11     -1.80      0.00
   11    4   11     -0.72      0.00
   12    4   11      0.35      0.00
  -15    5   11      2.98      0.00
  -14    5   11      0.71      0.00
  -13    5   11     -3.03      0.00
  -12    5   11     -1.10      0.00
  -11    5   11      0.20      0.00
  -10    5   11     -0.30      0.00
   -9    5   11     -0.15      0.00
   -8    5   11     -0.65      0.00
   -7    5   11      1.07      0.00
   -6    5   11      1.04      0.00
   -5    5   11     -0.44      0.00
   -4    5   11      0.12      0.00
   -3    5   11     -1.10      0.00
   -2    5   11     -1.19      0.00
   -1    5   11      1.80      0.00
    0    5   11     -1.37      0.00
    1    5   11     -1.01      0.00
    2    5   11     -0.34      0.00
    3    5   11     -0.36      0.00
    4    5   11     -0.25      0.00
    5    5   11     -0.27      0.00
    6    5   11      0.12      0.00
    7    5   11      0.16      0.00
    8    5   11      0.79      0.00
    9    5   11      0.99      0.00
   10    5   11      0.34      0.00
   11    5   11     -0.46      0.00
  -15    6   11     -1.58      0.00
  -14    6   11      1.24      0.00
  -13    6   11      2.21      0.00
  -12    6   11      0.48      0.00
  -11    6   11      0.02      0.00
  -10    6   11      0.21      0.00
   -9    6   11      0.89      0.00
   -8    6   11     -0.06      0.00
   -7    6   11     -1.04      0.00
   -6    6   11      0.94      0.00
   -5    6   11     -0.51      0.00
   -4    6   11     -0.38      0.00
   -3    6   11      2.07      0.00
   -2    6   11     -1.54      0.00
   -1    6   11     -0.90      0.00
    0    6   11      0.62      0.00
    1    6   11     -0.03      0.00
    2    6   11      0.80      0.00
    3    6   11     -1.46      0.00
    4    6   11      0.15      0.00
    5    6   11     -0.35      0.00
    6    6   11      0.38      0.00
    7    6   11     -0.10      0.00
    8    6   11     -1.09      0.00
    9    6   11      0.70      0.00
   10    6   11      0.69      0.00
   11    6   11      0.96      0.00
  -15    7   11      0.19      0.00
  -14    7   11     -0.98      0.00
  -13    7   11     -2.17      0.00
  -12    7   11      1.16      0.00
  -11    7   11      0.41      0.00
  -10    7   11      0.75      0.00
   -9    7   11     -0.59      0.00
   -8    7   11      0.64      0.00
   -7    7   11     -0.37      0.00
   -6    7   11     -0.41      0.00
   -5    7   11      1.24      0.00
   -4    7   11     -0.60      0.00
   -3    7   11     -1.44      0.00
   -2    7   11      2.09      0.00
   -1    7   11     -0.14      0.00
    0    7   11      0.32      0.00
    1    7   11     -2.07      0.00
    2    7   11     -0.19      0.00
    3    7   11      1.00      0.00
    4    7   11     -1.53      0.00
    5    7   11      0.25      0.00
    6    7   11     -0.84      0.00
    7    7   11      0.59      0.00
    8    7   11     -0.07      0.00
    9    7   11     -1.56      0.00
   10    7   11      0.45      0.00
   11    7   11     -1.06      0.00
  -14    8   11      1.34      0.00
  -13    8   11     -0.58      0.00
  -12    8   11     -3.31      0.00
  -11    8   11      0.35      0.00
  -10    8   11     -0.57      0.00
   -9    8   11      0.89      0.00
   -8    8   11      0.31      0.00
   -7    8   11      0.40      0.00
   -6    8   11     -0.49      0.00
   -5    8   11     -0.12      0.00
   -4    8   11      1.31      0.00
   -3    8   11      0.20      0.00
   -2    8   11     -1.48      0.00
   -1    8   11     -0.24      0.00
    0    8   11      0.36      0.00
    1    8   11      1.70      0.00
    2    8   11     -1.32      0.00
    3    8   11      0.74      0.00
    4    8   11      0.52      0.00
    5    8   11     -0.92      0.00
    6    8   11      0.76      0.00
    7    8   11      0.15      0.00
    8    8   11      1.30      0.00
    9    8   11      0.49      0.00
   10    8   11     -0.41      0.00
  -14    9   11     -1.55      0.00
  -13    9   11      2.77      0.00
  -12    9   11     -0.19      0.00
  -11    9   11     -1.59      0.00
  -10    9   11      0.48      0.00
   -9    9   11     -0.26      0.00
   -8    9   11     -0.73      0.00
   -7    9   11      0.69      0.00
   -6    9   11      0.63      0.00
   -5    9   11     -0.22      0.00
   -4    9   11      0.00      0.00
   -3    9   11      1.34      0.00
   -2    9   11      1.26      0.00
   -1    9   11      0.40      0.00
    0    9   11     -1.77      0.00
    1    9   11     -0.06      0.00
    2    9   11      0.55      0.00
    3    9   11     -0.67      0.00
    4    9   11      0.80      0.00
    5    9   11      0.08      0.00
    6    9   11     -0.90      0.00
    7    9   11     -0.24      0.00
    8    9   11     -0.74      0.00
    9    9   11      0.04      0.00
   10    9   11     -0.50      0.00
  -14   10   11     -0.46      0.00
  -13   10   11     -3.24      0.00
  -12   10   11      1.30      0.00
  -11   10   11      0.47      0.00
  -10   10   11      0.17      0.00
   -9   10   11      0.72      0.00
   -8   10   11      0.96      0.00
   -7   10   11     -1.42      0.00
   -6   10   11     -0.26      0.00
   -5   10   11      0.01      0.00
   -4   10   11     -0.12      0.00
   -3   10   11      0.20      0.00
   -2   10   11     -1.10      0.00
   -1   10   11     -0.24      0.00
    0   10   11      1.22      0.00
    1   10   11     -1.85      0.00
    2   10   11     -0.23      0.00
    3   10   11      0.23      0.00
    4   10   11      0.13      0.00
    5   10   11      0.07      0.00
    6   10   11     -1.22      0.00
    7   10   11     -1.04      0.00
    8   10   11      0.09      0.00
    9   10   11     -0.32      0.00
  -13   11   11      2.00      0.00
  -12   11   11     -1.58      0.00
  -11   11   11     -2.28      0.00
  -10   11   11     -0.41      0.00
   -9   11   11     -0.35      0.00
   -8   11   11      0.18      0.00
   -7   11   11      0.44      0.00
   -6   11   11     -0.20      0.00
   -5   11   11      0.50      0.00
   -4   11   11     -0.90      0.00
   -3   11   11     -0.63      0.00
   -2   11   11      2.05      0.00
   -1   11   11     -1.16      0.00
    0   11   11     -1.03      0.00
    1   11   11      0.83      0.00
    2   11   11     -1.10      0.00
    3   11   11     -0.71      0.00
    4   11   11      0.07      0.00
    5   11   11      1.37      0.00
    6   11   11      2.18      0.00
    7   11   11     -0.12      0.00
    8   11   11     -0.22      0.00
  -13   12   11     -2.14      0.00
  -11   12   11      2.25      0.00
  -10   12   11     -1.00      0.00
   -9   12   11     -0.46      0.00
   -8   12   11     -0.54      0.00
   -7   12   11      0.16      0.00
   -6   12   11     -1.54      0.00
   -5   12   11     -0.57      0.00
   -4   12   11      1.35      0.00
   -3   12   11     -0.48      0.00
   -2   12   11     -1.07      0.00
   -1   12   11      1.39      0.00
    0   12   11     -0.56      0.00
    1   12   11     -0.57      0.00
    2   12   11      0.82      0.00
    3   12   11     -0.18      0.00
    4   12   11     -0.61      0.00
    5   12   11     -1.87      0.00
    6   12   11     -0.97      0.00
    7   12   11      0.72      0.00
    8   12   11     -0.35      0.00
  -12   13   11     -4.66      0.00
  -11   13   11     -1.40      0.00
  -10   13   11     -0.19      0.00
   -9   13   11      0.51      0.00
   -8   13   11     -0.30      0.00
   -7   13   11      0.42      0.00
   -6   13   11      1.42      0.00
   -5   13   11     -1.07      0.00
   -4   13   11     -0.49      0.00
   -3   13   11      0.63      0.00
   -2   13   11     -0.53      0.00
   -1   13   11     -0.31      0.00
    0   13   11      0.73      0.00
    1   13   11      0.05      0.00
    2   13   11     -0.82      0.00
    3   13   11      1.18      0.00
    4   13   11      1.16      0.00
    5   13   11      2.12      0.00
    6   13   11     -0.36      0.00
    7   13   11     -0.25      0.00
  -11   14   11      1.83      0.00
  -10   14   11     -0.25      0.00
   -9   14   11     -2.16      0.00
   -8   14   11     -0.99      0.00
   -7   14   11     -1.85      0.00
   -6   14   11     -0.77      0.00
   -5   14   11      0.71      0.00
   -4   14   11     -1.28      0.00
   -3   14   11     -0.82      0.00
   -2   14   11     -0.17      0.00
   -1   14   11     -1.35      0.00
    0   14   11     -1.33      0.00
    1   14   11      0.09      0.00
    2   14   11      0.51      0.00
    3   14   11     -1.41      0.00
    4   14   11     -0.22      0.00
    5   14   11     -0.20      0.00
    6   14   11      1.15      0.00
  -10   15   11      3.29      0.00
   -9   15   11      2.53      0.00
   -8   15   11      0.79      0.00
   -7   15   11     -0.30      0.00
   -6   15   11     -0.56      0.00
   -5   15   11     -0.72      0.00
   -4   15   11      1.21      0.00
   -3   15   11     -0.24      0.00
   -2   15   11     -0.58      0.00
   -1   15   11      0.60      0.00
    0   15   11      0.63      0.00
    1   15   11     -0.38      0.00
    2   15   11      1.22      0.00
    3   15   11      0.37      0.00
    4   15   11     -1.13      0.00
    5   15   11     -0.77      0.00
   -9   16   11     -0.47      0.00
   -8   16   11      1.02      0.00
   -7   16   11      1.17      0.00
   -6   16   11     -0.42      0.00
   -5   16   11     -0.14      0.00
   -4   16   11     -1.17      0.00
   -3   16   11      0.76      0.00
   -2   16   11     -0.07      0.00
   -1   16   11     -1.69      0.00
    0   16   11     -1.06      0.00
    1   16   11     -0.18      0.00
    2   16   11     -0.70      0.00
    3   16   11      2.47      0.00
    4   16   11      1.00      0.00
   -7   17   11     -0.33      0.00
   -6   17   11      0.34      0.00
   -5   17   11      0.22      0.00
   -4   17   11      0.20      0.00
   -3   17   11     -1.35      0.00
   -2   17   11      0.65      0.00
   -1   17   11      1.77      0.00
    0   17   11     -0.83      0.00
    1   17   11     -1.02      0.00
    2   17   11     -0.89      0.00
   -5   18   11     -0.12      0.00
   -4   18   11      0.84      0.00
   -3   18   11      1.38      0.00
   -2   18   11     -1.21      0.00
   -1   18   11     -0.98      0.00
   -1  -18   12     -0.84      0.00
    0  -18   12      1.56      0.00
    1  -18   12     -0.52      0.00
   -4  -17   12     -1.07      0.00
   -3  -17   12      0.53      0.00
   -2  -17   12      2.43      0.00
   -1  -17   12     -0.60      0.00
    0  -17   12     -1.06      0.00
    1  -17   12      0.26      0.00
    2  -17   12     -0.20      0.00
    3  -17   12      0.19      0.00
    4  -17   12     -0.39      0.00
   -6  -16   12     -0.08      0.00
   -5  -16   12     -0.34      0.00
   -4  -16   12      0.36      0.00
   -3  -16   12     -0.84      0.00
   -2  -16   12      0.15      0.00
   -1  -16   12      2.11      0.00
    0  -16   12     -0.32      0.00
    1  -16   12      0.04      0.00
    2  -16   12     -0.43      0.00
    3  -16   12      0.47      0.00
    4  -16   12     -0.89      0.00
    5  -16   12     -0.44      0.00
    6  -16   12     -0.42      0.00
   -8  -15   12     -0.86      0.00
   -7  -15   12     -1.71      0.00
   -6  -15   12      0.17      0.00
   -5  -15   12     -0.27      0.00
   -4  -15   12      0.03      0.00
   -3  -15   12      0.76      0.00
   -2  -15   12     -0.87      0.00
   -1  -15   12      1.01      0.00
    0  -15   12      2.46      0.00
    1  -15   12      0.24      0.00
    2  -15   12      0.37      0.00
    3  -15   12     -0.07      0.00
    4  -15   12      2.74      0.00
    5  -15   12      0.56      0.00
    6  -15   12      1.32      0.00
    7  -15   12      0.12      0.00
   -9  -14   12      2.76      0.00
   -8  -14   12      2.03      0.00
   -7  -14   12      1.57      0.00
   -6  -14   12     -0.36      0.00
   -5  -14   12      0.79      0.00
   -4  -14   12     -0.24      0.00
   -3  -14   12      0.35      0.00
   -2  -14   12      0.41      0.00
   -1  -14   12     -2.57      0.00
    0  -14   12     -0.93      0.00
    1  -14   12      0.04      0.00
    2  -14   12      0.08      0.00
    3  -14   12     -1.35      0.00
    4  -14   12     -1.34      0.00
    5  -14   12      0.25      0.00
    6  -14   12     -1.08      0.00
    7  -14   12      0.26      0.00
    8  -14   12     -0.41      0.00
  -10  -13   12     -1.12      0.00
   -9  -13   12     -2.51      0.00
   -8  -13   12     -1.73      0.00
   -7  -13   12      0.16      0.00
   -6  -13   12     -0.06      0.00
   -5  -13   12     -0.72      0.00
   -4  -13   12     -0.17      0.00
   -3  -13   12      0.08      0.00
   -2  -13   12      1.62      0.00
   -1  -13   12      1.33      0.00
    0  -13   12     -0.09      0.00
    1  -13   12      0.03      0.00
    2  -13   12      0.28      0.00
    3  -13   12      1.39      0.00
    4  -13   12     -0.52      0.00
    5  -13   12      0.58      0.00
    6  -13   12      0.73      0.00
    7  -13   12      0.15      0.00
    8  -13   12     -1.06      0.00
    9  -13   12     -1.29      0.00
  -11  -12   12     -0.31      0.00
  -10  -12   12      0.33      0.00
   -9  -12   12      2.18      0.00
   -8  -12   12      0.55      0.00
   -7  -12   12     -1.41      0.00
   -6  -12   12     -0.21      0.00
   -5  -12   12     -0.79      0.00
   -4  -12   12     -0.51      0.00
   -3  -12   12     -1.51      0.00
   -2  -12   12     -0.44      0.00
   -1  -12   12      0.84      0.00
    0  -12   12     -0.74      0.00
    1  -12   12     -0.04      0.00
    2  -12   12     -0.98      0.00
    3  -12   12      0.12      0.00
    4  -12   12      0.42      0.00
    5  -12   12     -0.43      0.00
    6  -12   12     -0.57      0.00
    7  -12   12     -0.40      0.00
    8  -12   12      2.19      0.00
    9  -12   12      0.58      0.00
   10  -12   12      0.23      0.00
  -11  -11   12      1.42      0.00
  -10  -11   12     -0.86      0.00
   -9  -11   12     -2.24      0.00
   -8  -11   12      0.82      0.00
   -7  -11   12      1.48      0.00
   -6  -11   12     -0.06      0.00
   -5  -11   12     -0.13      0.00
   -4  -11   12     -0.89      0.00
   -3  -11   12      0.12      0.00
   -2  -11   12     -1.27      0.00
   -1  -11   12      0.27      0.00
    0  -11   12      1.03      0.00
    1  -11   12     -0.38      0.00
    2  -11   12      0.28      0.00
    3  -11   12     -0.73      0.00
    4  -11   12      0.30      0.00
    5  -11   12     -0.70      0.00
    6  -11   12      0.47      0.00
    7  -11   12     -0.48      0.00
    8  -11   12     -1.76      0.00
    9  -11   12      0.22      0.00
   10  -11   12     -0.17      0.00
  -12  -10   12     -0.65      0.00
  -11  -10   12     -0.81      0.00
  -10  -10   12      0.91      0.00
   -9  -10   12      1.13      0.00
   -8  -10   12     -1.37      0.00
   -7  -10   12     -0.75      0.00
   -6  -10   12      0.59      0.00
   -5  -10   12     -0.03      0.00
   -4  -10   12      0.71      0.00
   -3  -10   12      0.53      0.00
   -2  -10   12      1.29      0.00
   -1  -10   12     -0.30      0.00
    0  -10   12      0.20      0.00
    1  -10   12      0.33      0.00
    2  -10   12      0.66      0.00
    3  -10   12      0.14      0.00
    4  -10   12      0.38      0.00
    5  -10   12      0.83      0.00
    6  -10   12     -0.69      0.00
    7  -10   12      0.06      0.00
    8  -10   12      0.52      0.00
    9  -10   12     -0.03      0.00
   10  -10   12      0.84      0.00
   11  -10   12      0.19      0.00
  -12   -9   12     -0.41      0.00
  -11   -9   12     -0.97      0.00
  -10   -9   12     -0.22      0.00
   -9   -9   12     -0.85      0.00
   -8   -9   12      0.89      0.00
   -7   -9   12     -0.39      0.00
   -6   -9   12     -0.86      0.00
   -5   -9   12     -0.09      0.00
   -4   -9   12     -2.53      0.00
   -3   -9   12     -1.83      0.00
   -2   -9   12     -1.05      0.00
   -1   -9   12     -0.27      0.00
    0   -9   12     -0.43      0.00
    1   -9   12     -1.11      0.00
    2   -9   12     -1.25      0.00
    3   -9   12     -0.09      0.00
    4   -9   12     -0.84      0.00
    5   -9   12     -0.43      0.00
    6   -9   12      0.18      0.00
    7   -9   12     -0.78      0.00
    8   -9   12     -0.73      0.00
    9   -9   12     -0.37      0.00
   10   -9   12     -0.87      0.00
   11   -9   12      1.26      0.00
  -13   -8   12     -1.08      0.00
  -12   -8   12      0.81      0.00
  -11   -8   12     -0.28      0.00
  -10   -8   12     -0.76      0.00
   -9   -8   12      0.50      0.00
   -8   -8   12     -0.01      0.00
   -7   -8   12      0.83      0.00
   -6   -8   12     -0.39      0.00
   -5   -8   12      0.25      0.00
   -4   -8   12      2.46      0.00
   -3   -8   12      0.11      0.00
   -2   -8   12      0.69      0.00
   -1   -8   12      1.52      0.00
    0   -8   12      0.30      0.00
    1   -8   12      1.27      0.00
    2   -8   12      0.34      0.00
    3   -8   12      0.49      0.00
    4   -8   12      0.64      0.00
    5   -8   12      0.10      0.00
    6   -8   12     -0.42      0.00
    7   -8   12      0.58      0.00
    8   -8   12     -1.10      0.00
    9   -8   12     -0.17      0.00
   10   -8   12     -0.96      0.00
   11   -8   12     -1.78      0.00
  -13   -7   12      0.45      0.00
  -12   -7   12     -0.45      0.00
  -11   -7   12      0.38      0.00
  -10   -7   12      0.36      0.00
   -9   -7   12     -0.58      0.00
   -8   -7   12     -0.79      0.00
   -7   -7   12      0.12      0.00
   -6   -7   12      0.34      0.00
   -5   -7   12     -1.72      0.00
   -4   -7   12     -1.47      0.00
   -3   -7   12     -0.42      0.00
   -2   -7   12     -3.11      0.00
   -1   -7   12     -1.42      0.00
    0   -7   12      0.88      0.00
    1   -7   12     -1.08      0.00
    2   -7   12      0.41      0.00
    3   -7   12     -0.31      0.00
    4   -7   12     -0.04      0.00
    5   -7   12     -0.04      0.00
    6   -7   12     -0.61      0.00
    7   -7   12     -0.23      0.00
    8   -7   12      0.92      0.00
    9   -7   12     -0.61      0.00
   10   -7   12      0.97      0.00
   11   -7   12     -1.17      0.00
   12   -7   12      0.26      0.00
  -14   -6   12     -1.91      0.00
  -13   -6   12      0.07      0.00
  -12   -6   12      1.00      0.00
  -11   -6   12      1.02      0.00
  -10   -6   12     -0.22      0.00
   -9   -6   12      1.08      0.00
   -8   -6   12      0.36      0.00
   -7   -6   12     -0.62      0.00
   -6   -6   12      1.11      0.00
   -5   -6   12      0.87      0.00
   -4   -6   12     -0.30      0.00
   -3   -6   12      1.76      0.00
   -2   -6   12      2.08      0.00
   -1   -6   12     -2.61      0.00
    0   -6   12     -0.94      0.00
    1   -6   12      0.44      0.00
    2   -6   12     -1.72      0.00
    3   -6   12     -0.02      0.00
    4   -6   12      0.25      0.00
    5   -6   12      0.21      0.00
    6   -6   12      0.43      0.00
    7   -6   12     -1.31      0.00
    8   -6   12      0.56      0.00
    9   -6   12      0.17      0.00
   10   -6   12      0.84      0.00
   11   -6   12      0.51      0.00
   12   -6   12     -3.31      0.00
  -14   -5   12     -0.74      0.00
  -13   -5   12     -2.22      0.00
  -12   -5   12     -1.01      0.00
  -11   -5   12      0.28      0.00
  -10   -5   12      1.18      0.00
   -9   -5   12     -1.04      0.00
   -8   -5   12      0.78      0.00
   -7   -5   12     -0.76      0.00
   -6   -5   12     -1.80      0.00
   -5   -5   12      0.94      0.00
   -4   -5   12     -0.23      0.00
   -3   -5   12     -1.79      0.00
   -2   -5   12      2.24      0.00
   -1   -5   12      3.57      0.00
    0   -5   12     -1.34      0.00
    1   -5   12      0.97      0.00
    2   -5   12      1.34      0.00
    3   -5   12     -0.53      0.00
    4   -5   12     -0.26      0.00
    5   -5   12      0.43      0.00
    6   -5   12      0.67      0.00
    7   -5   12      0.70      0.00
    8   -5   12     -0.87      0.00
    9   -5   12      0.81      0.00
   10   -5   12     -1.44      0.00
   11   -5   12      2.90      0.00
   12   -5   12      1.43      0.00
  -14   -4   12      2.14      0.00
  -13   -4   12      0.82      0.00
  -12   -4   12     -1.04      0.00
  -11   -4   12     -1.17      0.00
  -10   -4   12      0.27      0.00
   -9   -4   12      0.32      0.00
   -8   -4   12     -0.97      0.00
   -7   -4   12      1.93      0.00
   -6   -4   12     -0.17      0.00
   -5   -4   12     -1.40      0.00
   -4   -4   12      1.19      0.00
   -3   -4   12     -0.55      0.00
   -2   -4   12     -3.75      0.00
   -1   -4   12     -0.20      0.00
    0   -4   12      0.94      0.00
    1   -4   12     -2.01      0.00
    2   -4   12      0.07      0.00
    3   -4   12      0.29      0.00
    4   -4   12      0.41      0.00
    5   -4   12     -0.68      0.00
    6   -4   12     -0.07      0.00
    7   -4   12      0.51      0.00
    8   -4   12     -1.23      0.00
    9   -4   12     -0.84      0.00
   10   -4   12     -0.05      0.00
   11   -4   12     -2.64      0.00
   12   -4   12      1.57      0.00
  -15   -3   12     -2.05      0.00
  -14   -3   12     -1.60      0.00
  -13   -3   12      0.79      0.00
  -12   -3   12      1.66      0.00
  -11   -3   12      0.49      0.00
  -10   -3   12     -0.25      0.00
   -9   -3   12      0.65      0.00
   -8   -3   12     -1.62      0.00
   -7   -3   12     -1.04      0.00
   -6   -3   12      2.15      0.00
   -5   -3   12      0.59      0.00
   -4   -3   12      0.60      0.00
   -3   -3   12      2.65      0.00
   -2   -3   12      1.68      0.00
   -1   -3   12     -1.13      0.00
    0   -3   12      1.57      0.00
    1   -3   12      0.32      0.00
    2   -3   12     -0.66      0.00
    3   -3   12      0.17      0.00
    4   -3   12     -0.51      0.00
    5   -3   12      1.07      0.00
    6   -3   12     -0.73      0.00
    7   -3   12     -0.02      0.00
    8   -3   12      1.39      0.00
    9   -3   12     -0.84      0.00
   10   -3   12      0.34      0.00
   11   -3   12      0.20      0.00
   12   -3   12      0.05      0.00
  -15   -2   12      0.55      0.00
  -14   -2   12     -0.94      0.00
  -13   -2   12     -0.92      0.00
  -12   -2   12     -0.40      0.00
  -11   -2   12      0.14      0.00
  -10   -2   12     -0.64      0.00
   -9   -2   12      0.72      0.00
   -8   -2   12      1.43      0.00
   -7   -2   12     -3.17      0.00
   -6   -2   12     -1.46      0.00
   -5   -2   12     -0.07      0.00
   -4   -2   12     -1.25      0.00
   -3   -2   12     -1.19      0.00
   -2   -2   12     -0.14      0.00
   -1   -2   12     -0.41      0.00
    0   -2   12     -1.56      0.00
    1   -2   12      1.64      0.00
    2   -2   12     -0.75      0.00
    3   -2   12     -0.45      0.00
    4   -2   12      0.26      0.00
    5   -2   12     -0.81      0.00
    6   -2   12      0.80      0.00
    7   -2   12     -0.46      0.00
    8   -2   12      0.07      0.00
    9   -2   12      0.35      0.00
   10   -2   12     -0.58      0.00
   11   -2   12      0.03      0.00
   12   -2   12     -0.81      0.00
  -15   -1   12      0.14      0.00
  -14   -1   12     -0.25      0.00
  -13   -1   12     -0.56      0.00
  -12   -1   12      0.31      0.00
  -11   -1   12      0.84      0.00
  -10   -1   12      0.29      0.00
   -9   -1   12     -1.94      0.00
   -8   -1   12      1.12      0.00
   -7   -1   12      1.97      0.00
   -6   -1   12     -1.85      0.00
   -5   -1   12      0.10      0.00
   -4   -1   12     -0.10      0.00
   -3   -1   12      1.37      0.00
   -2   -1   12      1.15      0.00
   -1   -1   12      1.06      0.00
    0   -1   12      0.31      0.00
    1   -1   12     -0.48      0.00
    2   -1   12      1.86      0.00
    3   -1   12     -1.20      0.00
    4   -1   12     -0.92      0.00
    5   -1   12      0.24      0.00
    6   -1   12      0.06      0.00
    7   -1   12      0.37      0.00
    8   -1   12      0.03      0.00
    9   -1   12      1.16      0.00
   10   -1   12      0.32      0.00
   11   -1   12      0.37      0.00
   12   -1   12     -0.72      0.00
  -15    0   12      0.57      0.00
  -14    0   12      0.03      0.00
  -13    0   12     -0.78      0.00
  -12    0   12     -0.73      0.00
  -11    0   12     -0.13      0.00
  -10    0   12      0.75      0.00
   -9    0   12      0.37      0.00
   -8    0   12     -2.50      0.00
   -7    0   12      0.74      0.00
   -6    0   12      0.10      0.00
   -5    0   12     -1.05      0.00
   -4    0   12     -0.57      0.00
   -3    0   12     -2.64      0.00
   -2    0   12      0.15      0.00
   -1    0   12      0.15      0.00
    0    0   12      0.54      0.00
    1    0   12      0.16      0.00
    2    0   12      0.54      0.00
    3    0   12      2.58      0.00
    4    0   12     -0.39      0.00
    5    0   12     -0.60      0.00
    6    0   12     -0.38      0.00
    7    0   12     -0.74      0.00
    8    0   12     -1.41      0.00
    9    0   12     -1.05      0.00
   10    0   12      0.24      0.00
   11    0   12      0.53      0.00
   12    0   12      1.71      0.00
  -15    1   12     -0.48      0.00
  -14    1   12      0.26      0.00
  -13    1   12     -0.17      0.00
  -12    1   12     -0.79      0.00
  -11    1   12     -0.38      0.00
  -10    1   12     -0.77      0.00
   -9    1   12      0.37      0.00
   -8    1   12      0.09      0.00
   -7    1   12     -1.77      0.00
   -6    1   12      2.02      0.00
   -5    1   12      0.27      0.00
   -4    1   12      1.56      0.00
   -3    1   12      0.05      0.00
   -2    1   12     -1.75      0.00
   -1    1   12      0.72      0.00
    0    1   12     -0.45      0.00
    1    1   12     -0.73      0.00
    2    1   12     -1.78      0.00
    3    1   12     -0.58      0.00
    4    1   12      1.67      0.00
    5    1   12     -0.28      0.00
    6    1   12      0.46      0.00
    7    1   12      1.69      0.00
    8    1   12      0.51      0.00
    9    1   12     -0.89      0.00
   10    1   12     -0.64      0.00
   11    1   12     -0.51      0.00
   12    1   12      0.89      0.00
  -15    2   12     -0.05      0.00
  -14    2   12      1.59      0.00
  -13    2   12      0.79      0.00
  -12    2   12      0.01      0.00
  -11    2   12     -0.64      0.00
  -10    2   12     -0.14      0.00
   -9    2   12     -1.18      0.00
   -8    2   12      0.83      0.00
   -7    2   12     -0.76      0.00
   -6    2   12     -2.11      0.00
   -5    2   12      0.59      0.00
   -4    2   12     -1.19      0.00
   -3    2   12      2.65      0.00
   -2    2   12      0.11      0.00
   -1    2   12     -1.08      0.00
    0    2   12      2.12      0.00
    1    2   12      1.75      0.00
    2    2   12      1.50      0.00
    3    2   12     -1.17      0.00
    4    2   12     -0.89      0.00
    5    2   12      0.76      0.00
    6    2   12     -0.89      0.00
    7    2   12     -0.95      0.00
    8    2   12      1.05      0.00
    9    2   12      0.67      0.00
   10    2   12      0.50      0.00
   11    2   12      0.15      0.00
   12    2   12     -1.02      0.00
  -15    3   12     -1.09      0.00
  -14    3   12     -2.67      0.00
  -13    3   12      1.26      0.00
  -12    3   12      0.85      0.00
  -11    3   12      0.41      0.00
  -10    3   12      0.32      0.00
   -9    3   12     -0.18      0.00
   -8    3   12     -0.85      0.00
   -7    3   12      1.84      0.00
   -6    3   12     -0.80      0.00
   -5    3   12     -0.77      0.00
   -4    3   12      0.09      0.00
   -3    3   12     -2.45      0.00
   -2    3   12      1.45      0.00
   -1    3   12     -0.40      0.00
    0    3   12     -1.77      0.00
    1    3   12     -0.44      0.00
    2    3   12     -0.29      0.00
    3    3   12      1.14      0.00
    4    3   12     -0.21      0.00
    5    3   12     -0.37      0.00
    6    3   12      0.64      0.00
    7    3   12     -0.14      0.00
    8    3   12     -0.40      0.00
    9    3   12      0.06      0.00
   10    3   12     -0.06      0.00
   11    3   12      1.37      0.00
   12    3   12      0.94      0.00
  -15    4   12      3.28      0.00
  -14    4   12     -0.54      0.00
  -13    4   12     -3.35      0.00
  -12    4   12     -0.46      0.00
  -11    4   12     -0.11      0.00
  -10    4   12      0.14      0.00
   -9    4   12      0.71      0.00
   -8    4   12     -0.91      0.00
   -7    4   12     -0.54      0.00
   -6    4   12      1.07      0.00
   -5    4   12     -1.58      0.00
   -4    4   12     -0.52      0.00
   -3    4   12     -0.28      0.00
   -2    4   12     -0.38      0.00
   -1    4   12      1.78      0.00
    0    4   12      0.32      0.00
    1    4   12      0.30      0.00
    2    4   12     -0.26      0.00
    3    4   12     -0.35      0.00
    4    4   12     -0.24      0.00
    5    4   12     -0.18      0.00
    6    4   12     -0.27      0.00
    7    4   12      0.33      0.00
    8    4   12      0.37      0.00
    9    4   12      0.57      0.00
   10    4   12     -0.62      0.00
   11    4   12     -1.36      0.00
  -15    5   12     -1.66      0.00
  -14    5   12      2.87      0.00
  -13    5   12      1.96      0.00
  -12    5   12     -0.23      0.00
  -11    5   12      0.52      0.00
  -10    5   12     -0.17      0.00
   -9    5   12      0.40      0.00
   -8    5   12      0.03      0.00
   -7    5   12     -0.75      0.00
   -6    5   12      1.29      0.00
   -5    5   12      1.15      0.00
   -4    5   12      0.10      0.00
   -3    5   12      0.83      0.00
   -2    5   12     -2.34      0.00
   -1    5   12     -0.57      0.00
    0    5   12      0.45      0.00
    1    5   12      0.32      0.00
    2    5   12      0.58      0.00
    3    5   12     -1.23      0.00
    4    5   12      0.24      0.00
    5    5   12     -0.56      0.00
    6    5   12      0.48      0.00
    7    5   12     -0.33      0.00
    8    5   12     -0.95      0.00
    9    5   12      0.81      0.00
   10    5   12      1.88      0.00
   11    5   12      1.59      0.00
  -15    6   12     -0.11      0.00
  -14    6   12     -1.85      0.00
  -13    6   12     -1.08      0.00
  -12    6   12      1.58      0.00
  -11    6   12      0.48      0.00
  -10    6   12      1.35      0.00
   -9    6   12      0.20      0.00
   -8    6   12      1.37      0.00
   -7    6   12     -0.91      0.00
   -6    6   12     -1.76      0.00
   -5    6   12      0.28      0.00
   -4    6   12     -1.21      0.00
   -3    6   12     -0.62      0.00
   -2    6   12      1.88      0.00
   -1    6   12     -1.02      0.00
    0    6   12      0.08      0.00
    1    6   12     -1.73      0.00
    2    6   12      0.83      0.00
    3    6   12      1.28      0.00
    4    6   12     -0.81      0.00
    5    6   12      0.46      0.00
    6    6   12     -1.07      0.00
    7    6   12      1.10      0.00
    8    6   12      0.51      0.00
    9    6   12     -1.56      0.00
   10    6   12     -0.03      0.00
   11    6   12     -0.42      0.00
  -15    7   12      0.25      0.00
  -14    7   12      0.34      0.00
  -13    7   12     -2.13      0.00
  -12    7   12     -4.11      0.00
  -11    7   12     -0.24      0.00
  -10    7   12     -0.83      0.00
   -9    7   12      0.21      0.00
   -8    7   12      0.03      0.00
   -7    7   12      1.39      0.00
   -6    7   12      0.76      0.00
   -5    7   12      0.11      0.00
   -4    7   12      1.37      0.00
   -3    7   12     -0.53      0.00
   -2    7   12     -0.97      0.00
   -1    7   12      0.06      0.00
    0    7   12      0.20      0.00
    1    7   12      1.28      0.00
    2    7   12     -1.74      0.00
    3    7   12      1.08      0.00
    4    7   12      0.79      0.00
    5    7   12     -0.25      0.00
    6    7   12      0.63      0.00
    7    7   12     -1.13      0.00
    8    7   12      0.40      0.00
    9    7   12     -0.39      0.00
   10    7   12     -0.98      0.00
  -14    8   12     -0.58      0.00
  -13    8   12      4.24      0.00
  -12    8   12      0.59      0.00
  -11    8   12     -1.18      0.00
  -10    8   12      0.93      0.00
   -9    8   12      0.30      0.00
   -8    8   12     -0.42      0.00
   -7    8   12      0.32      0.00
   -6    8   12     -0.10      0.00
   -5    8   12      0.43      0.00
   -4    8   12     -0.04      0.00
   -3    8   12      1.25      0.00
   -2    8   12      0.39      0.00
   -1    8   12     -0.33      0.00
    0    8   12     -1.44      0.00
    1    8   12      0.19      0.00
    2    8   12      0.02      0.00
    3    8   12     -1.33      0.00
    4    8   12      0.72      0.00
    5    8   12      0.47      0.00
    6    8   12     -0.21      0.00
    7    8   12      0.30      0.00
    8    8   12     -0.08      0.00
    9    8   12      1.65      0.00
   10    8   12     -0.14      0.00
  -14    9   12     -1.88      0.00
  -13    9   12     -4.67      0.00
  -12    9   12      1.89      0.00
  -11    9   12     -0.01      0.00
  -10    9   12     -0.31      0.00
   -9    9   12      0.70      0.00
   -8    9   12      0.66      0.00
   -7    9   12     -1.31      0.00
   -6    9   12     -0.07      0.00
   -5    9   12     -0.11      0.00
   -4    9   12      0.36      0.00
   -3    9   12     -0.66      0.00
   -2    9   12     -0.53      0.00
   -1    9   12      0.24      0.00
    0    9   12     -0.24      0.00
    1    9   12     -1.94      0.00
    2    9   12      0.23      0.00
    3    9   12     -0.19      0.00
    4    9   12     -0.30      0.00
    5    9   12     -0.13      0.00
    6    9   12     -0.48      0.00
    7    9   12     -0.51      0.00
    8    9   12     -0.72      0.00
    9    9   12     -1.60      0.00
  -13   10   12      1.43      0.00
  -12   10   12     -2.02      0.00
  -11   10   12     -0.81      0.00
  -10   10   12     -0.46      0.00
   -9   10   12     -1.05      0.00
   -8   10   12      0.18      0.00
   -7   10   12      0.79      0.00
   -6   10   12     -0.18      0.00
   -5   10   12      0.18      0.00
   -4   10   12      0.06      0.00
   -3   10   12      0.94      0.00
   -2   10   12      1.33      0.00
   -1   10   12     -1.07      0.00
    0   10   12      0.54      0.00
    1   10   12      0.60      0.00
    2   10   12     -1.22      0.00
    3   10   12     -0.56      0.00
    4   10   12     -0.34      0.00
    5   10   12      1.20      0.00
    6   10   12      1.88      0.00
    7   10   12      0.24      0.00
    8   10   12      1.18      0.00
    9   10   12      1.70      0.00
  -13   11   12     -1.39      0.00
  -12   11   12      1.77      0.00
  -11   11   12      1.47      0.00
  -10   11   12     -0.69      0.00
   -9   11   12      0.21      0.00
   -8   11   12     -1.08      0.00
   -7   11   12     -0.22      0.00
   -6   11   12     -0.82      0.00
   -5   11   12     -0.14      0.00
   -4   11   12      0.83      0.00
   -3   11   12     -0.57      0.00
   -2   11   12     -0.28      0.00
   -1   11   12      1.40      0.00
    0   11   12     -1.54      0.00
    1   11   12      0.10      0.00
    2   11   12      0.98      0.00
    3   11   12     -0.28      0.00
    4   11   12     -0.15      0.00
    5   11   12     -1.92      0.00
    6   11   12     -0.76      0.00
    7   11   12      0.87      0.00
    8   11   12     -1.51      0.00
  -12   12   12     -4.39      0.00
  -11   12   12     -0.36      0.00
  -10   12   12      0.60      0.00
   -9   12   12     -0.16      0.00
   -8   12   12     -0.38      0.00
   -7   12   12     -0.66      0.00
   -6   12   12      0.40      0.00
   -5   12   12     -1.07      0.00
   -4   12   12     -0.13      0.00
   -3   12   12      0.68      0.00
   -2   12   12     -1.08      0.00
   -1   12   12     -0.04      0.00
    0   12   12      1.05      0.00
    1   12   12     -1.17      0.00
    2   12   12     -0.27      0.00
    3   12   12      1.04      0.00
    4   12   12     -0.06      0.00
    5   12   12      1.85      0.00
    6   12   12     -1.16      0.00
    7   12   12     -0.43      0.00
  -12   13   12      3.96      0.00
  -11   13   12     -0.32      0.00
  -10   13   12     -0.03      0.00
   -9   13   12     -0.55      0.00
   -8   13   12     -0.02      0.00
   -7   13   12     -1.07      0.00
   -6   13   12     -0.39      0.00
   -5   13   12      0.49      0.00
   -4   13   12     -1.64      0.00
   -3   13   12      0.23      0.00
   -2   13   12      0.55      0.00
   -1   13   12     -1.90      0.00
    0   13   12     -0.41      0.00
    1   13   12      1.03      0.00
    2   13   12     -0.19      0.00
    3   13   12     -0.52      0.00
    4   13   12     -0.14      0.00
    5   13   12     -0.97      0.00
    6   13   12      1.69      0.00
  -11   14   12      0.74      0.00
  -10   14   12      2.42      0.00
   -9   14   12      1.19      0.00
   -8   14   12      0.22      0.00
   -7   14   12     -0.39      0.00
   -6   14   12     -1.79      0.00
   -5   14   12     -0.63      0.00
   -4   14   12      1.42      0.00
   -3   14   12     -1.63      0.00
   -2   14   12     -0.17      0.00
   -1   14   12      0.91      0.00
    0   14   12     -0.74      0.00
    1   14   12     -0.83      0.00
    2   14   12      0.97      0.00
    3   14   12      0.05      0.00
    4   14   12     -0.06      0.00
    5   14   12     -0.89      0.00
  -10   15   12     -2.71      0.00
   -9   15   12      0.17      0.00
   -8   15   12      0.75      0.00
   -7   15   12      1.18      0.00
   -6   15   12      0.55      0.00
   -5   15   12     -1.29      0.00
   -4   15   12     -1.45      0.00
   -3   15   12      1.69      0.00
   -2   15   12     -0.44      0.00
   -1   15   12     -0.39      0.00
    0   15   12      0.51      0.00
    1   15   12     -0.02      0.00
    2   15   12     -0.53      0.00
    3   15   12      1.86      0.00
    4   15   12      0.69      0.00
   -9   16   12     -0.97      0.00
   -8   16   12     -1.45      0.00
   -7   16   12     -0.50      0.00
   -6   16   12      0.05      0.00
   -5   16   12      0.91      0.00
   -4   16   12     -0.75      0.00
   -3   16   12     -2.25      0.00
   -2   16   12      0.18      0.00
   -1   16   12     -0.22      0.00
    0   16   12     -1.15      0.00
    1   16   12     -0.20      0.00
    2   16   12     -0.75      0.00
    3   16   12     -1.03      0.00
   -7   17   12     -0.02      0.00
   -6   17   12     -0.05      0.00
   -5   17   12     -0.34      0.00
   -4   17   12      1.63      0.00
   -3   17   12      1.13      0.00
   -2   17   12     -1.23      0.00
   -1   17   12     -0.05      0.00
    0   17   12      2.42      0.00
    1   17   12      0.63      0.00
   -4  -17   13      0.72      0.00
   -3  -17   13     -0.11      0.00
   -2  -17   13      0.33      0.00
   -1  -17   13      1.91      0.00
    0  -17   13      0.17      0.00
    1  -17   13      0.99      0.00
    2  -17   13     -0.18      0.00
    3  -17   13      0.06      0.00
    4  -17   13      0.54      0.00
   -6  -16   13      0.57      0.00
   -5  -16   13      0.49      0.00
   -4  -16   13      0.13      0.00
   -3  -16   13     -0.07      0.00
   -2  -16   13     -1.00      0.00
   -1  -16   13      0.33      0.00
    0  -16   13      0.62      0.00
    1  -16   13     -0.60      0.00
    2  -16   13      0.86      0.00
    3  -16   13     -0.25      0.00
    4  -16   13      0.78      0.00
    5  -16   13      0.02      0.00
   -7  -15   13      0.58      0.00
   -6  -15   13     -1.02      0.00
   -5  -15   13      0.20      0.00
   -4  -15   13      1.02      0.00
   -3  -15   13      2.19      0.00
   -2  -15   13      1.34      0.00
   -1  -15   13     -1.35      0.00
    0  -15   13      0.69      0.00
    1  -15   13      0.05      0.00
    2  -15   13      0.10      0.00
    3  -15   13     -0.08      0.00
    4  -15   13     -0.19      0.00
    5  -15   13      0.64      0.00
    6  -15   13      0.22      0.00
    7  -15   13      0.76      0.00
   -9  -14   13     -2.19      0.00
   -8  -14   13     -0.89      0.00
   -7  -14   13      1.29      0.00
   -6  -14   13      0.18      0.00
   -5  -14   13     -0.99      0.00
   -4  -14   13     -1.89      0.00
   -3  -14   13     -0.91      0.00
   -2  -14   13      1.37      0.00
   -1  -14   13      0.65      0.00
    0  -14   13     -1.50      0.00
    1  -14   13     -0.35      0.00
    2  -14   13     -0.70      0.00
    3  -14   13      0.45      0.00
    4  -14   13     -1.30      0.00
    5  -14   13     -0.39      0.00
    6  -14   13     -0.52      0.00
    7  -14   13      0.04      0.00
    8  -14   13      0.61      0.00
   -9  -13   13      1.41      0.00
   -8  -13   13     -0.87      0.00
   -7  -13   13     -1.97      0.00
   -6  -13   13      0.07      0.00
   -5  -13   13     -0.13      0.00
   -4  -13   13      0.55      0.00
   -3  -13   13     -1.41      0.00
   -2  -13   13      0.88      0.00
   -1  -13   13      3.04      0.00
    0  -13   13      1.15      0.00
    1  -13   13      0.82      0.00
    2  -13   13     -0.19      0.00
    3  -13   13      1.01      0.00
    4  -13   13      1.62      0.00
    5  -13   13      0.19      0.00
    6  -13   13      0.04      0.00
    7  -13   13     -0.27      0.00
    8  -13   13      1.70      0.00
  -10  -12   13     -0.74      0.00
   -9  -12   13     -0.96      0.00
   -8  -12   13      2.11      0.00
   -7  -12   13      0.98      0.00
   -6  -12   13      0.08      0.00
   -5  -12   13     -0.42      0.00
   -4  -12   13     -0.26      0.00
   -3  -12   13      0.16      0.00
   -2  -12   13     -3.43      0.00
   -1  -12   13     -1.01      0.00
    0  -12   13      0.54      0.00
    1  -12   13     -0.98      0.00
    2  -12   13     -0.06      0.00
    3  -12   13     -1.61      0.00
    4  -12   13     -0.01      0.00
    5  -12   13     -0.75      0.00
    6  -12   13      0.33      0.00
    7  -12   13     -1.27      0.00
    8  -12   13     -2.27      0.00
    9  -12   13      0.90      0.00
  -11  -11   13     -0.94      0.00
  -10  -11   13      0.70      0.00
   -9  -11   13      0.61      0.00
   -8  -11   13     -2.20      0.00
   -7  -11   13     -0.22      0.00
   -6  -11   13     -0.30      0.00
   -5  -11   13      0.08      0.00
   -4  -11   13     -0.28      0.00
   -3  -11   13      0.97      0.00
   -2  -11   13      1.90      0.00
   -1  -11   13     -1.16      0.00
    0  -11   13      0.17      0.00
    1  -11   13      0.66      0.00
    2  -11   13      0.47      0.00
    3  -11   13      0.34      0.00
    4  -11   13      0.34      0.00
    5  -11   13      1.02      0.00
    6  -11   13     -0.87      0.00
    7  -11   13      0.86      0.00
    8  -11   13      0.00      0.00
    9  -11   13     -1.69      0.00
   10  -11   13     -1.12      0.00
  -12  -10   13     -0.18      0.00
  -11  -10   13     -0.67      0.00
  -10  -10   13     -0.95      0.00
   -9  -10   13     -0.32      0.00
   -8  -10   13      1.50      0.00
   -7  -10   13     -0.57      0.00
   -6  -10   13     -0.35      0.00
   -5  -10   13     -0.40      0.00
   -4  -10   13     -1.69      0.00
   -3  -10   13     -1.25      0.00
   -2  -10   13     -0.17      0.00
   -1  -10   13      0.92      0.00
    0  -10   13     -0.46      0.00
    1  -10   13     -0.91      0.00
    2  -10   13     -0.60      0.00
    3  -10   13      0.28      0.00
    4  -10   13     -0.58      0.00
    5  -10   13     -0.18      0.00
    6  -10   13      0.21      0.00
    7  -10   13     -0.94      0.00
    8  -10   13     -0.09      0.00
    9  -10   13      0.45      0.00
   10  -10   13     -0.11      0.00
  -12   -9   13      0.92      0.00
  -11   -9   13      0.03      0.00
  -10   -9   13     -0.10      0.00
   -9   -9   13      0.08      0.00
   -8   -9   13     -0.27      0.00
   -7   -9   13      0.97      0.00
   -6   -9   13     -0.86      0.00
   -5   -9   13     -0.23      0.00
   -4   -9   13      0.86      0.00
   -3   -9   13     -1.63      0.00
   -2   -9   13     -1.28      0.00
   -1   -9   13     -0.89      0.00
    0   -9   13     -0.14      0.00
    1   -9   13      0.74      0.00
    2   -9   13     -0.32      0.00
    3   -9   13      0.15      0.00
    4   -9   13     -0.04      0.00
    5   -9   13     -0.18      0.00
    6   -9   13     -0.68      0.00
    7   -9   13      0.08      0.00
    8   -9   13     -0.71      0.00
    9   -9   13     -0.27      0.00
   10   -9   13     -0.34      0.00
   11   -9   13     -1.63      0.00
  -13   -8   13      0.10      0.00
  -12   -8   13     -1.36      0.00
  -11   -8   13      0.38      0.00
  -10   -8   13      0.08      0.00
   -9   -8   13     -0.47      0.00
   -8   -8   13     -0.36      0.00
   -7   -8   13      0.52      0.00
   -6   -8   13      1.79      0.00
   -5   -8   13     -0.72      0.00
   -4   -8   13      0.36      0.00
   -3   -8   13      1.88      0.00
   -2   -8   13      0.02      0.00
   -1   -8   13      0.54      0.00
    0   -8   13      0.49      0.00
    1   -8   13     -0.50      0.00
    2   -8   13      0.20      0.00
    3   -8   13     -0.25      0.00
    4   -8   13      0.82      0.00
    5   -8   13      0.35      0.00
    6   -8   13      0.30      0.00
    7   -8   13     -0.30      0.00
    8   -8   13      0.41      0.00
    9   -8   13      0.10      0.00
   10   -8   13      1.09      0.00
   11   -8   13      0.15      0.00
  -13   -7   13     -0.01      0.00
  -12   -7   13      1.26      0.00
  -11   -7   13      0.25      0.00
  -10   -7   13     -0.32      0.00
   -9   -7   13      0.59      0.00
   -8   -7   13     -0.53      0.00
   -7   -7   13     -1.66      0.00
   -6   -7   13     -0.39      0.00
   -5   -7   13      0.47      0.00
   -4   -7   13     -1.70      0.00
   -3   -7   13     -0.35      0.00
   -2   -7   13      0.29      0.00
   -1   -7   13     -2.16      0.00
    0   -7   13     -0.53      0.00
    1   -7   13      0.16      0.00
    2   -7   13     -0.56      0.00
    3   -7   13     -0.44      0.00
    4   -7   13     -0.37      0.00
    5   -7   13     -0.14      0.00
    6   -7   13      0.14      0.00
    7   -7   13     -0.54      0.00
    8   -7   13      0.42      0.00
    9   -7   13     -0.44      0.00
   10   -7   13      0.93      0.00
   11   -7   13      1.29      0.00
  -14   -6   13      0.10      0.00
  -13   -6   13     -1.55      0.00
  -12   -6   13     -1.66      0.00
  -11   -6   13      0.15      0.00
  -10   -6   13      1.03      0.00
   -9   -6   13     -0.52      0.00
   -8   -6   13      1.48      0.00
   -7   -6   13      0.50      0.00
   -6   -6   13     -0.99      0.00
   -5   -6   13      1.28      0.00
   -4   -6   13      0.88      0.00
   -3   -6   13     -0.63      0.00
   -2   -6   13      1.89      0.00
   -1   -6   13      2.58      0.00
    0   -6   13     -1.37      0.00
    1   -6   13      0.28      0.00
    2   -6   13      0.39      0.00
    3   -6   13     -0.19      0.00
    4   -6   13     -0.21      0.00
    5   -6   13      0.67      0.00
    6   -6   13      0.50      0.00
    7   -6   13      0.31      0.00
    8   -6   13     -0.79      0.00
    9   -6   13     -0.02      0.00
   10   -6   13     -2.62      0.00
   11   -6   13      1.47      0.00
  -14   -5   13      1.91      0.00
  -13   -5   13      1.45      0.00
  -12   -5   13      0.33      0.00
  -11   -5   13     -1.10      0.00
  -10   -5   13     -0.13      0.00
   -9   -5   13     -0.13      0.00
   -8   -5   13     -2.09      0.00
   -7   -5   13      0.83      0.00
   -6   -5   13      0.08      0.00
   -5   -5   13     -1.64      0.00
   -4   -5   13      1.40      0.00
   -3   -5   13     -0.04      0.00
   -2   -5   13     -2.66      0.00
   -1   -5   13      0.37      0.00
    0   -5   13      1.66      0.00
    1   -5   13     -0.63      0.00
    2   -5   13      0.66      0.00
    3   -5   13      0.75      0.00
    4   -5   13     -0.01      0.00
    5   -5   13     -1.01      0.00
    6   -5   13     -0.04      0.00
    7   -5   13      0.30      0.00
    8   -5   13     -0.84      0.00
    9   -5   13      0.83      0.00
   10   -5   13      0.24      0.00
   11   -5   13     -2.47      0.00
   12   -5   13      2.12      0.00
  -14   -4   13     -1.98      0.00
  -13   -4   13      1.04      0.00
  -12   -4   13      1.80      0.00
  -11   -4   13      1.02      0.00
  -10   -4   13     -0.54      0.00
   -9   -4   13      1.37      0.00
   -8   -4   13      0.40      0.00
   -7   -4   13     -1.38      0.00
   -6   -4   13      1.28      0.00
   -5   -4   13      0.06      0.00
   -4   -4   13     -1.54      0.00
   -3   -4   13      1.21      0.00
   -2   -4   13      0.38      0.00
   -1   -4   13     -2.41      0.00
    0   -4   13     -0.25      0.00
    1   -4   13     -0.97      0.00
    2   -4   13     -0.82      0.00
    3   -4   13     -0.60      0.00
    4   -4   13      0.08      0.00
    5   -4   13      0.46      0.00
    6   -4   13     -1.25      0.00
    7   -4   13      0.06      0.00
    8   -4   13      0.80      0.00
    9   -4   13     -1.30      0.00
   10   -4   13      1.45      0.00
   11   -4   13     -0.38      0.00
   12   -4   13     -1.04      0.00
  -14   -3   13     -1.13      0.00
  -13   -3   13     -1.79      0.00
  -12   -3   13     -0.17      0.00
  -11   -3   13      1.01      0.00
  -10   -3   13      0.10      0.00
   -9   -3   13     -0.97      0.00
   -8   -3   13      0.63      0.00
   -7   -3   13     -1.47      0.00
   -6   -3   13     -1.23      0.00
   -5   -3   13      1.28      0.00
   -4   -3   13      0.60      0.00
   -3   -3   13     -0.07      0.00
   -2   -3   13      1.91      0.00
   -1   -3   13      1.24      0.00
    0   -3   13      0.23      0.00
    1   -3   13      2.16      0.00
    2   -3   13     -0.61      0.00
    3   -3   13      0.41      0.00
    4   -3   13     -0.26      0.00
    5   -3   13      0.06      0.00
    6   -3   13      1.44      0.00
    7   -3   13     -0.45      0.00
    8   -3   13      0.27      0.00
    9   -3   13     -0.04      0.00
   10   -3   13     -0.38      0.00
   11   -3   13      1.13      0.00
   12   -3   13     -1.16      0.00
  -15   -2   13     -0.56      0.00
  -14   -2   13      1.13      0.00
  -13   -2   13     -0.14      0.00
  -12   -2   13     -0.23      0.00
  -11   -2   13      0.50      0.00
  -10   -2   13      0.49      0.00
   -9   -2   13     -0.87      0.00
   -8   -2   13      0.47      0.00
   -7   -2   13      1.33      0.00
   -6   -2   13     -2.08      0.00
   -5   -2   13     -1.58      0.00
   -4   -2   13     -0.99      0.00
   -3   -2   13     -0.45      0.00
   -2   -2   13     -0.81      0.00
   -1   -2   13      0.38      0.00
    0   -2   13     -0.95      0.00
    1   -2   13     -0.13      0.00
    2   -2   13      2.14      0.00
    3   -2   13     -0.83      0.00
    4   -2   13     -0.13      0.00
    5   -2   13     -0.55      0.00
    6   -2   13     -0.69      0.00
    7   -2   13      0.10      0.00
    8   -2   13     -0.48      0.00
    9   -2   13      0.85      0.00
   10   -2   13     -1.10      0.00
   11   -2   13      0.24      0.00
   12   -2   13      0.20      0.00
  -15   -1   13     -0.58      0.00
  -14   -1   13     -0.92      0.00
  -13   -1   13      0.09      0.00
  -12   -1   13     -0.72      0.00
  -11   -1   13      0.03      0.00
  -10   -1   13      0.98      0.00
   -9   -1   13     -0.09      0.00
   -8   -1   13     -2.17      0.00
   -7   -1   13      1.06      0.00
   -6   -1   13      1.62      0.00
   -5   -1   13      0.68      0.00
   -4   -1   13      0.89      0.00
   -3   -1   13     -0.83      0.00
   -2   -1   13      0.39      0.00
   -1   -1   13      0.39      0.00
    0   -1   13      0.49      0.00
    1   -1   13     -1.92      0.00
    2   -1   13     -0.57      0.00
    3   -1   13      1.99      0.00
    4   -1   13      0.18      0.00
    5   -1   13      0.62      0.00
    6   -1   13      0.29      0.00
    7   -1   13      0.10      0.00
    8   -1   13     -0.65      0.00
    9   -1   13     -1.07      0.00
   10   -1   13      0.99      0.00
   11   -1   13     -0.19      0.00
   12   -1   13      1.50      0.00
  -15    0   13     -0.18      0.00
  -14    0   13      0.09      0.00
  -13    0   13     -0.15      0.00
  -12    0   13     -0.18      0.00
  -11    0   13     -1.49      0.00
  -10    0   13     -0.83      0.00
   -9    0   13      0.52      0.00
   -8    0   13     -0.66      0.00
   -7    0   13     -2.44      0.00
   -6    0   13      0.67      0.00
   -5    0   13     -0.76      0.00
   -4    0   13      0.95      0.00
   -3    0   13      0.74      0.00
   -2    0   13     -0.73      0.00
   -1    0   13      0.52      0.00
    0    0   13      1.42      0.00
    1    0   13      1.38      0.00
    2    0   13     -1.31      0.00
    3    0   13     -0.46      0.00
    4    0   13      0.57      0.00
    5    0   13     -0.86      0.00
    6    0   13      0.20      0.00
    7    0   13      0.74      0.00
    8    0   13      0.43      0.00
    9    0   13     -0.64      0.00
   10    0   13     -1.04      0.00
   11    0   13      0.15      0.00
   12    0   13      0.09      0.00
  -15    1   13     -0.14      0.00
  -14    1   13      0.39      0.00
  -13    1   13      0.39      0.00
  -12    1   13      0.95      0.00
  -11    1   13      0.42      0.00
  -10    1   13     -0.64      0.00
   -9    1   13     -0.58      0.00
   -8    1   13      1.56      0.00
   -7    1   13     -0.12      0.00
   -6    1   13     -1.16      0.00
   -5    1   13      0.66      0.00
   -4    1   13     -1.60      0.00
   -3    1   13      1.40      0.00
   -2    1   13     -0.09      0.00
   -1    1   13     -1.34      0.00
    0    1   13     -0.26      0.00
    1    1   13      0.85      0.00
    2    1   13      0.74      0.00
    3    1   13     -1.57      0.00
    4    1   13      0.07      0.00
    5    1   13      0.80      0.00
    6    1   13     -0.93      0.00
    7    1   13     -0.41      0.00
    8    1   13      1.32      0.00
    9    1   13      1.48      0.00
   10    1   13      0.52      0.00
   11    1   13     -0.25      0.00
  -15    2   13     -1.06      0.00
  -14    2   13     -2.18      0.00
  -13    2   13     -0.45      0.00
  -12    2   13     -0.39      0.00
  -11    2   13      0.81      0.00
  -10    2   13      0.51      0.00
   -9    2   13     -0.74      0.00
   -8    2   13     -1.55      0.00
   -7    2   13      1.24      0.00
   -6    2   13     -1.14      0.00
   -5    2   13     -0.28      0.00
   -4    2   13      0.22      0.00
   -3    2   13     -1.75      0.00
   -2    2   13      2.00      0.00
   -1    2   13      1.50      0.00
    0    2   13     -0.27      0.00
    1    2   13     -0.24      0.00
    2    2   13      0.84      0.00
    3    2   13      1.22      0.00
    4    2   13     -0.62      0.00
    5    2   13     -0.09      0.00
    6    2   13      0.71      0.00
    7    2   13     -0.70      0.00
    8    2   13     -0.85      0.00
    9    2   13     -0.01      0.00
   10    2   13      0.89      0.00
   11    2   13      1.04      0.00
  -15    3   13      3.11      0.00
  -14    3   13     -0.19      0.00
  -13    3   13     -1.53      0.00
  -12    3   13     -0.21      0.00
  -11    3   13     -0.40      0.00
  -10    3   13      0.36      0.00
   -9    3   13      0.92      0.00
   -8    3   13     -0.68      0.00
   -7    3   13     -0.81      0.00
   -6    3   13      1.58      0.00
   -5    3   13     -1.84      0.00
   -4    3   13     -0.30      0.00
   -3    3   13     -0.29      0.00
   -2    3   13     -1.44      0.00
   -1    3   13      0.08      0.00
    0    3   13      0.53      0.00
    1    3   13     -0.23      0.00
    2    3   13     -1.47      0.00
    3    3   13     -0.94      0.00
    4    3   13     -0.69      0.00
    5    3   13     -0.26      0.00
    6    3   13     -0.03      0.00
    7    3   13      0.87      0.00
    8    3   13     -0.10      0.00
    9    3   13      0.00      0.00
   10    3   13     -0.64      0.00
   11    3   13      0.15      0.00
  -15    4   13     -1.63      0.00
  -14    4   13      2.54      0.00
  -13    4   13      0.77      0.00
  -12    4   13     -0.23      0.00
  -11    4   13      0.72      0.00
  -10    4   13      0.21      0.00
   -9    4   13      0.56      0.00
   -8    4   13      0.52      0.00
   -7    4   13     -1.09      0.00
   -6    4   13      0.43      0.00
   -5    4   13      1.38      0.00
   -4    4   13     -0.55      0.00
   -3    4   13      0.06      0.00
   -2    4   13     -1.25      0.00
   -1    4   13      0.14      0.00
    0    4   13      0.43      0.00
    1    4   13      1.54      0.00
    2    4   13      1.65      0.00
    3    4   13      0.11      0.00
    4    4   13      0.83      0.00
    5    4   13     -0.41      0.00
    6    4   13      0.13      0.00
    7    4   13     -0.37      0.00
    8    4   13      0.00      0.00
    9    4   13      0.89      0.00
   10    4   13      1.43      0.00
   11    4   13      0.11      0.00
  -15    5   13     -0.25      0.00
  -14    5   13     -1.92      0.00
  -13    5   13     -0.51      0.00
  -12    5   13      0.56      0.00
  -11    5   13     -0.91      0.00
  -10    5   13     -0.22      0.00
   -9    5   13     -0.27      0.00
   -8    5   13      1.33      0.00
   -7    5   13     -0.21      0.00
   -6    5   13     -1.44      0.00
   -5    5   13      1.12      0.00
   -4    5   13     -0.40      0.00
   -3    5   13      0.16      0.00
   -2    5   13      0.91      0.00
   -1    5   13     -1.38      0.00
    0    5   13     -0.59      0.00
    1    5   13     -2.49      0.00
    2    5   13      0.39      0.00
    3    5   13      0.77      0.00
    4    5   13     -0.15      0.00
    5    5   13      0.74      0.00
    6    5   13     -0.77      0.00
    7    5   13      0.49      0.00
    8    5   13     -0.35      0.00
    9    5   13     -2.00      0.00
   10    5   13     -0.22      0.00
   11    5   13      0.91      0.00
  -15    6   13      0.33      0.00
  -14    6   13      0.28      0.00
  -13    6   13     -1.73      0.00
  -12    6   13     -2.33      0.00
  -11    6   13      1.38      0.00
  -10    6   13      0.46      0.00
   -9    6   13     -0.05      0.00
   -8    6   13     -0.05      0.00
   -7    6   13      1.69      0.00
   -6    6   13      0.14      0.00
   -5    6   13     -1.36      0.00
   -4    6   13      0.91      0.00
   -3    6   13     -1.22      0.00
   -2    6   13     -0.14      0.00
   -1    6   13      0.19      0.00
    0    6   13      0.85      0.00
    1    6   13      1.51      0.00
    2    6   13     -1.98      0.00
    3    6   13      0.59      0.00
    4    6   13     -0.10      0.00
    5    6   13      0.05      0.00
    6    6   13      1.05      0.00
    7    6   13     -0.64      0.00
    8    6   13      1.17      0.00
    9    6   13      0.61      0.00
   10    6   13     -0.58      0.00
  -14    7   13     -1.04      0.00
  -13    7   13      3.46      0.00
  -12    7   13     -0.39      0.00
  -11    7   13     -2.25      0.00
  -10    7   13      0.25      0.00
   -9    7   13      0.17      0.00
   -8    7   13     -0.79      0.00
   -7    7   13      0.17      0.00
   -6    7   13      0.85      0.00
   -5    7   13      1.50      0.00
   -4    7   13      0.29      0.00
   -3    7   13      1.04      0.00
   -2    7   13     -0.55      0.00
   -1    7   13     -0.39      0.00
    0    7   13     -1.67      0.00
    1    7   13      0.21      0.00
    2    7   13      0.08      0.00
    3    7   13     -1.11      0.00
    4    7   13      1.14      0.00
    5    7   13      0.29      0.00
    6    7   13     -0.22      0.00
    7    7   13      0.12      0.00
    8    7   13     -0.72      0.00
    9    7   13      1.04      0.00
   10    7   13     -0.72      0.00
  -14    8   13     -1.13      0.00
  -13    8   13     -3.33      0.00
  -12    8   13      4.24      0.00
  -11    8   13      1.78      0.00
  -10    8   13      0.35      0.00
   -9    8   13      0.89      0.00
   -8    8   13     -0.07      0.00
   -7    8   13     -1.61      0.00
   -6    8   13     -0.64      0.00
   -5    8   13     -0.57      0.00
   -4    8   13      0.41      0.00
   -3    8   13     -0.42      0.00
   -2    8   13      0.38      0.00
   -1    8   13      0.57      0.00
    0    8   13     -0.69      0.00
    1    8   13     -1.44      0.00
    2    8   13      0.48      0.00
    3    8   13     -1.01      0.00
    4    8   13     -1.22      0.00
    5    8   13     -0.33      0.00
    6    8   13      0.55      0.00
    7    8   13      0.99      0.00
    8    8   13      0.29      0.00
    9    8   13      0.08      0.00
  -14    9   13      2.16      0.00
  -13    9   13     -1.84      0.00
  -12    9   13     -4.34      0.00
  -11    9   13     -0.92      0.00
  -10    9   13     -0.40      0.00
   -9    9   13     -0.74      0.00
   -8    9   13      1.17      0.00
   -7    9   13      0.90      0.00
   -6    9   13      0.12      0.00
   -5    9   13     -0.19      0.00
   -4    9   13      0.71      0.00
   -3    9   13      1.17      0.00
   -2    9   13     -0.31      0.00
   -1    9   13     -0.84      0.00
    0    9   13      1.56      0.00
    1    9   13     -0.08      0.00
    2    9   13     -0.37      0.00
    3    9   13      0.73      0.00
    4    9   13      0.29      0.00
    5    9   13      1.07      0.00
    6    9   13      0.37      0.00
    7    9   13     -0.77      0.00
    8    9   13      0.31      0.00
    9    9   13     -0.20      0.00
  -13   10   13      2.30      0.00
  -12   10   13      1.74      0.00
  -11   10   13      1.48      0.00
  -10   10   13     -0.30      0.00
   -9   10   13     -0.18      0.00
   -8   10   13     -2.10      0.00
   -7   10   13     -0.49      0.00
   -6   10   13     -0.28      0.00
   -5   10   13      0.40      0.00
   -4   10   13     -0.11      0.00
   -3   10   13      0.25      0.00
   -2   10   13      0.90      0.00
   -1   10   13      0.32      0.00
    0   10   13     -2.09      0.00
    1   10   13      0.46      0.00
    2   10   13      0.03      0.00
    3   10   13     -0.51      0.00
    4   10   13     -0.29      0.00
    5   10   13     -1.96      0.00
    6   10   13     -0.04      0.00
    7   10   13      1.29      0.00
    8   10   13     -0.76      0.00
  -13   11   13     -2.23      0.00
  -12   11   13     -3.62      0.00
  -11   11   13     -0.07      0.00
  -10   11   13      1.60      0.00
   -9   11   13      0.84      0.00
   -8   11   13      0.77      0.00
   -7   11   13     -0.75      0.00
   -6   11   13     -0.12      0.00
   -5   11   13     -0.58      0.00
   -4   11   13     -0.11      0.00
   -3   11   13     -0.27      0.00
   -2   11   13     -0.92      0.00
   -1   11   13      0.67      0.00
    0   11   13      1.15      0.00
    1   11   13     -1.32      0.00
    2   11   13      0.44      0.00
    3   11   13      0.87      0.00
    4   11   13     -0.17      0.00
    5   11   13      1.92      0.00
    6   11   13     -1.83      0.00
    7   11   13     -0.68      0.00
    8   11   13      0.35      0.00
  -12   12   13      3.30      0.00
  -11   12   13     -2.20      0.00
  -10   12   13     -0.49      0.00
   -9   12   13     -0.56      0.00
   -8   12   13     -0.53      0.00
   -7   12   13     -0.99      0.00
   -6   12   13     -0.63      0.00
   -5   12   13     -0.04      0.00
   -4   12   13     -0.58      0.00
   -3   12   13      0.93      0.00
   -2   12   13      0.01      0.00
   -1   12   13     -2.43      0.00
    0   12   13     -0.35      0.00
    1   12   13      0.90      0.00
    2   12   13     -1.06      0.00
    3   12   13      0.02      0.00
    4   12   13     -0.32      0.00
    5   12   13     -1.43      0.00
    6   12   13      2.14      0.00
    7   12   13     -0.47      0.00
  -12   13   13     -0.90      0.00
  -11   13   13      1.83      0.00
  -10   13   13      0.67      0.00
   -9   13   13      0.66      0.00
   -8   13   13      0.99      0.00
   -7   13   13      0.31      0.00
   -6   13   13     -1.64      0.00
   -5   13   13     -0.23      0.00
   -4   13   13      0.60      0.00
   -3   13   13     -1.47      0.00
   -2   13   13      1.65      0.00
   -1   13   13      1.99      0.00
    0   13   13     -0.58      0.00
    1   13   13     -0.59      0.00
    2   13   13      0.74      0.00
    3   13   13     -0.47      0.00
    4   13   13      1.05      0.00
    5   13   13     -0.57      0.00
    6   13   13     -1.36      0.00
  -11   14   13     -2.39      0.00
  -10   14   13     -1.56      0.00
   -9   14   13     -0.49      0.00
   -8   14   13     -1.32      0.00
   -7   14   13      0.46      0.00
   -6   14   13      1.06      0.00
   -5   14   13     -1.94      0.00
   -4   14   13     -0.97      0.00
   -3   14   13      0.89      0.00
   -2   14   13     -2.31      0.00
   -1   14   13     -0.86      0.00
    0   14   13      0.36      0.00
    1   14   13      0.25      0.00
    2   14   13     -0.15      0.00
    3   14   13      1.10      0.00
    4   14   13     -0.03      0.00
    5   14   13      1.22      0.00
  -10   15   13     -0.72      0.00
   -9   15   13     -0.29      0.00
   -8   15   13     -0.14      0.00
   -7   15   13     -1.05      0.00
   -6   15   13     -0.37      0.00
   -5   15   13      1.48      0.00
   -4   15   13     -1.24      0.00
   -3   15   13     -1.15      0.00
   -2   15   13      1.08      0.00
   -1   15   13     -0.36      0.00
    0   15   13     -0.62      0.00
    1   15   13      0.09      0.00
    2   15   13     -0.46      0.00
    3   15   13     -0.68      0.00
    4   15   13      0.50      0.00
   -8   16   13      0.19      0.00
   -7   16   13      0.09      0.00
   -6   16   13     -0.25      0.00
   -5   16   13     -0.24      0.00
   -4   16   13      1.63      0.00
   -3   16   13     -0.28      0.00
   -2   16   13     -1.38      0.00
   -1   16   13     -0.19      0.00
    0   16   13      1.04      0.00
    1   16   13     -0.05      0.00
    2   16   13      0.96      0.00
   -6   17   13     -0.37      0.00
   -5   17   13     -1.22      0.00
   -4   17   13     -1.40      0.00
   -3   17   13      0.43      0.00
   -2   17   13      1.47      0.00
   -1   17   13     -0.58      0.00
    0   17   13     -1.75      0.00
   -3  -17   14      0.41      0.00
   -2  -17   14     -0.05      0.00
   -1  -17   14     -0.05      0.00
    0  -17   14     -0.59      0.00
    1  -17   14     -0.45      0.00
    2  -17   14      1.47      0.00
   -5  -16   14      0.27      0.00
   -4  -16   14      0.97      0.00
   -3  -16   14      1.15      0.00
   -2  -16   14      0.31      0.00
   -1  -16   14     -0.85      0.00
    0  -16   14      1.30      0.00
    1  -16   14     -0.59      0.00
    2  -16   14     -0.64      0.00
    3  -16   14     -0.12      0.00
    4  -16   14     -0.86      0.00
    5  -16   14     -0.43      0.00
   -7  -15   14      0.15      0.00
   -6  -15   14     -0.57      0.00
   -5  -15   14     -1.44      0.00
   -4  -15   14     -1.25      0.00
   -3  -15   14      0.32      0.00
   -2  -15   14      2.99      0.00
   -1  -15   14      1.70      0.00
    0  -15   14     -0.98      0.00
    1  -15   14      0.70      0.00
    2  -15   14     -0.38      0.00
    3  -15   14      1.06      0.00
    4  -15   14      0.70      0.00
    5  -15   14      0.04      0.00
    6  -15   14     -1.12      0.00
   -8  -14   14     -0.44      0.00
   -7  -14   14     -0.53      0.00
   -6  -14   14      1.50      0.00
   -5  -14   14      0.56      0.00
   -4  -14   14     -0.27      0.00
   -3  -14   14     -2.74      0.00
   -2  -14   14     -1.86      0.00
   -1  -14   14      1.47      0.00
    0  -14   14      0.78      0.00
    1  -14   14      0.26      0.00
    2  -14   14     -0.52      0.00
    3  -14   14     -0.03      0.00
    4  -14   14      0.62      0.00
    5  -14   14      0.23      0.00
    6  -14   14      0.11      0.00
    7  -14   14     -0.32      0.00
   -9  -13   14     -0.13      0.00
   -8  -13   14      1.77      0.00
   -7  -13   14     -1.04      0.00
   -6  -13   14     -0.57      0.00
   -5  -13   14      0.16      0.00
   -4  -13   14      2.04      0.00
   -3  -13   14      2.34      0.00
   -2  -13   14     -1.35      0.00
   -1  -13   14     -0.72      0.00
    0  -13   14      0.56      0.00
    1  -13   14     -0.47      0.00
    2  -13   14      0.77      0.00
    3  -13   14     -1.26      0.00
    4  -13   14      0.82      0.00
    5  -13   14      0.31      0.00
    6  -13   14      0.69      0.00
    7  -13   14     -1.92      0.00
    8  -13   14     -2.85      0.00
  -10  -12   14      0.27      0.00
   -9  -12   14      0.13      0.00
   -8  -12   14     -1.16      0.00
   -7  -12   14      1.23      0.00
   -6  -12   14     -0.95      0.00
   -5  -12   14     -0.71      0.00
   -4  -12   14     -2.14      0.00
   -3  -12   14      0.54      0.00
   -2  -12   14      1.32      0.00
   -1  -12   14     -1.83      0.00
    0  -12   14     -0.48      0.00
    1  -12   14     -0.33      0.00
    2  -12   14     -0.05      0.00
    3  -12   14      0.29      0.00
    4  -12   14     -0.75      0.00
    5  -12   14      0.20      0.00
    6  -12   14     -0.92      0.00
    7  -12   14      2.10      0.00
    8  -12   14      0.14      0.00
    9  -12   14     -2.11      0.00
  -11  -11   14      0.32      0.00
  -10  -11   14     -1.43      0.00
   -9  -11   14      0.09      0.00
   -8  -11   14      0.81      0.00
   -7  -11   14     -0.69      0.00
   -6  -11   14     -0.01      0.00
   -5  -11   14     -0.42      0.00
   -4  -11   14     -1.16      0.00
   -3  -11   14     -1.20      0.00
   -2  -11   14      0.91      0.00
   -1  -11   14      1.72      0.00
    0  -11   14     -0.25      0.00
    1  -11   14     -0.28      0.00
    2  -11   14     -0.79      0.00
    3  -11   14      0.51      0.00
    4  -11   14     -0.37      0.00
    5  -11   14      0.16      0.00
    6  -11   14      0.28      0.00
    7  -11   14     -1.28      0.00
    8  -11   14      0.83      0.00
    9  -11   14      0.96      0.00
  -12  -10   14     -0.29      0.00
  -11  -10   14      0.04      0.00
  -10  -10   14      1.01      0.00
   -9  -10   14     -0.63      0.00
   -8  -10   14     -0.05      0.00
   -7  -10   14      1.05      0.00
   -6  -10   14     -0.20      0.00
   -5  -10   14      0.55      0.00
   -4  -10   14      1.34      0.00
   -3  -10   14     -1.51      0.00
   -2  -10   14     -0.95      0.00
   -1  -10   14     -0.30      0.00
    0  -10   14      0.50      0.00
    1  -10   14      0.88      0.00
    2  -10   14      0.07      0.00
    3  -10   14     -0.15      0.00
    4  -10   14      0.09      0.00
    5  -10   14     -0.34      0.00
    6  -10   14     -0.78      0.00
    7  -10   14     -0.17      0.00
    8  -10   14     -0.73      0.00
    9  -10   14      0.07      0.00
   10  -10   14      1.13      0.00
  -12   -9   14     -0.97      0.00
  -11   -9   14     -0.10      0.00
  -10   -9   14     -0.73      0.00
   -9   -9   14     -0.06      0.00
   -8   -9   14     -0.85      0.00
   -7   -9   14     -0.42      0.00
   -6   -9   14      0.96      0.00
   -5   -9   14     -1.72      0.00
   -4   -9   14     -0.01      0.00
   -3   -9   14      1.52      0.00
   -2   -9   14     -0.68      0.00
   -1   -9   14     -0.37      0.00
    0   -9   14     -0.69      0.00
    1   -9   14     -0.70      0.00
    2   -9   14     -0.13      0.00
    3   -9   14     -0.11      0.00
    4   -9   14      0.56      0.00
    5   -9   14      0.29      0.00
    6   -9   14      1.13      0.00
    7   -9   14     -0.34      0.00
    8   -9   14      0.24      0.00
    9   -9   14     -0.05      0.00
   10   -9   14      0.21      0.00
  -13   -8   14     -0.56      0.00
  -12   -8   14      0.62      0.00
  -11   -8   14     -0.31      0.00
  -10   -8   14      0.05      0.00
   -9   -8   14      0.52      0.00
   -8   -8   14      0.15      0.00
   -7   -8   14     -0.99      0.00
   -6   -8   14     -0.41      0.00
   -5   -8   14      1.13      0.00
   -4   -8   14     -1.43      0.00
   -3   -8   14      0.31      0.00
   -2   -8   14      1.44      0.00
   -1   -8   14     -0.02      0.00
    0   -8   14      0.42      0.00
    1   -8   14      0.12      0.00
    2   -8   14      0.22      0.00
    3   -8   14     -0.63      0.00
    4   -8   14     -0.24      0.00
    5   -8   14     -0.55      0.00
    6   -8   14     -0.39      0.00
    7   -8   14      0.34      0.00
    8   -8   14     -0.32      0.00
    9   -8   14     -0.80      0.00
   10   -8   14      0.04      0.00
  -13   -7   14     -0.26      0.00
  -12   -7   14     -0.92      0.00
  -11   -7   14      0.28      0.00
  -10   -7   14      0.05      0.00
   -9   -7   14     -0.82      0.00
   -8   -7   14      0.58      0.00
   -7   -7   14      0.40      0.00
   -6   -7   14     -0.90      0.00
   -5   -7   14      0.29      0.00
   -4   -7   14     -0.05      0.00
   -3   -7   14     -1.91      0.00
   -2   -7   14     -0.70      0.00
   -1   -7   14      0.28      0.00
    0   -7   14     -1.34      0.00
    1   -7   14      0.25      0.00
    2   -7   14      0.38      0.00
    3   -7   14      0.72      0.00
    4   -7   14     -0.18      0.00
    5   -7   14      0.63      0.00
    6   -7   14     -0.18      0.00
    7   -7   14     -0.18      0.00
    8   -7   14      0.37      0.00
    9   -7   14      0.32      0.00
   10   -7   14     -1.88      0.00
   11   -7   14      0.22      0.00
  -13   -6   14      0.88      0.00
  -12   -6   14      0.58      0.00
  -11   -6   14     -0.68      0.00
  -10   -6   14      0.41      0.00
   -9   -6   14      0.37      0.00
   -8   -6   14     -0.86      0.00
   -7   -6   14      0.78      0.00
   -6   -6   14      0.50      0.00
   -5   -6   14     -1.06      0.00
   -4   -6   14      1.49      0.00
   -3   -6   14      0.67      0.00
   -2   -6   14     -0.99      0.00
   -1   -6   14      0.51      0.00
    0   -6   14      0.96      0.00
    1   -6   14     -1.22      0.00
    2   -6   14     -0.36      0.00
    3   -6   14      0.06      0.00
    4   -6   14     -0.43      0.00
    5   -6   14     -0.98      0.00
    6   -6   14     -0.05      0.00
    7   -6   14     -0.32      0.00
    8   -6   14     -1.21      0.00
    9   -6   14      1.35      0.00
   10   -6   14      0.24      0.00
   11   -6   14     -2.24      0.00
  -14   -5   14     -0.74      0.00
  -13   -5   14      1.39      0.00
  -12   -5   14      1.74      0.00
  -11   -5   14      0.89      0.00
  -10   -5   14     -1.11      0.00
   -9   -5   14      0.44      0.00
   -8   -5   14      0.09      0.00
   -7   -5   14     -1.41      0.00
   -6   -5   14      0.92      0.00
   -5   -5   14      0.60      0.00
   -4   -5   14     -1.25      0.00
   -3   -5   14      0.71      0.00
   -2   -5   14      0.47      0.00
   -1   -5   14     -1.61      0.00
    0   -5   14      0.39      0.00
    1   -5   14      0.48      0.00
    2   -5   14      0.47      0.00
    3   -5   14      0.22      0.00
    4   -5   14      1.15      0.00
    5   -5   14      0.10      0.00
    6   -5   14     -0.95      0.00
    7   -5   14      0.80      0.00
    8   -5   14      0.38      0.00
    9   -5   14     -1.41      0.00
   10   -5   14      2.57      0.00
   11   -5   14      0.22      0.00
  -14   -4   14     -1.87      0.00
  -13   -4   14     -2.51      0.00
  -12   -4   14     -0.19      0.00
  -11   -4   14      1.88      0.00
  -10   -4   14      0.99      0.00
   -9   -4   14     -1.16      0.00
   -8   -4   14      0.57      0.00
   -7   -4   14     -0.30      0.00
   -6   -4   14     -1.80      0.00
   -5   -4   14      0.27      0.00
   -4   -4   14      0.35      0.00
   -3   -4   14     -0.64      0.00
   -2   -4   14      0.63      0.00
   -1   -4   14      0.57      0.00
    0   -4   14     -0.68      0.00
    1   -4   14      0.21      0.00
    2   -4   14     -1.38      0.00
    3   -4   14     -0.26      0.00
    4   -4   14     -0.85      0.00
    5   -4   14      0.86      0.00
    6   -4   14      0.95      0.00
    7   -4   14     -1.05      0.00
    8   -4   14      0.65      0.00
    9   -4   14     -1.04      0.00
   10   -4   14     -1.10      0.00
   11   -4   14      1.27      0.00
  -14   -3   14      2.83      0.00
  -13   -3   14      0.96      0.00
  -12   -3   14     -0.76      0.00
  -11   -3   14     -0.65      0.00
  -10   -3   14      0.74      0.00
   -9   -3   14     -0.43      0.00
   -8   -3   14     -0.63      0.00
   -7   -3   14      1.35      0.00
   -6   -3   14     -0.02      0.00
   -5   -3   14     -0.37      0.00
   -4   -3   14      0.50      0.00
   -3   -3   14      1.22      0.00
   -2   -3   14      0.40      0.00
   -1   -3   14      0.98      0.00
    0   -3   14     -0.09      0.00
    1   -3   14      0.94      0.00
    2   -3   14      1.97      0.00
    3   -3   14      0.23      0.00
    4   -3   14      0.55      0.00
    5   -3   14     -0.70      0.00
    6   -3   14     -0.25      0.00
    7   -3   14      0.16      0.00
    8   -3   14     -0.48      0.00
    9   -3   14      1.06      0.00
   10   -3   14     -2.15      0.00
   11   -3   14      0.43      0.00
  -15   -2   14     -1.83      0.00
  -14   -2   14     -2.44      0.00
  -13   -2   14      0.82      0.00
  -12   -2   14      0.34      0.00
  -11   -2   14      0.09      0.00
  -10   -2   14      0.24      0.00
   -9   -2   14      0.30      0.00
   -8   -2   14     -1.98      0.00
   -7   -2   14     -0.39      0.00
   -6   -2   14      1.05      0.00
   -5   -2   14     -0.08      0.00
   -4   -2   14     -0.57      0.00
   -3   -2   14     -1.98      0.00
   -2   -2   14     -0.48      0.00
   -1   -2   14      0.02      0.00
    0   -2   14      0.18      0.00
    1   -2   14     -2.18      0.00
    2   -2   14     -0.76      0.00
    3   -2   14      0.86      0.00
    4   -2   14      0.21      0.00
    5   -2   14      0.41      0.00
    6   -2   14     -0.06      0.00
    7   -2   14      0.20      0.00
    8   -2   14     -0.57      0.00
    9   -2   14     -0.31      0.00
   10   -2   14      1.48      0.00
   11   -2   14     -1.10      0.00
  -15   -1   14      1.19      0.00
  -14   -1   14      0.34      0.00
  -13   -1   14     -0.96      0.00
  -12   -1   14      0.46      0.00
  -11   -1   14     -1.12      0.00
  -10   -1   14     -0.68      0.00
   -9   -1   14      0.45      0.00
   -8   -1   14      0.36      0.00
   -7   -1   14     -1.74      0.00
   -6   -1   14      0.46      0.00
   -5   -1   14      0.47      0.00
   -4   -1   14      1.96      0.00
   -3   -1   14      2.13      0.00
   -2   -1   14     -0.23      0.00
   -1   -1   14     -0.05      0.00
    0   -1   14      1.45      0.00
    1   -1   14      1.30      0.00
    2   -1   14     -1.24      0.00
    3   -1   14     -0.69      0.00
    4   -1   14      0.14      0.00
    5   -1   14     -0.08      0.00
    6   -1   14      0.47      0.00
    7   -1   14      0.10      0.00
    8   -1   14      0.48      0.00
    9   -1   14     -0.30      0.00
   10   -1   14     -0.27      0.00
   11   -1   14      0.47      0.00
  -15    0   14     -1.07      0.00
  -14    0   14     -0.10      0.00
  -13    0   14      0.27      0.00
  -12    0   14      0.68      0.00
  -11    0   14      1.14      0.00
  -10    0   14     -0.73      0.00
   -9    0   14     -0.79      0.00
   -8    0   14      0.71      0.00
   -7    0   14     -0.18      0.00
   -6    0   14     -1.58      0.00
   -5    0   14     -0.55      0.00
   -4    0   14     -2.19      0.00
   -3    0   14      0.36      0.00
   -2    0   14      0.97      0.00
   -1    0   14      0.04      0.00
    0    0   14      0.09      0.00
    1    0   14      1.79      0.00
    2    0   14      1.17      0.00
    3    0   14     -0.78      0.00
    4    0   14      0.29      0.00
    5    0   14     -0.04      0.00
    6    0   14     -1.11      0.00
    7    0   14      0.08      0.00
    8    0   14      0.69      0.00
    9    0   14      0.92      0.00
   10    0   14     -0.05      0.00
   11    0   14     -0.27      0.00
  -15    1   14      0.07      0.00
  -14    1   14     -1.52      0.00
  -13    1   14     -0.93      0.00
  -12    1   14     -0.61      0.00
  -11    1   14      0.88      0.00
  -10    1   14      1.01      0.00
   -9    1   14     -0.32      0.00
   -8    1   14     -1.22      0.00
   -7    1   14      1.05      0.00
   -6    1   14     -0.23      0.00
   -5    1   14      0.35      0.00
   -4    1   14     -0.03      0.00
   -3    1   14     -1.84      0.00
   -2    1   14      0.39      0.00
   -1    1   14      0.28      0.00
    0    1   14     -1.70      0.00
    1    1   14     -1.79      0.00
    2    1   14      0.24      0.00
    3    1   14      0.11      0.00
    4    1   14     -0.66      0.00
    5    1   14      1.01      0.00
    6    1   14      1.22      0.00
    7    1   14     -0.70      0.00
    8    1   14     -0.51      0.00
    9    1   14      0.29      0.00
   10    1   14      1.65      0.00
   11    1   14      1.08      0.00
  -15    2   14      1.48      0.00
  -14    2   14      0.19      0.00
  -13    2   14     -0.58      0.00
  -12    2   14     -0.71      0.00
  -11    2   14     -0.98      0.00
  -10    2   14     -0.29      0.00
   -9    2   14      0.51      0.00
   -8    2   14     -0.55      0.00
   -7    2   14     -1.33      0.00
   -6    2   14      0.90      0.00
   -5    2   14     -1.29      0.00
   -4    2   14      0.83      0.00
   -3    2   14      0.62      0.00
   -2    2   14     -0.58      0.00
   -1    2   14      1.20      0.00
    0    2   14      2.54      0.00
    1    2   14      0.86      0.00
    2    2   14     -0.48      0.00
    3    2   14     -0.05      0.00
    4    2   14     -1.02      0.00
    5    2   14     -0.78      0.00
    6    2   14      0.05      0.00
    7    2   14      0.90      0.00
    8    2   14     -0.51      0.00
    9    2   14     -0.89      0.00
   10    2   14     -1.22      0.00
   11    2   14      0.17      0.00
  -15    3   14     -0.62      0.00
  -14    3   14      1.90      0.00
  -13    3   14      0.56      0.00
  -12    3   14      0.39      0.00
  -11    3   14      0.62      0.00
  -10    3   14      0.19      0.00
   -9    3   14     -0.12      0.00
   -8    3   14      1.11      0.00
   -7    3   14     -0.39      0.00
   -6    3   14      0.07      0.00
   -5    3   14      1.00      0.00
   -4    3   14     -1.28      0.00
   -3    3   14     -0.74      0.00
   -2    3   14     -1.12      0.00
   -1    3   14     -1.39      0.00
    0    3   14     -1.28      0.00
    1    3   14      0.54      0.00
    2    3   14      0.89      0.00
    3    3   14      0.70      0.00
    4    3   14      1.30      0.00
    5    3   14     -0.17      0.00
    6    3   14     -0.32      0.00
    7    3   14     -0.39      0.00
    8    3   14      0.50      0.00
    9    3   14      1.02      0.00
   10    3   14      0.94      0.00
   11    3   14      0.12      0.00
  -15    4   14     -1.27      0.00
  -14    4   14     -2.10      0.00
  -13    4   14     -0.64      0.00
  -12    4   14     -0.35      0.00
  -11    4   14     -1.41      0.00
  -10    4   14     -0.27      0.00
   -9    4   14      0.16      0.00
   -8    4   14      0.71      0.00
   -7    4   14      0.71      0.00
   -6    4   14     -0.87      0.00
   -5    4   14      1.20      0.00
   -4    4   14      0.14      0.00
   -3    4   14      0.77      0.00
   -2    4   14      0.98      0.00
   -1    4   14      0.31      0.00
    0    4   14      0.25      0.00
    1    4   14     -1.74      0.00
    2    4   14      0.08      0.00
    3    4   14      0.13      0.00
    4    4   14      0.06      0.00
    5    4   14      0.66      0.00
    6    4   14      0.35      0.00
    7    4   14      0.72      0.00
    8    4   14     -0.10      0.00
    9    4   14     -1.18      0.00
   10    4   14      0.13      0.00
  -15    5   14      0.93      0.00
  -14    5   14      0.37      0.00
  -13    5   14     -0.81      0.00
  -12    5   14     -0.30      0.00
  -11    5   14      1.91      0.00
  -10    5   14     -0.45      0.00
   -9    5   14     -1.33      0.00
   -8    5   14     -0.97      0.00
   -7    5   14      1.03      0.00
   -6    5   14     -0.17      0.00
   -5    5   14     -1.44      0.00
   -4    5   14      1.17      0.00
   -3    5   14     -1.33      0.00
   -2    5   14     -0.15      0.00
   -1    5   14     -0.54      0.00
    0    5   14      0.78      0.00
    1    5   14      1.19      0.00
    2    5   14     -2.20      0.00
    3    5   14     -0.40      0.00
    4    5   14     -0.77      0.00
    5    5   14     -0.08      0.00
    6    5   14      0.14      0.00
    7    5   14     -0.94      0.00
    8    5   14      0.72      0.00
    9    5   14      0.60      0.00
   10    5   14     -0.29      0.00
  -14    6   14     -1.05      0.00
  -13    6   14      2.56      0.00
  -12    6   14     -0.39      0.00
  -11    6   14     -0.45      0.00
  -10    6   14      2.52      0.00
   -9    6   14      1.63      0.00
   -8    6   14     -0.22      0.00
   -7    6   14     -0.25      0.00
   -6    6   14      1.13      0.00
   -5    6   14      0.56      0.00
   -4    6   14     -0.30      0.00
   -3    6   14      0.68      0.00
   -2    6   14     -0.45      0.00
   -1    6   14      0.45      0.00
    0    6   14     -1.43      0.00
    1    6   14      0.64      0.00
    2    6   14      1.02      0.00
    3    6   14     -0.32      0.00
    4    6   14      1.05      0.00
    5    6   14      0.00      0.00
    6    6   14      0.46      0.00
    7    6   14      1.53      0.00
    8    6   14      0.46      0.00
    9    6   14      1.60      0.00
   10    6   14     -0.13      0.00
  -14    7   14     -1.33      0.00
  -13    7   14     -3.13      0.00
  -12    7   14      3.22      0.00
  -11    7   14     -0.01      0.00
  -10    7   14     -1.47      0.00
   -9    7   14     -0.15      0.00
   -8    7   14     -0.82      0.00
   -7    7   14     -1.12      0.00
   -6    7   14     -0.28      0.00
   -5    7   14      0.06      0.00
   -4    7   14      0.19      0.00
   -3    7   14      0.21      0.00
   -2    7   14     -0.02      0.00
   -1    7   14     -0.19      0.00
    0    7   14     -0.88      0.00
    1    7   14     -1.32      0.00
    2    7   14      0.40      0.00
    3    7   14     -0.83      0.00
    4    7   14     -0.69      0.00
    5    7   14     -0.04      0.00
    6    7   14     -0.11      0.00
    7    7   14     -0.67      0.00
    8    7   14     -1.22      0.00
    9    7   14     -0.33      0.00
  -14    8   14      2.37      0.00
  -13    8   14     -2.09      0.00
  -12    8   14     -3.01      0.00
  -11    8   14      1.26      0.00
  -10    8   14      1.35      0.00
   -9    8   14      0.48      0.00
   -8    8   14      1.85      0.00
   -7    8   14     -0.04      0.00
   -6    8   14     -0.27      0.00
   -5    8   14     -0.20      0.00
   -4    8   14      0.73      0.00
   -3    8   14      0.36      0.00
   -2    8   14     -0.57      0.00
   -1    8   14      0.05      0.00
    0    8   14      2.07      0.00
    1    8   14     -0.61      0.00
    2    8   14      0.07      0.00
    3    8   14      0.84      0.00
    4    8   14      0.08      0.00
    5    8   14      0.84      0.00
    6    8   14      0.16      0.00
    7    8   14      0.51      0.00
    8    8   14      1.21      0.00
    9    8   14     -0.71      0.00
  -14    9   14     -2.00      0.00
  -13    9   14      2.57      0.00
  -12    9   14     -0.80      0.00
  -11    9   14     -0.09      0.00
  -10    9   14     -0.81      0.00
   -9    9   14     -0.59      0.00
   -8    9   14     -1.44      0.00
   -7    9   14      0.77      0.00
   -6    9   14      0.38      0.00
   -5    9   14      0.46      0.00
   -4    9   14     -0.59      0.00
   -3    9   14      0.69      0.00
   -2    9   14      0.79      0.00
   -1    9   14     -1.39      0.00
    0    9   14     -2.03      0.00
    1    9   14      0.90      0.00
    2    9   14     -0.48      0.00
    3    9   14      0.53      0.00
    4    9   14      0.24      0.00
    5    9   14     -1.42      0.00
    6    9   14      0.06      0.00
    7    9   14     -0.21      0.00
    8    9   14     -1.11      0.00
  -13   10   14     -0.94      0.00
  -12   10   14     -0.35      0.00
  -11   10   14      0.49      0.00
  -10   10   14      1.89      0.00
   -9   10   14      0.71      0.00
   -8   10   14     -0.28      0.00
   -7   10   14     -1.55      0.00
   -6   10   14     -0.38      0.00
   -5   10   14      0.22      0.00
   -4   10   14     -0.16      0.00
   -3   10   14     -0.59      0.00
   -2   10   14     -0.13      0.00
   -1   10   14      1.22      0.00
    0   10   14      0.46      0.00
    1   10   14     -1.29      0.00
    2   10   14      0.06      0.00
    3   10   14     -0.72      0.00
    4   10   14     -0.39      0.00
    5   10   14      1.69      0.00
    6   10   14     -1.23      0.00
    7   10   14      0.74      0.00
    8   10   14      1.19      0.00
  -13   11   14      0.74      0.00
  -12   11   14      1.19      0.00
  -11   11   14     -3.05      0.00
  -10   11   14     -0.27      0.00
   -9   11   14      0.28      0.00
   -8   11   14      0.61      0.00
   -7   11   14     -0.09      0.00
   -6   11   14     -0.61      0.00
   -5   11   14      0.02      0.00
   -4   11   14      1.07      0.00
   -3   11   14      0.60      0.00
   -2   11   14     -0.05      0.00
   -1   11   14     -1.46      0.00
    0   11   14      0.05      0.00
    1   11   14      0.86      0.00
    2   11   14     -0.70      0.00
    3   11   14      1.10      0.00
    4   11   14     -0.17      0.00
    5   11   14     -1.03      0.00
    6   11   14      1.89      0.00
    7   11   14     -1.52      0.00
  -12   12   14      0.74      0.00
  -11   12   14      2.30      0.00
  -10   12   14     -1.94      0.00
   -9   12   14     -0.93      0.00
   -8   12   14     -0.31      0.00
   -7   12   14     -0.29      0.00
   -6   12   14     -1.12      0.00
   -5   12   14     -0.48      0.00
   -4   12   14     -0.27      0.00
   -3   12   14     -0.49      0.00
   -2   12   14      1.05      0.00
   -1   12   14      1.04      0.00
    0   12   14     -0.98      0.00
    1   12   14     -0.90      0.00
    2   12   14      0.19      0.00
    3   12   14     -1.27      0.00
    4   12   14      1.48      0.00
    5   12   14     -0.78      0.00
    6   12   14     -0.56      0.00
  -11   13   14     -0.89      0.00
  -10   13   14      1.15      0.00
   -9   13   14     -0.21      0.00
   -8   13   14     -1.31      0.00
   -7   13   14      0.70      0.00
   -6   13   14      1.30      0.00
   -5   13   14     -1.35      0.00
   -4   13   14     -0.25      0.00
   -3   13   14      0.76      0.00
   -2   13   14     -1.28      0.00
   -1   13   14     -0.08      0.00
    0   13   14      0.79      0.00
    1   13   14      0.73      0.00
    2   13   14      0.17      0.00
    3   13   14      0.37      0.00
    4   13   14     -0.67      0.00
    5   13   14      1.73      0.00
  -10   14   14     -1.45      0.00
   -9   14   14      0.20      0.00
   -8   14   14     -0.08      0.00
   -7   14   14     -2.32      0.00
   -6   14   14     -0.93      0.00
   -5   14   14      1.67      0.00
   -4   14   14     -1.45      0.00
   -3   14   14     -1.39      0.00
   -2   14   14     -0.08      0.00
   -1   14   14     -1.07      0.00
    0   14   14     -1.06      0.00
    1   14   14     -0.35      0.00
    2   14   14     -0.18      0.00
    3   14   14      0.05      0.00
    4   14   14     -0.28      0.00
   -9   15   14     -0.80      0.00
   -8   15   14      0.40      0.00
   -7   15   14      0.82      0.00
   -6   15   14     -0.74      0.00
   -5   15   14     -0.68      0.00
   -4   15   14      1.69      0.00
   -3   15   14      0.43      0.00
   -2   15   14      0.64      0.00
   -1   15   14      1.18      0.00
    0   15   14      1.20      0.00
    1   15   14     -0.23      0.00
    2   15   14      0.53      0.00
    3   15   14     -0.64      0.00
   -8   16   14     -0.50      0.00
   -7   16   14     -0.75      0.00
   -6   16   14     -0.31      0.00
   -5   16   14     -1.29      0.00
   -4   16   14     -1.19      0.00
   -3   16   14     -0.80      0.00
   -2   16   14     -0.59      0.00
   -1   16   14     -1.07      0.00
    0   16   14     -0.88      0.00
    1   16   14      1.22      0.00
   -5   17   14      0.49      0.00
   -4   17   14      0.09      0.00
   -3   17   14      0.22      0.00
   -2   17   14     -1.05      0.00
   -2  -17   15     -0.07      0.00
   -1  -17   15     -0.20      0.00
    0  -17   15      0.93      0.00
    1  -17   15     -0.37      0.00
   -5  -16   15     -0.90      0.00
   -4  -16   15     -0.66      0.00
   -3  -16   15     -0.34      0.00
   -2  -16   15      2.22      0.00
   -1  -16   15      0.72      0.00
    0  -16   15     -1.03      0.00
    1  -16   15      0.83      0.00
    2  -16   15     -0.73      0.00
    3  -16   15      0.27      0.00
    4  -16   15      1.04      0.00
   -7  -15   15     -0.85      0.00
   -6  -15   15      1.41      0.00
   -5  -15   15      0.47      0.00
   -4  -15   15      0.84      0.00
   -3  -15   15     -0.40      0.00
   -2  -15   15     -1.82      0.00
   -1  -15   15      1.80      0.00
    0  -15   15      0.76      0.00
    1  -15   15     -0.08      0.00
    2  -15   15      0.31      0.00
    3  -15   15      0.18      0.00
    4  -15   15      0.84      0.00
    5  -15   15      1.62      0.00
   -8  -14   15      2.24      0.00
   -7  -14   15     -0.96      0.00
   -6  -14   15     -0.18      0.00
   -5  -14   15      0.85      0.00
   -4  -14   15      0.68      0.00
   -3  -14   15      1.50      0.00
   -2  -14   15     -0.78      0.00
   -1  -14   15     -2.47      0.00
    0  -14   15     -0.30      0.00
    1  -14   15     -0.72      0.00
    2  -14   15      0.19      0.00
    3  -14   15     -1.77      0.00
    4  -14   15     -0.26      0.00
    5  -14   15     -0.13      0.00
    6  -14   15      0.68      0.00
   -9  -13   15     -1.06      0.00
   -8  -13   15     -0.97      0.00
   -7  -13   15      1.16      0.00
   -6  -13   15     -2.17      0.00
   -5  -13   15     -0.88      0.00
   -4  -13   15     -0.79      0.00
   -3  -13   15      1.43      0.00
   -2  -13   15      3.44      0.00
   -1  -13   15      0.97      0.00
    0  -13   15      0.31      0.00
    1  -13   15     -0.31      0.00
    2  -13   15      0.55      0.00
    3  -13   15      1.24      0.00
    4  -13   15     -0.72      0.00
    5  -13   15     -0.16      0.00
    6  -13   15     -0.25      0.00
    7  -13   15      2.28      0.00
  -10  -12   15     -1.06      0.00
   -9  -12   15      1.02      0.00
   -8  -12   15      0.30      0.00
   -7  -12   15      0.25      0.00
   -6  -12   15      0.87      0.00
   -5  -12   15     -0.71      0.00
   -4  -12   15     -1.45      0.00
   -3  -12   15     -2.04      0.00
   -2  -12   15     -0.96      0.00
   -1  -12   15      0.91      0.00
    0  -12   15     -0.16      0.00
    1  -12   15      0.09      0.00
    2  -12   15     -1.47      0.00
    3  -12   15      0.54      0.00
    4  -12   15     -0.28      0.00
    5  -12   15      0.09      0.00
    6  -12   15     -0.36      0.00
    7  -12   15     -1.04      0.00
    8  -12   15      2.71      0.00
  -11  -11   15      0.37      0.00
  -10  -11   15      1.27      0.00
   -9  -11   15     -1.74      0.00
   -8  -11   15     -0.34      0.00
   -7  -11   15      0.11      0.00
   -6  -11   15     -0.02      0.00
   -5  -11   15      0.69      0.00
   -4  -11   15      1.34      0.00
   -3  -11   15     -0.76      0.00
   -2  -11   15      0.34      0.00
   -1  -11   15      0.10      0.00
    0  -11   15      0.50      0.00
    1  -11   15      0.93      0.00
    2  -11   15      0.34      0.00
    3  -11   15     -0.56      0.00
    4  -11   15      0.77      0.00
    5  -11   15     -0.43      0.00
    6  -11   15     -0.49      0.00
    7  -11   15     -0.71      0.00
    8  -11   15     -1.86      0.00
    9  -11   15     -0.26      0.00
  -11  -10   15     -0.96      0.00
  -10  -10   15     -0.64      0.00
   -9  -10   15      1.31      0.00
   -8  -10   15     -0.70      0.00
   -7  -10   15     -0.92      0.00
   -6  -10   15      0.64      0.00
   -5  -10   15     -1.57      0.00
   -4  -10   15      0.73      0.00
   -3  -10   15      1.55      0.00
   -2  -10   15     -1.28      0.00
   -1  -10   15     -0.50      0.00
    0  -10   15     -0.82      0.00
    1  -10   15     -0.70      0.00
    2  -10   15      0.48      0.00
    3  -10   15      0.41      0.00
    4  -10   15      0.29      0.00
    5  -10   15      0.69      0.00
    6  -10   15      1.39      0.00
    7  -10   15     -0.35      0.00
    8  -10   15      0.32      0.00
    9  -10   15     -0.26      0.00
  -12   -9   15      0.37      0.00
  -11   -9   15     -0.14      0.00
  -10   -9   15     -0.34      0.00
   -9   -9   15     -0.50      0.00
   -8   -9   15      0.63      0.00
   -7   -9   15     -0.55      0.00
   -6   -9   15     -1.51      0.00
   -5   -9   15     -0.16      0.00
   -4   -9   15     -3.66      0.00
   -3   -9   15     -0.79      0.00
   -2   -9   15      0.84      0.00
   -1   -9   15     -0.13      0.00
    0   -9   15     -0.20      0.00
    1   -9   15     -0.72      0.00
    2   -9   15     -0.22      0.00
    3   -9   15     -0.95      0.00
    4   -9   15     -0.32      0.00
    5   -9   15     -1.51      0.00
    6   -9   15     -0.80      0.00
    7   -9   15      1.35      0.00
    8   -9   15     -0.55      0.00
    9   -9   15     -0.24      0.00
   10   -9   15     -0.29      0.00
  -12   -8   15     -0.34      0.00
  -11   -8   15      0.37      0.00
  -10   -8   15      0.21      0.00
   -9   -8   15      0.15      0.00
   -8   -8   15      0.42      0.00
   -7   -8   15      1.44      0.00
   -6   -8   15      1.09      0.00
   -5   -8   15      1.73      0.00
   -4   -8   15      1.54      0.00
   -3   -8   15     -1.14      0.00
   -2   -8   15     -0.70      0.00
   -1   -8   15      0.24      0.00
    0   -8   15      0.20      0.00
    1   -8   15      0.71      0.00
    2   -8   15      0.32      0.00
    3   -8   15      1.40      0.00
    4   -8   15      0.23      0.00
    5   -8   15      1.31      0.00
    6   -8   15     -1.19      0.00
    7   -8   15     -1.17      0.00
    8   -8   15      0.79      0.00
    9   -8   15     -0.02      0.00
   10   -8   15     -1.04      0.00
  -13   -7   15      0.82      0.00
  -12   -7   15      0.29      0.00
  -11   -7   15     -0.60      0.00
  -10   -7   15     -0.25      0.00
   -9   -7   15     -0.80      0.00
   -8   -7   15     -0.86      0.00
   -7   -7   15     -0.88      0.00
   -6   -7   15     -0.91      0.00
   -5   -7   15     -1.52      0.00
   -4   -7   15      0.64      0.00
   -3   -7   15     -0.04      0.00
   -2   -7   15     -0.85      0.00
   -1   -7   15     -0.33      0.00
    0   -7   15     -0.44      0.00
    1   -7   15     -1.15      0.00
    2   -7   15     -0.51      0.00
    3   -7   15     -0.41      0.00
    4   -7   15     -0.43      0.00
    5   -7   15     -0.74      0.00
    6   -7   15      0.80      0.00
    7   -7   15     -0.10      0.00
    8   -7   15     -0.67      0.00
    9   -7   15      1.83      0.00
   10   -7   15      0.89      0.00
  -13   -6   15      0.64      0.00
  -12   -6   15      1.07      0.00
  -11   -6   15      0.77      0.00
  -10   -6   15      0.03      0.00
   -9   -6   15      0.92      0.00
   -8   -6   15      0.58      0.00
   -7   -6   15      0.33      0.00
   -6   -6   15      1.23      0.00
   -5   -6   15      0.62      0.00
   -4   -6   15     -0.35      0.00
   -3   -6   15      1.18      0.00
   -2   -6   15      0.88      0.00
   -1   -6   15     -0.62      0.00
    0   -6   15      1.08      0.00
    1   -6   15      0.45      0.00
    2   -6   15      0.18      0.00
    3   -6   15      0.11      0.00
    4   -6   15      1.05      0.00
    5   -6   15     -0.07      0.00
    6   -6   15     -0.76      0.00
    7   -6   15      0.56      0.00
    8   -6   15     -0.83      0.00
    9   -6   15     -2.13      0.00
   10   -6   15      1.87      0.00
  -14   -5   15     -1.55      0.00
  -13   -5   15     -1.61      0.00
  -12   -5   15      0.29      0.00
  -11   -5   15      1.36      0.00
  -10   -5   15     -0.19      0.00
   -9   -5   15     -1.83      0.00
   -8   -5   15     -0.79      0.00
   -7   -5   15     -0.42      0.00
   -6   -5   15     -1.23      0.00
   -5   -5   15      0.32      0.00
   -4   -5   15      0.37      0.00
   -3   -5   15     -0.49      0.00
   -2   -5   15      0.20      0.00
   -1   -5   15      0.38      0.00
    0   -5   15     -0.95      0.00
    1   -5   15      0.45      0.00
    2   -5   15     -0.35      0.00
    3   -5   15      0.19      0.00
    4   -5   15     -0.27      0.00
    5   -5   15      1.46      0.00
    6   -5   15      0.75      0.00
    7   -5   15     -0.68      0.00
    8   -5   15      1.79      0.00
    9   -5   15     -1.08      0.00
   10   -5   15     -1.60      0.00
   11   -5   15      1.28      0.00
  -14   -4   15      3.18      0.00
  -13   -4   15      0.83      0.00
  -12   -4   15     -1.34      0.00
  -11   -4   15     -0.74      0.00
  -10   -4   15      1.80      0.00
   -9   -4   15      0.74      0.00
   -8   -4   15     -0.29      0.00
   -7   -4   15      0.74      0.00
   -6   -4   15      0.49      0.00
   -5   -4   15     -0.65      0.00
   -4   -4   15     -0.37      0.00
   -3   -4   15      0.67      0.00
   -2   -4   15     -0.25      0.00
   -1   -4   15      0.51      0.00
    0   -4   15     -0.16      0.00
    1   -4   15      0.03      0.00
    2   -4   15      0.24      0.00
    3   -4   15     -0.35      0.00
    4   -4   15     -0.36      0.00
    5   -4   15     -1.54      0.00
    6   -4   15     -0.32      0.00
    7   -4   15     -0.43      0.00
    8   -4   15     -0.82      0.00
    9   -4   15      1.51      0.00
   10   -4   15     -2.20      0.00
   11   -4   15      0.13      0.00
  -14   -3   15     -2.63      0.00
  -13   -3   15      2.08      0.00
  -12   -3   15      1.75      0.00
  -11   -3   15     -0.41      0.00
  -10   -3   15     -1.36      0.00
   -9   -3   15      0.12      0.00
   -8   -3   15     -1.48      0.00
   -7   -3   15     -0.71      0.00
   -6   -3   15      1.43      0.00
   -5   -3   15      1.41      0.00
   -4   -3   15      0.59      0.00
   -3   -3   15     -0.84      0.00
   -2   -3   15      0.63      0.00
   -1   -3   15      0.10      0.00
    0   -3   15      0.78      0.00
    1   -3   15     -0.47      0.00
    2   -3   15      0.56      0.00
    3   -3   15      0.91      0.00
    4   -3   15      1.06      0.00
    5   -3   15      0.93      0.00
    6   -3   15      0.15      0.00
    7   -3   15      0.44      0.00
    8   -3   15     -0.90      0.00
    9   -3   15      0.43      0.00
   10   -3   15      1.62      0.00
   11   -3   15     -1.71      0.00
  -14   -2   15      0.03      0.00
  -13   -2   15     -2.38      0.00
  -12   -2   15      0.73      0.00
  -11   -2   15      0.31      0.00
  -10   -2   15     -0.25      0.00
   -9   -2   15     -0.01      0.00
   -8   -2   15      0.92      0.00
   -7   -2   15     -1.87      0.00
   -6   -2   15     -1.51      0.00
   -5   -2   15     -0.83      0.00
   -4   -2   15      0.65      0.00
   -3   -2   15      0.84      0.00
   -2   -2   15     -0.90      0.00
   -1   -2   15     -0.22      0.00
    0   -2   15      0.64      0.00
    1   -2   15      0.56      0.00
    2   -2   15     -1.16      0.00
    3   -2   15     -1.35      0.00
    4   -2   15     -0.80      0.00
    5   -2   15     -0.21      0.00
    6   -2   15      0.15      0.00
    7   -2   15      0.00      0.00
    8   -2   15      0.71      0.00
    9   -2   15     -0.37      0.00
   10   -2   15      0.77      0.00
   11   -2   15      0.51      0.00
  -15   -1   15     -2.07      0.00
  -14   -1   15      1.19      0.00
  -13   -1   15      0.95      0.00
  -12   -1   15      0.09      0.00
  -11   -1   15      1.57      0.00
  -10   -1   15     -0.11      0.00
   -9   -1   15     -0.69      0.00
   -8   -1   15      0.31      0.00
   -7   -1   15      1.09      0.00
   -6   -1   15     -0.28      0.00
   -5   -1   15      0.32      0.00
   -4   -1   15     -0.84      0.00
   -3   -1   15      0.86      0.00
   -2   -1   15      1.41      0.00
   -1   -1   15      0.24      0.00
    0   -1   15     -0.45      0.00
    1   -1   15      0.99      0.00
    2   -1   15      0.99      0.00
    3   -1   15      0.30      0.00
    4   -1   15      0.52      0.00
    5   -1   15      0.00      0.00
    6   -1   15     -0.58      0.00
    7   -1   15      0.35      0.00
    8   -1   15     -0.16      0.00
    9   -1   15     -0.38      0.00
   10   -1   15     -0.40      0.00
   11   -1   15      0.26      0.00
  -15    0   15      0.54      0.00
  -14    0   15     -2.09      0.00
  -13    0   15     -0.51      0.00
  -12    0   15     -1.00      0.00
  -11    0   15     -0.17      0.00
  -10    0   15      0.69      0.00
   -9    0   15     -0.61      0.00
   -8    0   15     -1.52      0.00
   -7    0   15     -0.07      0.00
   -6    0   15     -0.47      0.00
   -5    0   15     -0.55      0.00
   -4    0   15     -0.57      0.00
   -3    0   15     -1.41      0.00
   -2    0   15      0.06      0.00
   -1    0   15      0.53      0.00
    0    0   15     -0.47      0.00
    1    0   15     -0.81      0.00
    2    0   15      0.60      0.00
    3    0   15     -0.15      0.00
    4    0   15     -0.69      0.00
    5    0   15      1.16      0.00
    6    0   15      1.05      0.00
    7    0   15     -0.63      0.00
    8    0   15      0.28      0.00
    9    0   15      0.50      0.00
   10    0   15      0.68      0.00
   11    0   15      0.76      0.00
  -15    1   15      0.52      0.00
  -14    1   15      1.00      0.00
  -13    1   15      0.10      0.00
  -12    1   15      0.22      0.00
  -11    1   15     -1.03      0.00
  -10    1   15     -0.66      0.00
   -9    1   15      0.63      0.00
   -8    1   15      0.11      0.00
   -7    1   15     -0.67      0.00
   -6    1   15      1.21      0.00
   -5    1   15      0.04      0.00
   -4    1   15      1.10      0.00
   -3    1   15      0.19      0.00
   -2    1   15     -0.92      0.00
   -1    1   15      0.19      0.00
    0    1   15      0.99      0.00
    1    1   15     -0.52      0.00
    2    1   15     -0.85      0.00
    3    1   15      0.47      0.00
    4    1   15     -0.66      0.00
    5    1   15     -1.04      0.00
    6    1   15      0.22      0.00
    7    1   15      0.53      0.00
    8    1   15     -0.67      0.00
    9    1   15     -0.77      0.00
   10    1   15     -0.67      0.00
   11    1   15      0.15      0.00
  -15    2   15     -0.62      0.00
  -14    2   15      0.31      0.00
  -13    2   15     -0.27      0.00
  -12    2   15      0.37      0.00
  -11    2   15      0.87      0.00
  -10    2   15     -0.15      0.00
   -9    2   15     -0.99      0.00
   -8    2   15      1.13      0.00
   -7    2   15     -0.13      0.00
   -6    2   15     -0.58      0.00
   -5    2   15      0.64      0.00
   -4    2   15     -0.67      0.00
   -3    2   15      0.34      0.00
   -2    2   15      0.63      0.00
   -1    2   15     -0.12      0.00
    0    2   15      0.26      0.00
    1    2   15      1.46      0.00
    2    2   15      1.01      0.00
    3    2   15      1.05      0.00
    4    2   15      1.42      0.00
    5    2   15     -0.20      0.00
    6    2   15     -0.52      0.00
    7    2   15      0.32      0.00
    8    2   15      0.79      0.00
    9    2   15      1.01      0.00
   10    2   15      0.16      0.00
   11    2   15     -0.17      0.00
  -15    3   15     -1.39      0.00
  -14    3   15     -1.15      0.00
  -13    3   15     -0.05      0.00
  -12    3   15     -0.78      0.00
  -11    3   15     -1.09      0.00
  -10    3   15      0.63      0.00
   -9    3   15      0.13      0.00
   -8    3   15     -0.55      0.00
   -7    3   15      1.43      0.00
   -6    3   15     -0.28      0.00
   -5    3   15      0.13      0.00
   -4    3   15     -0.30      0.00
   -3    3   15     -0.18      0.00
   -2    3   15     -0.36      0.00
   -1    3   15     -0.25      0.00
    0    3   15     -0.88      0.00
    1    3   15     -2.31      0.00
    2    3   15     -1.27      0.00
    3    3   15     -0.95      0.00
    4    3   15     -0.04      0.00
    5    3   15      0.66      0.00
    6    3   15      0.75      0.00
    7    3   15      0.31      0.00
    8    3   15      0.01      0.00
    9    3   15     -0.13      0.00
   10    3   15      1.11      0.00
  -15    4   15      0.91      0.00
  -14    4   15     -0.65      0.00
  -13    4   15     -0.27      0.00
  -12    4   15      1.54      0.00
  -11    4   15      1.76      0.00
  -10    4   15     -0.68      0.00
   -9    4   15     -0.28      0.00
   -8    4   15     -1.04      0.00
   -7    4   15     -0.08      0.00
   -6    4   15      0.02      0.00
   -5    4   15     -0.66      0.00
   -4    4   15      1.33      0.00
   -3    4   15     -0.32      0.00
   -2    4   15      0.66      0.00
   -1    4   15      0.28      0.00
    0    4   15      1.75      0.00
    1    4   15      2.12      0.00
    2    4   15     -1.15      0.00
    3    4   15     -0.67      0.00
    4    4   15     -0.56      0.00
    5    4   15     -0.25      0.00
    6    4   15     -0.39      0.00
    7    4   15     -0.08      0.00
    8    4   15      1.27      0.00
    9    4   15      0.55      0.00
   10    4   15     -0.15      0.00
  -14    5   15     -0.37      0.00
  -13    5   15      0.76      0.00
  -12    5   15     -1.10      0.00
  -11    5   15      0.82      0.00
  -10    5   15      2.24      0.00
   -9    5   15      0.87      0.00
   -8    5   15     -0.02      0.00
   -7    5   15     -0.95      0.00
   -6    5   15      1.04      0.00
   -5    5   15     -0.47      0.00
   -4    5   15     -1.12      0.00
   -3    5   15     -0.18      0.00
   -2    5   15     -0.65      0.00
   -1    5   15      0.01      0.00
    0    5   15     -2.31      0.00
    1    5   15     -0.06      0.00
    2    5   15      1.86      0.00
    3    5   15      0.47      0.00
    4    5   15      0.77      0.00
    5    5   15      0.30      0.00
    6    5   15      0.06      0.00
    7    5   15      0.36      0.00
    8    5   15     -0.82      0.00
    9    5   15      0.70      0.00
   10    5   15     -0.09      0.00
  -14    6   15     -0.96      0.00
  -13    6   15     -1.84      0.00
  -12    6   15      1.81      0.00
  -11    6   15     -1.06      0.00
  -10    6   15     -0.54      0.00
   -9    6   15      0.66      0.00
   -8    6   15      0.40      0.00
   -7    6   15      0.29      0.00
   -6    6   15     -0.13      0.00
   -5    6   15      0.67      0.00
   -4    6   15      0.00      0.00
   -3    6   15      0.57      0.00
   -2    6   15     -0.62      0.00
   -1    6   15     -0.15      0.00
    0    6   15      0.31      0.00
    1    6   15     -1.35      0.00
    2    6   15     -0.47      0.00
    3    6   15     -0.57      0.00
    4    6   15     -0.28      0.00
    5    6   15      0.51      0.00
    6    6   15      0.60      0.00
    7    6   15     -0.30      0.00
    8    6   15     -0.20      0.00
    9    6   15      0.43      0.00
  -14    7   15      1.36      0.00
  -13    7   15     -2.04      0.00
  -12    7   15     -1.74      0.00
  -11    7   15      0.97      0.00
  -10    7   15      0.08      0.00
   -9    7   15     -0.38      0.00
   -8    7   15      0.56      0.00
   -7    7   15     -0.71      0.00
   -6    7   15      0.09      0.00
   -5    7   15      0.57      0.00
   -4    7   15      0.25      0.00
   -3    7   15     -0.59      0.00
   -2    7   15     -0.20      0.00
   -1    7   15     -0.02      0.00
    0    7   15      1.33      0.00
    1    7   15     -0.30      0.00
    2    7   15      0.46      0.00
    3    7   15      0.73      0.00
    4    7   15      0.10      0.00
    5    7   15      0.01      0.00
    6    7   15     -0.73      0.00
    7    7   15      0.04      0.00
    8    7   15     -0.21      0.00
    9    7   15     -2.36      0.00
  -14    8   15     -0.89      0.00
  -13    8   15      2.69      0.00
  -12    8   15     -0.80      0.00
  -11    8   15      1.14      0.00
  -10    8   15      0.58      0.00
   -9    8   15      0.37      0.00
   -8    8   15      0.05      0.00
   -7    8   15      1.20      0.00
   -6    8   15     -0.11      0.00
   -5    8   15      0.01      0.00
   -4    8   15      0.19      0.00
   -3    8   15      0.83      0.00
   -2    8   15      0.60      0.00
   -1    8   15     -1.79      0.00
    0    8   15     -1.26      0.00
    1    8   15      0.75      0.00
    2    8   15     -1.06      0.00
    3    8   15      0.65      0.00
    4    8   15     -0.16      0.00
    5    8   15     -0.27      0.00
    6    8   15      1.33      0.00
    7    8   15      0.68      0.00
    8    8   15      1.33      0.00
  -13    9   15     -0.29      0.00
  -12    9   15     -0.04      0.00
  -11    9   15     -1.15      0.00
  -10    9   15      0.67      0.00
   -9    9   15     -0.36      0.00
   -8    9   15     -1.41      0.00
   -7    9   15     -0.87      0.00
   -6    9   15      0.52      0.00
   -5    9   15      0.67      0.00
   -4    9   15     -0.27      0.00
   -3    9   15     -0.35      0.00
   -2    9   15      0.09      0.00
   -1    9   15      1.39      0.00
    0    9   15     -0.38      0.00
    1    9   15     -0.50      0.00
    2    9   15      0.06      0.00
    3    9   15     -1.14      0.00
    4    9   15      0.55      0.00
    5    9   15      0.83      0.00
    6    9   15     -1.39      0.00
    7    9   15      0.02      0.00
    8    9   15     -0.36      0.00
  -13   10   15     -0.90      0.00
  -12   10   15      1.89      0.00
  -11   10   15     -1.58      0.00
  -10   10   15     -0.09      0.00
   -9   10   15      0.36      0.00
   -8   10   15      0.43      0.00
   -7   10   15     -1.12      0.00
   -6   10   15     -1.08      0.00
   -5   10   15      0.60      0.00
   -4   10   15      1.71      0.00
   -3   10   15     -0.15      0.00
   -2   10   15      0.09      0.00
   -1   10   15     -0.73      0.00
    0   10   15     -0.12      0.00
    1   10   15     -0.09      0.00
    2   10   15     -0.27      0.00
    3   10   15      0.93      0.00
    4   10   15     -0.77      0.00
    5   10   15     -0.15      0.00
    6   10   15      1.87      0.00
    7   10   15     -0.65      0.00
  -12   11   15      0.34      0.00
  -11   11   15      2.14      0.00
  -10   11   15     -2.17      0.00
   -9   11   15     -0.56      0.00
   -8   11   15      0.17      0.00
   -7   11   15      0.71      0.00
   -6   11   15     -0.12      0.00
   -5   11   15     -0.98      0.00
   -4   11   15      0.16      0.00
   -3   11   15      0.78      0.00
   -2   11   15      0.00      0.00
   -1   11   15      0.66      0.00
    0   11   15     -0.26      0.00
    1   11   15     -0.57      0.00
    2   11   15      0.04      0.00
    3   11   15     -0.87      0.00
    4   11   15      1.70      0.00
    5   11   15     -1.18      0.00
    6   11   15      0.00      0.00
    7   11   15      0.79      0.00
  -12   12   15     -2.60      0.00
  -11   12   15      0.46      0.00
  -10   12   15      1.71      0.00
   -9   12   15     -1.38      0.00
   -8   12   15     -2.22      0.00
   -7   12   15     -0.33      0.00
   -6   12   15      0.61      0.00
   -5   12   15     -0.71      0.00
   -4   12   15     -0.81      0.00
   -3   12   15      0.37      0.00
   -2   12   15     -0.64      0.00
   -1   12   15     -0.78      0.00
    0   12   15      0.17      0.00
    1   12   15      0.49      0.00
    2   12   15     -0.04      0.00
    3   12   15     -0.67      0.00
    4   12   15     -0.88      0.00
    5   12   15      1.76      0.00
    6   12   15     -1.86      0.00
  -11   13   15     -0.36      0.00
  -10   13   15     -0.40      0.00
   -9   13   15      1.67      0.00
   -8   13   15      0.81      0.00
   -7   13   15     -2.04      0.00
   -6   13   15     -0.53      0.00
   -5   13   15      2.04      0.00
   -4   13   15     -0.58      0.00
   -3   13   15     -0.88      0.00
   -2   13   15      0.80      0.00
   -1   13   15      0.62      0.00
    0   13   15     -0.17      0.00
    1   13   15     -0.35      0.00
    2   13   15      0.08      0.00
    3   13   15      0.74      0.00
    4   13   15     -1.53      0.00
    5   13   15     -0.12      0.00
  -10   14   15      0.65      0.00
   -9   14   15     -1.97      0.00
   -8   14   15     -0.45      0.00
   -7   14   15      0.70      0.00
   -6   14   15     -1.63      0.00
   -5   14   15     -1.36      0.00
   -4   14   15      1.49      0.00
   -3   14   15      0.12      0.00
   -2   14   15     -0.40      0.00
   -1   14   15     -0.08      0.00
    0   14   15      0.55      0.00
    1   14   15      0.03      0.00
    2   14   15      0.19      0.00
    3   14   15     -0.49      0.00
    4   14   15      0.77      0.00
   -9   15   15      1.21      0.00
   -8   15   15     -0.35      0.00
   -7   15   15     -0.66      0.00
   -6   15   15      0.04      0.00
   -5   15   15     -1.15      0.00
   -4   15   15     -0.58      0.00
   -3   15   15     -0.12      0.00
   -2   15   15     -0.02      0.00
   -1   15   15      0.08      0.00
    0   15   15      0.30      0.00
    1   15   15      0.70      0.00
    2   15   15      0.06      0.00
   -7   16   15      0.36      0.00
   -6   16   15      0.64      0.00
   -5   16   15      0.16      0.00
   -4   16   15     -0.69      0.00
   -3   16   15      0.07      0.00
   -2   16   15     -1.86      0.00
   -1   16   15     -0.37      0.00
    0   16   15     -0.86      0.00
   -4  -16   16      1.47      0.00
   -3  -16   16      0.04      0.00
   -2  -16   16     -1.67      0.00
   -1  -16   16      2.13      0.00
    0  -16   16      0.51      0.00
    1  -16   16     -0.67      0.00
    2  -16   16      0.35      0.00
    3  -16   16     -0.81      0.00
   -6  -15   16     -0.62      0.00
   -5  -15   16      0.82      0.00
   -4  -15   16     -0.30      0.00
   -3  -15   16      2.93      0.00
   -2  -15   16      1.28      0.00
   -1  -15   16     -1.83      0.00
    0  -15   16      0.84      0.00
    1  -15   16     -0.36      0.00
    2  -15   16     -0.01      0.00
    3  -15   16     -0.30      0.00
    4  -15   16     -0.12      0.00
   -7  -14   16      2.15      0.00
   -6  -14   16     -2.20      0.00
   -5  -14   16     -0.49      0.00
   -4  -14   16     -0.89      0.00
   -3  -14   16     -1.68      0.00
   -2  -14   16      2.28      0.00
   -1  -14   16      0.76      0.00
    0  -14   16     -0.27      0.00
    1  -14   16      0.13      0.00
    2  -14   16      0.60      0.00
    3  -14   16      0.75      0.00
    4  -14   16     -1.33      0.00
    5  -14   16     -1.07      0.00
    6  -14   16      0.52      0.00
   -9  -13   16      0.77      0.00
   -8  -13   16     -1.40      0.00
   -7  -13   16     -0.11      0.00
   -6  -13   16      1.17      0.00
   -5  -13   16     -0.87      0.00
   -4  -13   16      1.18      0.00
   -3  -13   16      0.45      0.00
   -2  -13   16     -0.88      0.00
   -1  -13   16      2.06      0.00
    0  -13   16      0.37      0.00
    1  -13   16      0.28      0.00
    2  -13   16     -1.29      0.00
    3  -13   16      1.59      0.00
    4  -13   16      1.53      0.00
    5  -13   16      0.77      0.00
    6  -13   16     -1.35      0.00
    7  -13   16     -1.09      0.00
   -9  -12   16     -1.46      0.00
   -8  -12   16      0.72      0.00
   -7  -12   16     -0.11      0.00
   -6  -12   16      0.41      0.00
   -5  -12   16     -0.06      0.00
   -4  -12   16     -1.45      0.00
   -3  -12   16     -1.04      0.00
   -2  -12   16     -0.42      0.00
   -1  -12   16     -1.98      0.00
    0  -12   16     -0.52      0.00
    1  -12   16      0.48      0.00
    2  -12   16      0.07      0.00
    3  -12   16     -1.50      0.00
    4  -12   16      0.48      0.00
    5  -12   16     -0.63      0.00
    6  -12   16      0.23      0.00
    7  -12   16     -0.75      0.00
    8  -12   16     -1.66      0.00
  -10  -11   16     -0.29      0.00
   -9  -11   16      1.75      0.00
   -8  -11   16     -1.18      0.00
   -7  -11   16     -1.40      0.00
   -6  -11   16      0.39      0.00
   -5  -11   16     -0.42      0.00
   -4  -11   16      1.73      0.00
   -3  -11   16      0.83      0.00
   -2  -11   16     -0.38      0.00
   -1  -11   16      0.67      0.00
    0  -11   16     -0.42      0.00
    1  -11   16     -1.03      0.00
    2  -11   16      0.97      0.00
    3  -11   16      0.38      0.00
    4  -11   16      0.13      0.00
    5  -11   16      1.30      0.00
    6  -11   16      0.90      0.00
    7  -11   16     -0.47      0.00
    8  -11   16     -0.18      0.00
  -11  -10   16      0.62      0.00
  -10  -10   16     -0.50      0.00
   -9  -10   16     -0.78      0.00
   -8  -10   16      1.88      0.00
   -7  -10   16      0.20      0.00
   -6  -10   16     -1.81      0.00
   -5  -10   16     -0.09      0.00
   -4  -10   16     -3.47      0.00
   -3  -10   16     -0.02      0.00
   -2  -10   16      0.56      0.00
   -1  -10   16     -0.37      0.00
    0  -10   16     -0.52      0.00
    1  -10   16     -0.75      0.00
    2  -10   16     -0.63      0.00
    3  -10   16     -0.38      0.00
    4  -10   16     -0.35      0.00
    5  -10   16     -2.13      0.00
    6  -10   16     -0.56      0.00
    7  -10   16      1.88      0.00
    8  -10   16     -0.40      0.00
    9  -10   16      0.54      0.00
  -12   -9   16     -0.06      0.00
  -11   -9   16     -0.44      0.00
  -10   -9   16      0.01      0.00
   -9   -9   16      0.25      0.00
   -8   -9   16     -0.85      0.00
   -7   -9   16      1.66      0.00
   -6   -9   16      1.24      0.00
   -5   -9   16      1.04      0.00
   -4   -9   16      1.21      0.00
   -3   -9   16     -1.87      0.00
   -2   -9   16     -1.22      0.00
   -1   -9   16      0.41      0.00
    0   -9   16      1.45      0.00
    1   -9   16      0.58      0.00
    2   -9   16     -0.22      0.00
    3   -9   16      0.86      0.00
    4   -9   16      0.33      0.00
    5   -9   16      2.05      0.00
    6   -9   16     -1.94      0.00
    7   -9   16     -1.34      0.00
    8   -9   16      1.48      0.00
    9   -9   16     -0.32      0.00
  -12   -8   16     -0.28      0.00
  -11   -8   16      0.15      0.00
  -10   -8   16     -0.24      0.00
   -9   -8   16     -0.93      0.00
   -8   -8   16      0.08      0.00
   -7   -8   16     -1.37      0.00
   -6   -8   16     -0.39      0.00
   -5   -8   16     -0.14      0.00
   -4   -8   16      2.03      0.00
   -3   -8   16      1.59      0.00
   -2   -8   16      0.91      0.00
   -1   -8   16     -0.68      0.00
    0   -8   16     -1.35      0.00
    1   -8   16     -0.13      0.00
    2   -8   16     -0.11      0.00
    3   -8   16     -0.17      0.00
    4   -8   16     -0.11      0.00
    5   -8   16     -0.33      0.00
    6   -8   16      1.98      0.00
    7   -8   16     -0.65      0.00
    8   -8   16     -1.17      0.00
    9   -8   16      1.10      0.00
  -13   -7   16      0.37      0.00
  -12   -7   16      0.59      0.00
  -11   -7   16     -0.30      0.00
  -10   -7   16     -0.02      0.00
   -9   -7   16      0.07      0.00
   -8   -7   16     -0.62      0.00
   -7   -7   16      0.43      0.00
   -6   -7   16     -0.11      0.00
   -5   -7   16     -1.63      0.00
   -4   -7   16     -1.92      0.00
   -3   -7   16     -0.56      0.00
   -2   -7   16     -0.60      0.00
   -1   -7   16      0.02      0.00
    0   -7   16      1.49      0.00
    1   -7   16      0.02      0.00
    2   -7   16      0.19      0.00
    3   -7   16     -0.41      0.00
    4   -7   16      0.41      0.00
    5   -7   16     -0.31      0.00
    6   -7   16     -0.43      0.00
    7   -7   16      1.03      0.00
    8   -7   16     -0.40      0.00
    9   -7   16     -1.34      0.00
   10   -7   16      1.25      0.00
  -13   -6   16     -0.79      0.00
  -12   -6   16      0.65      0.00
  -11   -6   16      1.38      0.00
  -10   -6   16      0.00      0.00
   -9   -6   16     -0.04      0.00
   -8   -6   16      0.01      0.00
   -7   -6   16      0.37      0.00
   -6   -6   16      0.69      0.00
   -5   -6   16      1.68      0.00
   -4   -6   16      0.65      0.00
   -3   -6   16      0.40      0.00
   -2   -6   16      0.53      0.00
   -1   -6   16     -0.36      0.00
    0   -6   16     -1.43      0.00
    1   -6   16      0.47      0.00
    2   -6   16     -0.09      0.00
    3   -6   16      0.57      0.00
    4   -6   16     -0.10      0.00
    5   -6   16      0.97      0.00
    6   -6   16      0.10      0.00
    7   -6   16     -0.78      0.00
    8   -6   16      1.21      0.00
    9   -6   16     -1.38      0.00
   10   -6   16     -1.92      0.00
  -13   -5   16      0.49      0.00
  -12   -5   16     -1.57      0.00
  -11   -5   16     -1.20      0.00
  -10   -5   16      0.56      0.00
   -9   -5   16     -0.56      0.00
   -8   -5   16     -0.90      0.00
   -7   -5   16     -0.68      0.00
   -6   -5   16      0.16      0.00
   -5   -5   16     -0.33      0.00
   -4   -5   16     -0.57      0.00
   -3   -5   16     -0.32      0.00
   -2   -5   16     -0.66      0.00
   -1   -5   16      1.03      0.00
    0   -5   16      0.37      0.00
    1   -5   16      0.40      0.00
    2   -5   16      0.13      0.00
    3   -5   16     -0.19      0.00
    4   -5   16     -0.40      0.00
    5   -5   16     -1.57      0.00
    6   -5   16      0.01      0.00
    7   -5   16     -0.14      0.00
    8   -5   16     -0.23      0.00
    9   -5   16      2.18      0.00
   10   -5   16     -1.51      0.00
  -14   -4   16     -1.63      0.00
  -13   -4   16      2.66      0.00
  -12   -4   16      2.60      0.00
  -11   -4   16      0.07      0.00
  -10   -4   16     -0.84      0.00
   -9   -4   16      1.12      0.00
   -8   -4   16      0.13      0.00
   -7   -4   16     -0.43      0.00
   -6   -4   16      0.31      0.00
   -5   -4   16      1.00      0.00
   -4   -4   16      0.85      0.00
   -3   -4   16     -0.21      0.00
   -2   -4   16      0.42      0.00
   -1   -4   16     -0.97      0.00
    0   -4   16      0.30      0.00
    1   -4   16     -0.53      0.00
    2   -4   16      0.60      0.00
    3   -4   16     -0.25      0.00
    4   -4   16      0.84      0.00
    5   -4   16      1.02      0.00
    6   -4   16     -0.25      0.00
    7   -4   16      0.14      0.00
    8   -4   16     -1.44      0.00
    9   -4   16      0.73      0.00
   10   -4   16      1.94      0.00
  -14   -3   16     -0.58      0.00
  -13   -3   16     -2.73      0.00
  -12   -3   16      0.55      0.00
  -11   -3   16      1.11      0.00
  -10   -3   16     -0.77      0.00
   -9   -3   16     -1.62      0.00
   -8   -3   16      0.51      0.00
   -7   -3   16     -0.75      0.00
   -6   -3   16     -1.23      0.00
   -5   -3   16     -0.45      0.00
   -4   -3   16      0.88      0.00
   -3   -3   16      0.70      0.00
   -2   -3   16      0.05      0.00
   -1   -3   16      0.51      0.00
    0   -3   16      0.36      0.00
    1   -3   16      0.38      0.00
    2   -3   16     -0.05      0.00
    3   -3   16     -0.03      0.00
    4   -3   16     -0.87      0.00
    5   -3   16     -0.02      0.00
    6   -3   16      0.30      0.00
    7   -3   16      0.48      0.00
    8   -3   16      0.62      0.00
    9   -3   16     -1.59      0.00
   10   -3   16      0.68      0.00
  -14   -2   16      2.73      0.00
  -13   -2   16      1.40      0.00
  -12   -2   16     -0.50      0.00
  -11   -2   16      1.07      0.00
  -10   -2   16      1.04      0.00
   -9   -2   16     -0.03      0.00
   -8   -2   16     -0.64      0.00
   -7   -2   16      1.01      0.00
   -6   -2   16     -0.08      0.00
   -5   -2   16     -0.47      0.00
   -4   -2   16     -1.09      0.00
   -3   -2   16      0.43      0.00
   -2   -2   16      0.42      0.00
   -1   -2   16      0.13      0.00
    0   -2   16     -0.75      0.00
    1   -2   16      0.14      0.00
    2   -2   16     -0.04      0.00
    3   -2   16      0.25      0.00
    4   -2   16      0.09      0.00
    5   -2   16     -0.64      0.00
    6   -2   16     -0.45      0.00
    7   -2   16      0.00      0.00
    8   -2   16      0.03      0.00
    9   -2   16     -0.58      0.00
   10   -2   16     -0.21      0.00
  -14   -1   16     -2.82      0.00
  -13   -1   16      0.71      0.00
  -12   -1   16     -0.56      0.00
  -11   -1   16     -0.65      0.00
  -10   -1   16     -0.38      0.00
   -9   -1   16     -0.72      0.00
   -8   -1   16     -0.71      0.00
   -7   -1   16     -0.25      0.00
   -6   -1   16      0.40      0.00
   -5   -1   16      0.29      0.00
   -4   -1   16      0.26      0.00
   -3   -1   16     -0.26      0.00
   -2   -1   16      0.12      0.00
   -1   -1   16      0.32      0.00
    0   -1   16      0.29      0.00
    1   -1   16     -0.41      0.00
    2   -1   16      0.77      0.00
    3   -1   16      0.44      0.00
    4   -1   16      0.33      0.00
    5   -1   16      1.51      0.00
    6   -1   16      0.53      0.00
    7   -1   16     -0.83      0.00
    8   -1   16      0.15      0.00
    9   -1   16      0.28      0.00
   10   -1   16     -1.05      0.00
  -14    0   16      0.91      0.00
  -13    0   16     -0.37      0.00
  -12    0   16      0.86      0.00
  -11    0   16     -1.20      0.00
  -10    0   16     -0.47      0.00
   -9    0   16      0.05      0.00
   -8    0   16     -0.26      0.00
   -7    0   16     -0.30      0.00
   -6    0   16      0.72      0.00
   -5    0   16      0.02      0.00
   -4    0   16      0.38      0.00
   -3    0   16     -0.17      0.00
   -2    0   16      0.08      0.00
   -1    0   16      0.45      0.00
    0    0   16      0.95      0.00
    1    0   16     -0.04      0.00
    2    0   16     -0.76      0.00
    3    0   16      0.40      0.00
    4    0   16     -0.64      0.00
    5    0   16     -1.36      0.00
    6    0   16      0.64      0.00
    7    0   16      0.85      0.00
    8    0   16      0.10      0.00
    9    0   16      0.32      0.00
   10    0   16      0.17      0.00
  -14    1   16     -0.10      0.00
  -13    1   16     -0.42      0.00
  -12    1   16      1.09      0.00
  -11    1   16      1.88      0.00
  -10    1   16     -0.02      0.00
   -9    1   16     -0.47      0.00
   -8    1   16      0.88      0.00
   -7    1   16     -0.20      0.00
   -6    1   16     -0.55      0.00
   -5    1   16      0.61      0.00
   -4    1   16     -0.34      0.00
   -3    1   16      0.31      0.00
   -2    1   16      0.23      0.00
   -1    1   16     -0.48      0.00
    0    1   16     -0.57      0.00
    1    1   16      0.36      0.00
    2    1   16      0.05      0.00
    3    1   16      0.44      0.00
    4    1   16      1.53      0.00
    5    1   16     -0.16      0.00
    6    1   16     -0.78      0.00
    7    1   16      0.25      0.00
    8    1   16      0.03      0.00
    9    1   16      0.94      0.00
   10    1   16      0.59      0.00
  -14    2   16     -0.81      0.00
  -13    2   16     -0.28      0.00
  -12    2   16     -1.97      0.00
  -11    2   16     -0.57      0.00
  -10    2   16      1.24      0.00
   -9    2   16     -0.03      0.00
   -8    2   16     -0.96      0.00
   -7    2   16      1.38      0.00
   -6    2   16     -0.31      0.00
   -5    2   16     -0.63      0.00
   -4    2   16      0.13      0.00
   -3    2   16      0.01      0.00
   -2    2   16      0.06      0.00
   -1    2   16      0.93      0.00
    0    2   16      0.45      0.00
    1    2   16     -0.67      0.00
    2    2   16     -0.61      0.00
    3    2   16     -1.21      0.00
    4    2   16     -0.03      0.00
    5    2   16      1.39      0.00
    6    2   16      0.85      0.00
    7    2   16      0.75      0.00
    8    2   16      0.77      0.00
    9    2   16      0.04      0.00
   10    2   16      0.85      0.00
  -14    3   16     -0.91      0.00
  -13    3   16      0.98      0.00
  -12    3   16      2.44      0.00
  -11    3   16      0.06      0.00
  -10    3   16     -0.96      0.00
   -9    3   16      0.44      0.00
   -8    3   16     -1.06      0.00
   -7    3   16     -0.91      0.00
   -6    3   16      0.33      0.00
   -5    3   16     -0.53      0.00
   -4    3   16     -0.01      0.00
   -3    3   16     -0.52      0.00
   -2    3   16     -0.26      0.00
   -1    3   16     -1.02      0.00
    0    3   16      0.09      0.00
    1    3   16      0.75      0.00
    2    3   16     -0.91      0.00
    3    3   16     -0.24      0.00
    4    3   16     -0.23      0.00
    5    3   16     -0.69      0.00
    6    3   16     -0.89      0.00
    7    3   16     -0.86      0.00
    8    3   16      0.60      0.00
    9    3   16     -0.08      0.00
   10    3   16      0.20      0.00
  -14    4   16     -0.08      0.00
  -13    4   16     -1.36      0.00
  -12    4   16     -0.74      0.00
  -11    4   16      2.31      0.00
  -10    4   16      1.28      0.00
   -9    4   16      0.94      0.00
   -8    4   16      1.15      0.00
   -7    4   16     -0.52      0.00
   -6    4   16      1.41      0.00
   -5    4   16     -0.11      0.00
   -4    4   16     -0.93      0.00
   -3    4   16      0.02      0.00
   -2    4   16      0.44      0.00
   -1    4   16      0.98      0.00
    0    4   16     -1.31      0.00
    1    4   16      0.51      0.00
    2    4   16      2.37      0.00
    3    4   16      0.38      0.00
    4    4   16      0.48      0.00
    5    4   16      1.53      0.00
    6    4   16      0.89      0.00
    7    4   16      0.54      0.00
    8    4   16     -0.92      0.00
    9    4   16      0.61      0.00
   10    4   16     -0.54      0.00
  -14    5   16     -0.30      0.00
  -13    5   16     -0.72      0.00
  -12    5   16     -0.84      0.00
  -11    5   16     -2.20      0.00
  -10    5   16     -0.18      0.00
   -9    5   16     -0.59      0.00
   -8    5   16      0.72      0.00
   -7    5   16      0.48      0.00
   -6    5   16     -0.90      0.00
   -5    5   16      1.14      0.00
   -4    5   16      0.00      0.00
   -3    5   16     -0.44      0.00
   -2    5   16     -1.91      0.00
   -1    5   16     -0.69      0.00
    0    5   16      0.66      0.00
    1    5   16     -2.31      0.00
    2    5   16     -1.26      0.00
    3    5   16      0.04      0.00
    4    5   16     -0.63      0.00
    5    5   16     -0.26      0.00
    6    5   16      0.17      0.00
    7    5   16     -0.85      0.00
    8    5   16     -0.23      0.00
    9    5   16      0.12      0.00
  -14    6   16      0.83      0.00
  -13    6   16     -0.14      0.00
  -12    6   16      1.18      0.00
  -11    6   16      1.27      0.00
  -10    6   16      0.58      0.00
   -9    6   16      0.48      0.00
   -8    6   16     -0.01      0.00
   -7    6   16      0.50      0.00
   -6    6   16      0.69      0.00
   -5    6   16      0.51      0.00
   -4    6   16      0.17      0.00
   -3    6   16      0.08      0.00
   -2    6   16      1.08      0.00
   -1    6   16     -0.04      0.00
    0    6   16      0.84      0.00
    1    6   16      0.91      0.00
    2    6   16     -0.13      0.00
    3    6   16     -0.02      0.00
    4    6   16      0.29      0.00
    5    6   16     -0.46      0.00
    6    6   16      0.40      0.00
    7    6   16      1.78      0.00
    8    6   16      0.85      0.00
    9    6   16     -1.37      0.00
  -14    7   16     -1.40      0.00
  -13    7   16      0.77      0.00
  -12    7   16     -1.13      0.00
  -11    7   16      1.03      0.00
  -10    7   16     -0.47      0.00
   -9    7   16     -0.18      0.00
   -8    7   16     -0.35      0.00
   -7    7   16      0.02      0.00
   -6    7   16     -0.24      0.00
   -5    7   16      0.06      0.00
   -4    7   16      0.90      0.00
   -3    7   16      0.21      0.00
   -2    7   16      0.07      0.00
   -1    7   16     -1.35      0.00
    0    7   16     -0.85      0.00
    1    7   16      0.52      0.00
    2    7   16     -0.03      0.00
    3    7   16      0.98      0.00
    4    7   16     -0.20      0.00
    5    7   16      0.40      0.00
    6    7   16      0.01      0.00
    7    7   16     -0.84      0.00
    8    7   16      0.88      0.00
  -13    8   16      1.34      0.00
  -12    8   16      0.38      0.00
  -11    8   16     -0.53      0.00
  -10    8   16      1.23      0.00
   -9    8   16     -0.42      0.00
   -8    8   16     -0.84      0.00
   -7    8   16     -0.09      0.00
   -6    8   16      0.46      0.00
   -5    8   16      0.14      0.00
   -4    8   16     -0.27      0.00
   -3    8   16     -0.10      0.00
   -2    8   16      0.00      0.00
   -1    8   16      1.29      0.00
    0    8   16     -1.00      0.00
    1    8   16     -0.60      0.00
    2    8   16     -1.06      0.00
    3    8   16     -1.41      0.00
    4    8   16      1.09      0.00
    5    8   16      0.40      0.00
    6    8   16      0.16      0.00
    7    8   16      0.96      0.00
    8    8   16     -0.07      0.00
  -13    9   16     -2.65      0.00
  -12    9   16      2.03      0.00
  -11    9   16     -1.35      0.00
  -10    9   16     -0.72      0.00
   -9    9   16      0.20      0.00
   -8    9   16     -0.08      0.00
   -7    9   16     -1.17      0.00
   -6    9   16     -0.18      0.00
   -5    9   16      1.49      0.00
   -4    9   16      1.29      0.00
   -3    9   16     -0.13      0.00
   -2    9   16     -0.02      0.00
   -1    9   16     -0.30      0.00
    0    9   16      0.17      0.00
    1    9   16      0.01      0.00
    2    9   16      1.32      0.00
    3    9   16      0.86      0.00
    4    9   16     -0.86      0.00
    5    9   16      0.12      0.00
    6    9   16      0.29      0.00
    7    9   16     -1.16      0.00
  -13   10   16     -0.52      0.00
  -12   10   16      0.14      0.00
  -11   10   16      2.64      0.00
  -10   10   16     -1.08      0.00
   -9   10   16     -0.57      0.00
   -8   10   16      0.17      0.00
   -7   10   16      0.45      0.00
   -6   10   16     -0.72      0.00
   -5   10   16     -1.84      0.00
   -4   10   16      0.47      0.00
   -3   10   16      0.63      0.00
   -2   10   16     -0.81      0.00
   -1   10   16      0.02      0.00
    0   10   16      0.14      0.00
    1   10   16     -1.09      0.00
    2   10   16     -0.97      0.00
    3   10   16     -0.61      0.00
    4   10   16      1.01      0.00
    5   10   16     -0.77      0.00
    6   10   16      1.13      0.00
    7   10   16      1.38      0.00
  -12   11   16     -3.16      0.00
  -11   11   16      0.77      0.00
  -10   11   16      1.72      0.00
   -9   11   16     -0.75      0.00
   -8   11   16     -1.40      0.00
   -7   11   16      0.36      0.00
   -6   11   16      1.33      0.00
   -5   11   16      0.64      0.00
   -4   11   16     -0.66      0.00
   -3   11   16      0.98      0.00
   -2   11   16      0.49      0.00
   -1   11   16     -0.52      0.00
    0   11   16      0.38      0.00
    1   11   16      1.21      0.00
    2   11   16      0.05      0.00
    3   11   16     -0.90      0.00
    4   11   16     -0.32      0.00
    5   11   16      0.91      0.00
    6   11   16     -2.54      0.00
  -11   12   16     -2.08      0.00
  -10   12   16     -0.71      0.00
   -9   12   16      0.42      0.00
   -8   12   16     -0.56      0.00
   -7   12   16     -2.73      0.00
   -6   12   16     -0.74      0.00
   -5   12   16      1.36      0.00
   -4   12   16     -0.68      0.00
   -3   12   16     -1.19      0.00
   -2   12   16      0.47      0.00
   -1   12   16      0.66      0.00
    0   12   16     -0.54      0.00
    1   12   16     -0.85      0.00
    2   12   16      0.39      0.00
    3   12   16      0.79      0.00
    4   12   16     -2.44      0.00
    5   12   16      0.80      0.00
  -10   13   16      0.78      0.00
   -9   13   16     -0.67      0.00
   -8   13   16      0.45      0.00
   -7   13   16      1.08      0.00
   -6   13   16     -1.64      0.00
   -5   13   16     -0.54      0.00
   -4   13   16      2.65      0.00
   -3   13   16      0.86      0.00
   -2   13   16     -0.18      0.00
   -1   13   16     -0.24      0.00
    0   13   16      0.86      0.00
    1   13   16      0.67      0.00
    2   13   16     -0.44      0.00
    3   13   16      0.22      0.00
    4   13   16      1.84      0.00
   -9   14   16      0.27      0.00
   -8   14   16     -0.73      0.00
   -7   14   16     -0.46      0.00
   -6   14   16      0.14      0.00
   -5   14   16     -1.95      0.00
   -4   14   16     -1.42      0.00
   -3   14   16     -0.47      0.00
   -2   14   16     -0.69      0.00
   -1   14   16     -0.51      0.00
    0   14   16     -0.60      0.00
    1   14   16     -0.43      0.00
    2   14   16      0.41      0.00
    3   14   16     -0.17      0.00
   -8   15   16     -0.20      0.00
   -7   15   16      0.17      0.00
   -6   15   16      1.43      0.00
   -5   15   16      0.42      0.00
   -4   15   16     -0.63      0.00
   -3   15   16      1.26      0.00
   -2   15   16      0.01      0.00
   -1   15   16      0.10      0.00
    0   15   16     -0.18      0.00
    1   15   16      0.40      0.00
   -6   16   16     -1.36      0.00
   -5   16   16      1.30      0.00
   -4   16   16     -0.84      0.00
   -3   16   16     -0.78      0.00
   -2   16   16      1.38      0.00
   -1   16   16     -0.86      0.00
   -3  -16   17      3.00      0.00
   -2  -16   17      1.48      0.00
   -1  -16   17     -0.36      0.00
    0  -16   17      2.48      0.00
    1  -16   17     -0.15      0.00
   -5  -15   17      0.90      0.00
   -4  -15   17     -0.43      0.00
   -3  -15   17     -2.33      0.00
   -2  -15   17      1.64      0.00
   -1  -15   17     -0.64      0.00
    0  -15   17     -1.04      0.00
    1  -15   17      1.34      0.00
    2  -15   17      0.91      0.00
    3  -15   17      0.71      0.00
    4  -15   17     -0.56      0.00
   -7  -14   17      0.83      0.00
   -6  -14   17      1.33      0.00
   -5  -14   17     -1.76      0.00
   -4  -14   17      2.06      0.00
   -3  -14   17      0.07      0.00
   -2  -14   17     -1.83      0.00
   -1  -14   17      1.92      0.00
    0  -14   17     -0.94      0.00
    1  -14   17     -0.71      0.00
    2  -14   17     -1.23      0.00
    3  -14   17      1.35      0.00
    4  -14   17      2.33      0.00
    5  -14   17      0.97      0.00
   -8  -13   17      0.99      0.00
   -7  -13   17     -1.11      0.00
   -6  -13   17      1.22      0.00
   -5  -13   17      0.34      0.00
   -4  -13   17     -2.06      0.00
   -3  -13   17      1.88      0.00
   -2  -13   17      0.60      0.00
   -1  -13   17     -1.70      0.00
    0  -13   17      0.13      0.00
    1  -13   17      0.32      0.00
    2  -13   17      0.17      0.00
    3  -13   17     -1.78      0.00
    4  -13   17     -0.05      0.00
    5  -13   17     -0.08      0.00
    6  -13   17      0.62      0.00
   -9  -12   17      1.87      0.00
   -8  -12   17     -1.17      0.00
   -7  -12   17     -0.76      0.00
   -6  -12   17     -0.39      0.00
   -5  -12   17      0.70      0.00
   -4  -12   17      0.91      0.00
   -3  -12   17     -2.33      0.00
   -2  -12   17     -0.34      0.00
   -1  -12   17      0.56      0.00
    0  -12   17     -0.53      0.00
    1  -12   17     -1.67      0.00
    2  -12   17      0.95      0.00
    3  -12   17     -0.12      0.00
    4  -12   17     -0.34      0.00
    5  -12   17      0.96      0.00
    6  -12   17      0.24      0.00
    7  -12   17      0.25      0.00
  -10  -11   17     -1.42      0.00
   -9  -11   17     -0.79      0.00
   -8  -11   17      2.33      0.00
   -7  -11   17      0.15      0.00
   -6  -11   17     -1.60      0.00
   -5  -11   17      0.11      0.00
   -4  -11   17     -0.84      0.00
   -3  -11   17      2.35      0.00
   -2  -11   17      1.02      0.00
   -1  -11   17      0.10      0.00
    0  -11   17      0.32      0.00
    1  -11   17      0.28      0.00
    2  -11   17     -1.02      0.00
    3  -11   17      0.64      0.00
    4  -11   17     -0.47      0.00
    5  -11   17     -1.82      0.00
    6  -11   17      0.19      0.00
    7  -11   17      1.40      0.00
    8  -11   17     -0.94      0.00
  -11  -10   17     -0.65      0.00
  -10  -10   17      0.56      0.00
   -9  -10   17      0.04      0.00
   -8  -10   17     -1.78      0.00
   -7  -10   17      1.81      0.00
   -6  -10   17      0.57      0.00
   -5  -10   17      0.12      0.00
   -4  -10   17      0.71      0.00
   -3  -10   17     -1.89      0.00
   -2  -10   17     -1.10      0.00
   -1  -10   17      0.93      0.00
    0  -10   17      1.16      0.00
    1  -10   17      0.19      0.00
    2  -10   17     -0.08      0.00
    3  -10   17      0.33      0.00
    4  -10   17      0.99      0.00
    5  -10   17      2.17      0.00
    6  -10   17     -2.46      0.00
    7  -10   17     -1.05      0.00
    8  -10   17      2.02      0.00
  -11   -9   17      0.41      0.00
  -10   -9   17     -1.06      0.00
   -9   -9   17     -1.06      0.00
   -8   -9   17      0.57      0.00
   -7   -9   17     -1.55      0.00
   -6   -9   17      0.14      0.00
   -5   -9   17     -0.99      0.00
   -4   -9   17      0.40      0.00
   -3   -9   17      0.93      0.00
   -2   -9   17      0.69      0.00
   -1   -9   17     -1.93      0.00
    0   -9   17     -1.12      0.00
    1   -9   17      0.84      0.00
    2   -9   17      0.05      0.00
    3   -9   17     -0.17      0.00
    4   -9   17     -0.73      0.00
    5   -9   17     -0.03      0.00
    6   -9   17      3.23      0.00
    7   -9   17     -0.95      0.00
    8   -9   17     -1.32      0.00
    9   -9   17      0.97      0.00
  -12   -8   17      1.04      0.00
  -11   -8   17     -0.40      0.00
  -10   -8   17      1.05      0.00
   -9   -8   17      0.13      0.00
   -8   -8   17     -1.19      0.00
   -7   -8   17      0.46      0.00
   -6   -8   17      0.33      0.00
   -5   -8   17     -0.42      0.00
   -4   -8   17     -0.78      0.00
   -3   -8   17     -0.49      0.00
   -2   -8   17     -0.40      0.00
   -1   -8   17      1.04      0.00
    0   -8   17      0.65      0.00
    1   -8   17     -0.65      0.00
    2   -8   17      0.46      0.00
    3   -8   17     -0.32      0.00
    4   -8   17      0.59      0.00
    5   -8   17     -1.00      0.00
    6   -8   17     -0.94      0.00
    7   -8   17      0.89      0.00
    8   -8   17     -0.56      0.00
    9   -8   17     -1.12      0.00
  -12   -7   17     -0.12      0.00
  -11   -7   17      0.62      0.00
  -10   -7   17     -0.82      0.00
   -9   -7   17      0.80      0.00
   -8   -7   17      0.64      0.00
   -7   -7   17     -0.08      0.00
   -6   -7   17     -0.02      0.00
   -5   -7   17      0.76      0.00
   -4   -7   17     -1.08      0.00
   -3   -7   17     -0.65      0.00
   -2   -7   17     -0.58      0.00
   -1   -7   17     -1.06      0.00
    0   -7   17     -0.82      0.00
    1   -7   17      0.88      0.00
    2   -7   17      0.40      0.00
    3   -7   17      0.75      0.00
    4   -7   17     -0.27      0.00
    5   -7   17      0.52      0.00
    6   -7   17      0.18      0.00
    7   -7   17      0.30      0.00
    8   -7   17      1.17      0.00
    9   -7   17     -0.44      0.00
  -13   -6   17      0.85      0.00
  -12   -6   17     -0.89      0.00
  -11   -6   17     -0.66      0.00
  -10   -6   17      0.23      0.00
   -9   -6   17     -1.07      0.00
   -8   -6   17     -0.21      0.00
   -7   -6   17      0.01      0.00
   -6   -6   17      0.90      0.00
   -5   -6   17      1.15      0.00
   -4   -6   17      1.28      0.00
   -3   -6   17      0.57      0.00
   -2   -6   17      0.16      0.00
   -1   -6   17      1.20      0.00
    0   -6   17     -0.18      0.00
    1   -6   17     -0.23      0.00
    2   -6   17     -0.62      0.00
    3   -6   17     -0.12      0.00
    4   -6   17     -0.12      0.00
    5   -6   17     -1.01      0.00
    6   -6   17     -0.52      0.00
    7   -6   17     -0.60      0.00
    8   -6   17     -0.35      0.00
    9   -6   17      1.32      0.00
   10   -6   17     -1.13      0.00
  -13   -5   17      2.06      0.00
  -12   -5   17      2.21      0.00
  -11   -5   17     -0.32      0.00
  -10   -5   17     -0.83      0.00
   -9   -5   17      0.28      0.00
   -8   -5   17     -0.31      0.00
   -7   -5   17     -0.91      0.00
   -6   -5   17     -1.01      0.00
   -5   -5   17     -0.31      0.00
   -4   -5   17      0.41      0.00
   -3   -5   17     -0.23      0.00
   -2   -5   17     -0.16      0.00
   -1   -5   17     -0.90      0.00
    0   -5   17      0.82      0.00
    1   -5   17      0.24      0.00
    2   -5   17      1.51      0.00
    3   -5   17     -0.58      0.00
    4   -5   17      0.94      0.00
    5   -5   17      1.05      0.00
    6   -5   17     -0.03      0.00
    7   -5   17      0.17      0.00
    8   -5   17     -0.96      0.00
    9   -5   17      0.84      0.00
   10   -5   17      1.70      0.00
  -13   -4   17     -1.88      0.00
  -12   -4   17      0.55      0.00
  -11   -4   17      2.10      0.00
  -10   -4   17     -0.35      0.00
   -9   -4   17     -1.11      0.00
   -8   -4   17      0.89      0.00
   -7   -4   17      0.63      0.00
   -6   -4   17     -0.48      0.00
   -5   -4   17     -0.44      0.00
   -4   -4   17      0.25      0.00
   -3   -4   17      0.47      0.00
   -2   -4   17      0.73      0.00
   -1   -4   17      0.12      0.00
    0   -4   17     -0.51      0.00
    1   -4   17     -1.30      0.00
    2   -4   17     -0.47      0.00
    3   -4   17      0.47      0.00
    4   -4   17     -1.71      0.00
    5   -4   17     -0.12      0.00
    6   -4   17      0.13      0.00
    7   -4   17      0.64      0.00
    8   -4   17     -0.01      0.00
    9   -4   17     -2.35      0.00
   10   -4   17      0.83      0.00
  -14   -3   17      2.59      0.00
  -13   -3   17      1.33      0.00
  -12   -3   17     -1.27      0.00
  -11   -3   17     -0.65      0.00
  -10   -3   17      1.21      0.00
   -9   -3   17     -0.61      0.00
   -8   -3   17     -1.90      0.00
   -7   -3   17      1.04      0.00
   -6   -3   17      1.01      0.00
   -5   -3   17      0.19      0.00
   -4   -3   17     -0.11      0.00
   -3   -3   17      0.57      0.00
   -2   -3   17     -0.16      0.00
   -1   -3   17      0.59      0.00
    0   -3   17      0.18      0.00
    1   -3   17      1.42      0.00
    2   -3   17     -0.16      0.00
    3   -3   17      1.35      0.00
    4   -3   17      0.90      0.00
    5   -3   17     -0.99      0.00
    6   -3   17     -0.45      0.00
    7   -3   17     -1.08      0.00
    8   -3   17      0.47      0.00
    9   -3   17     -0.89      0.00
   10   -3   17     -1.31      0.00
  -14   -2   17     -2.27      0.00
  -13   -2   17      1.59      0.00
  -12   -2   17      0.89      0.00
  -11   -2   17     -0.51      0.00
  -10   -2   17     -1.54      0.00
   -9   -2   17      0.19      0.00
   -8   -2   17     -0.01      0.00
   -7   -2   17     -1.49      0.00
   -6   -2   17      0.07      0.00
   -5   -2   17     -0.05      0.00
   -4   -2   17     -0.45      0.00
   -3   -2   17     -0.05      0.00
   -2   -2   17      0.37      0.00
   -1   -2   17      0.44      0.00
    0   -2   17      0.24      0.00
    1   -2   17     -0.90      0.00
    2   -2   17     -0.11      0.00
    3   -2   17     -0.79      0.00
    4   -2   17      0.84      0.00
    5   -2   17      1.44      0.00
    6   -2   17      0.49      0.00
    7   -2   17      0.08      0.00
    8   -2   17      0.31      0.00
    9   -2   17      1.39      0.00
   10   -2   17     -1.15      0.00
  -14   -1   17      0.04      0.00
  -13   -1   17     -1.11      0.00
  -12   -1   17      0.84      0.00
  -11   -1   17      0.02      0.00
  -10   -1   17      0.61      0.00
   -9   -1   17     -0.86      0.00
   -8   -1   17      0.01      0.00
   -7   -1   17      0.61      0.00
   -6   -1   17      0.42      0.00
   -5   -1   17      0.65      0.00
   -4   -1   17      0.62      0.00
   -3   -1   17     -0.38      0.00
   -2   -1   17      0.16      0.00
   -1   -1   17     -0.34      0.00
    0   -1   17      0.84      0.00
    1   -1   17      0.75      0.00
    2   -1   17      0.08      0.00
    3   -1   17      0.49      0.00
    4   -1   17     -0.71      0.00
    5   -1   17     -1.00      0.00
    6   -1   17      0.21      0.00
    7   -1   17      0.47      0.00
    8   -1   17     -0.21      0.00
    9   -1   17      0.27      0.00
   10   -1   17      0.47      0.00
  -14    0   17      0.75      0.00
  -13    0   17     -0.33      0.00
  -12    0   17      0.92      0.00
  -11    0   17      0.96      0.00
  -10    0   17     -0.09      0.00
   -9    0   17      0.43      0.00
   -8    0   17     -0.17      0.00
   -7    0   17     -0.45      0.00
   -6    0   17     -0.50      0.00
   -5    0   17     -0.15      0.00
   -4    0   17     -0.43      0.00
   -3    0   17      0.54      0.00
   -2    0   17      0.67      0.00
   -1    0   17      0.40      0.00
    0    0   17     -0.83      0.00
    1    0   17     -0.25      0.00
    2    0   17     -0.50      0.00
    3    0   17     -0.19      0.00
    4    0   17      1.20      0.00
    5    0   17      0.18      0.00
    6    0   17      0.18      0.00
    7    0   17      0.52      0.00
    8    0   17      0.24      0.00
    9    0   17      1.15      0.00
   10    0   17      1.28      0.00
  -14    1   17     -0.69      0.00
  -13    1   17      0.07      0.00
  -12    1   17     -1.82      0.00
  -11    1   17      0.47      0.00
  -10    1   17      0.67      0.00
   -9    1   17      0.00      0.00
   -8    1   17     -0.57      0.00
   -7    1   17      0.30      0.00
   -6    1   17     -0.62      0.00
   -5    1   17     -0.59      0.00
   -4    1   17      0.14      0.00
   -3    1   17     -0.87      0.00
   -2    1   17     -1.09      0.00
   -1    1   17      0.22      0.00
    0    1   17      0.22      0.00
    1    1   17     -0.18      0.00
    2    1   17     -0.01      0.00
    3    1   17     -0.94      0.00
    4    1   17      0.33      0.00
    5    1   17      1.42      0.00
    6    1   17     -0.62      0.00
    7    1   17      0.32      0.00
    8    1   17      0.10      0.00
    9    1   17     -0.99      0.00
   10    1   17      0.22      0.00
  -14    2   17     -1.07      0.00
  -13    2   17      1.22      0.00
  -12    2   17      1.45      0.00
  -11    2   17     -1.58      0.00
  -10    2   17     -0.76      0.00
   -9    2   17      0.31      0.00
   -8    2   17      0.28      0.00
   -7    2   17      0.09      0.00
   -6    2   17      1.03      0.00
   -5    2   17     -0.21      0.00
   -4    2   17     -0.15      0.00
   -3    2   17      0.75      0.00
   -2    2   17      0.66      0.00
   -1    2   17     -0.38      0.00
    0    2   17      0.24      0.00
    1    2   17      0.18      0.00
    2    2   17      0.07      0.00
    3    2   17      0.69      0.00
    4    2   17     -0.41      0.00
    5    2   17      0.18      0.00
    6    2   17      0.89      0.00
    7    2   17     -0.75      0.00
    8    2   17      0.92      0.00
    9    2   17     -0.26      0.00
   10    2   17     -0.15      0.00
  -14    3   17      0.66      0.00
  -13    3   17     -1.80      0.00
  -12    3   17      0.77      0.00
  -11    3   17      2.41      0.00
  -10    3   17     -0.17      0.00
   -9    3   17      0.18      0.00
   -8    3   17      0.15      0.00
   -7    3   17     -0.53      0.00
   -6    3   17      0.96      0.00
   -5    3   17     -0.10      0.00
   -4    3   17     -1.39      0.00
   -3    3   17     -0.97      0.00
   -2    3   17     -0.31      0.00
   -1    3   17      0.10      0.00
    0    3   17     -1.22      0.00
    1    3   17      0.23      0.00
    2    3   17      0.81      0.00
    3    3   17     -0.43      0.00
    4    3   17     -0.01      0.00
    5    3   17      0.63      0.00
    6    3   17      0.32      0.00
    7    3   17      0.08      0.00
    8    3   17     -1.24      0.00
    9    3   17      1.07      0.00
  -14    4   17     -0.47      0.00
  -13    4   17     -0.18      0.00
  -12    4   17     -2.10      0.00
  -11    4   17     -0.55      0.00
  -10    4   17      1.44      0.00
   -9    4   17      0.00      0.00
   -8    4   17      2.10      0.00
   -7    4   17      0.64      0.00
   -6    4   17     -0.83      0.00
   -5    4   17      2.21      0.00
   -4    4   17      1.05      0.00
   -3    4   17     -0.21      0.00
   -2    4   17     -0.93      0.00
   -1    4   17      0.34      0.00
    0    4   17      1.27      0.00
    1    4   17     -1.92      0.00
    2    4   17     -0.58      0.00
    3    4   17      0.68      0.00
    4    4   17     -0.69      0.00
    5    4   17     -0.22      0.00
    6    4   17      0.98      0.00
    7    4   17      1.01      0.00
    8    4   17      1.01      0.00
    9    4   17      0.30      0.00
  -14    5   17      0.78      0.00
  -13    5   17      1.11      0.00
  -12    5   17      1.87      0.00
  -11    5   17     -0.79      0.00
  -10    5   17     -0.39      0.00
   -9    5   17     -0.74      0.00
   -8    5   17     -1.59      0.00
   -7    5   17      1.08      0.00
   -6    5   17     -0.15      0.00
   -5    5   17     -1.20      0.00
   -4    5   17     -0.01      0.00
   -3    5   17      0.36      0.00
   -2    5   17      0.76      0.00
   -1    5   17     -1.16      0.00
    0    5   17      0.03      0.00
    1    5   17      1.35      0.00
    2    5   17     -0.86      0.00
    3    5   17     -0.05      0.00
    4    5   17      0.71      0.00
    5    5   17     -1.60      0.00
    6    5   17     -0.49      0.00
    7    5   17      0.53      0.00
    8    5   17      0.26      0.00
    9    5   17     -0.76      0.00
  -14    6   17     -1.65      0.00
  -13    6   17      0.42      0.00
  -12    6   17      0.75      0.00
  -11    6   17      2.55      0.00
  -10    6   17      0.34      0.00
   -9    6   17      1.37      0.00
   -8    6   17     -0.19      0.00
   -7    6   17     -0.16      0.00
   -6    6   17      1.07      0.00
   -5    6   17      0.40      0.00
   -4    6   17      0.79      0.00
   -3    6   17      0.12      0.00
   -2    6   17      0.28      0.00
   -1    6   17      0.02      0.00
    0    6   17     -1.00      0.00
    1    6   17      0.08      0.00
    2    6   17      0.66      0.00
    3    6   17      0.33      0.00
    4    6   17      0.45      0.00
    5    6   17      2.17      0.00
    6    6   17      0.15      0.00
    7    6   17     -0.20      0.00
    8    6   17      1.27      0.00
  -13    7   17      0.11      0.00
  -12    7   17     -1.21      0.00
  -11    7   17     -0.95      0.00
  -10    7   17     -0.32      0.00
   -9    7   17     -1.60      0.00
   -8    7   17     -0.23      0.00
   -7    7   17     -0.80      0.00
   -6    7   17     -0.17      0.00
   -5    7   17     -0.01      0.00
   -4    7   17     -0.57      0.00
   -3    7   17     -0.70      0.00
   -2    7   17     -0.56      0.00
   -1    7   17      0.74      0.00
    0    7   17     -0.58      0.00
    1    7   17     -0.70      0.00
    2    7   17     -1.13      0.00
    3    7   17     -0.45      0.00
    4    7   17      0.73      0.00
    5    7   17     -0.78      0.00
    6    7   17     -0.21      0.00
    7    7   17     -0.41      0.00
    8    7   17     -1.51      0.00
  -13    8   17     -1.40      0.00
  -12    8   17      2.98      0.00
  -11    8   17      0.02      0.00
  -10    8   17      1.12      0.00
   -9    8   17      0.96      0.00
   -8    8   17      0.17      0.00
   -7    8   17      0.19      0.00
   -6    8   17      0.18      0.00
   -5    8   17      1.10      0.00
   -4    8   17      0.68      0.00
   -3    8   17      0.46      0.00
   -2    8   17     -0.38      0.00
   -1    8   17     -0.28      0.00
    0    8   17      0.13      0.00
    1    8   17     -0.10      0.00
    2    8   17      1.21      0.00
    3    8   17     -0.49      0.00
    4    8   17     -0.81      0.00
    5    8   17      0.99      0.00
    6    8   17      0.91      0.00
    7    8   17      0.47      0.00
  -13    9   17     -0.90      0.00
  -12    9   17     -1.21      0.00
  -11    9   17      1.51      0.00
  -10    9   17     -1.40      0.00
   -9    9   17     -0.94      0.00
   -8    9   17     -0.08      0.00
   -7    9   17      0.43      0.00
   -6    9   17     -0.04      0.00
   -5    9   17     -1.07      0.00
   -4    9   17      0.72      0.00
   -3    9   17      0.44      0.00
   -2    9   17     -0.25      0.00
   -1    9   17     -0.05      0.00
    0    9   17      0.95      0.00
    1    9   17     -0.59      0.00
    2    9   17     -0.50      0.00
    3    9   17      0.52      0.00
    4    9   17      0.31      0.00
    5    9   17     -0.89      0.00
    6    9   17      0.20      0.00
    7    9   17      0.46      0.00
  -12   10   17     -2.08      0.00
  -11   10   17      0.78      0.00
  -10   10   17      1.43      0.00
   -9   10   17     -0.46      0.00
   -8   10   17     -1.56      0.00
   -7   10   17     -0.41      0.00
   -6   10   17      0.80      0.00
   -5   10   17      0.78      0.00
   -4   10   17     -0.84      0.00
   -3   10   17      0.40      0.00
   -2   10   17      0.60      0.00
   -1   10   17     -0.64      0.00
    0   10   17     -0.25      0.00
    1   10   17      0.78      0.00
    2   10   17     -0.95      0.00
    3   10   17     -1.04      0.00
    4   10   17      0.19      0.00
    5   10   17      0.69      0.00
    6   10   17     -1.14      0.00
  -12   11   17      1.60      0.00
  -11   11   17     -2.57      0.00
  -10   11   17     -0.79      0.00
   -9   11   17      0.28      0.00
   -8   11   17     -0.11      0.00
   -7   11   17     -1.21      0.00
   -6   11   17      0.39      0.00
   -5   11   17      1.71      0.00
   -4   11   17      0.62      0.00
   -3   11   17      0.13      0.00
   -2   11   17      0.34      0.00
   -1   11   17      0.75      0.00
    0   11   17     -0.60      0.00
    1   11   17     -0.23      0.00
    2   11   17      1.33      0.00
    3   11   17      0.57      0.00
    4   11   17     -2.23      0.00
    5   11   17      1.07      0.00
  -11   12   17      1.30      0.00
  -10   12   17      0.28      0.00
   -9   12   17     -0.87      0.00
   -8   12   17     -0.20      0.00
   -7   12   17     -0.55      0.00
   -6   12   17     -2.57      0.00
   -5   12   17     -0.81      0.00
   -4   12   17      1.45      0.00
   -3   12   17     -0.18      0.00
   -2   12   17     -0.46      0.00
   -1   12   17     -0.97      0.00
    0   12   17      0.40      0.00
    1   12   17     -0.09      0.00
    2   12   17     -1.26      0.00
    3   12   17      1.06      0.00
    4   12   17      2.25      0.00
    5   12   17     -2.47      0.00
  -10   13   17     -0.68      0.00
   -9   13   17      0.81      0.00
   -8   13   17      0.90      0.00
   -7   13   17      1.81      0.00
   -6   13   17      1.37      0.00
   -5   13   17     -1.35      0.00
   -4   13   17     -0.58      0.00
   -3   13   17      0.59      0.00
   -2   13   17      0.34      0.00
   -1   13   17      0.33      0.00
    0   13   17     -0.80      0.00
    1   13   17     -0.60      0.00
    2   13   17      0.55      0.00
    3   13   17     -1.64      0.00
   -9   14   17     -1.60      0.00
   -8   14   17     -2.29      0.00
   -7   14   17     -0.97      0.00
   -6   14   17      1.65      0.00
   -5   14   17      0.17      0.00
   -4   14   17     -1.47      0.00
   -3   14   17      0.30      0.00
   -2   14   17     -0.15      0.00
   -1   14   17     -0.02      0.00
    0   14   17      0.33      0.00
    1   14   17      0.68      0.00
    2   14   17     -0.86      0.00
   -7   15   17     -1.53      0.00
   -6   15   17     -1.85      0.00
   -5   15   17      2.74      0.00
   -4   15   17      0.11      0.00
   -3   15   17     -0.61      0.00
   -2   15   17      1.65      0.00
   -1   15   17      0.50      0.00
    0   15   17      0.26      0.00
   -4  -15   18      3.22      0.00
   -3  -15   18      0.38      0.00
   -2  -15   18     -0.89      0.00
   -1  -15   18      1.32      0.00
    0  -15   18     -2.92      0.00
    1  -15   18     -1.74      0.00
    2  -15   18     -0.39      0.00
   -6  -14   18      2.04      0.00
   -5  -14   18     -0.51      0.00
   -4  -14   18     -3.16      0.00
   -3  -14   18      1.97      0.00
   -2  -14   18     -0.14      0.00
   -1  -14   18     -0.37      0.00
    0  -14   18      1.69      0.00
    1  -14   18      0.17      0.00
    2  -14   18      0.17      0.00
    3  -14   18     -2.12      0.00
    4  -14   18     -1.09      0.00
   -8  -13   18     -2.01      0.00
   -7  -13   18     -0.53      0.00
   -6  -13   18     -1.29      0.00
   -5  -13   18      3.29      0.00
   -4  -13   18      2.33      0.00
   -3  -13   18     -1.76      0.00
   -2  -13   18      1.49      0.00
   -1  -13   18      0.68      0.00
    0  -13   18     -0.22      0.00
    1  -13   18     -1.87      0.00
    2  -13   18      0.89      0.00
    3  -13   18      0.52      0.00
    4  -13   18     -0.16      0.00
    5  -13   18     -0.25      0.00
   -9  -12   18      0.71      0.00
   -8  -12   18      2.04      0.00
   -7  -12   18      0.10      0.00
   -6  -12   18     -1.82      0.00
   -5  -12   18     -2.54      0.00
   -4  -12   18     -0.54      0.00
   -3  -12   18      1.88      0.00
   -2  -12   18     -0.58      0.00
   -1  -12   18     -0.83      0.00
    0  -12   18      1.11      0.00
    1  -12   18      1.57      0.00
    2  -12   18     -1.35      0.00
    3  -12   18      1.26      0.00
    4  -12   18     -0.56      0.00
    5  -12   18     -0.71      0.00
    6  -12   18      1.16      0.00
  -10  -11   18      0.45      0.00
   -9  -11   18     -0.93      0.00
   -8  -11   18     -1.57      0.00
   -7  -11   18      1.84      0.00
   -6  -11   18      0.96      0.00
   -5  -11   18      0.66      0.00
   -4  -11   18      0.41      0.00
   -3  -11   18     -0.99      0.00
   -2  -11   18      0.35      0.00
   -1  -11   18      1.76      0.00
    0  -11   18     -0.78      0.00
    1  -11   18      0.05      0.00
    2  -11   18      0.41      0.00
    3  -11   18     -0.09      0.00
    4  -11   18      1.84      0.00
    5  -11   18      1.43      0.00
    6  -11   18     -2.47      0.00
    7  -11   18     -0.66      0.00
  -10  -10   18     -1.00      0.00
   -9  -10   18     -0.57      0.00
   -8  -10   18      0.39      0.00
   -7  -10   18     -1.47      0.00
   -6  -10   18      0.42      0.00
   -5  -10   18     -1.80      0.00
   -4  -10   18     -1.17      0.00
   -3  -10   18     -0.11      0.00
   -2  -10   18     -0.87      0.00
   -1  -10   18     -2.86      0.00
    0  -10   18      0.05      0.00
    1  -10   18      0.55      0.00
    2  -10   18      0.43      0.00
    3  -10   18     -0.08      0.00
    4  -10   18     -1.37      0.00
    5  -10   18      0.18      0.00
    6  -10   18      3.20      0.00
    7  -10   18     -1.38      0.00
  -11   -9   18     -1.24      0.00
  -10   -9   18      1.59      0.00
   -9   -9   18      0.33      0.00
   -8   -9   18     -1.11      0.00
   -7   -9   18      0.23      0.00
   -6   -9   18      0.84      0.00
   -5   -9   18      1.02      0.00
   -4   -9   18     -0.22      0.00
   -3   -9   18     -1.13      0.00
   -2   -9   18      0.09      0.00
   -1   -9   18      1.16      0.00
    0   -9   18     -0.59      0.00
    1   -9   18     -0.94      0.00
    2   -9   18      0.11      0.00
    3   -9   18     -0.06      0.00
    4   -9   18      0.89      0.00
    5   -9   18     -1.49      0.00
    6   -9   18     -0.89      0.00
    7   -9   18      1.63      0.00
    8   -9   18     -0.48      0.00
  -12   -8   18      0.49      0.00
  -11   -8   18      0.95      0.00
  -10   -8   18     -0.94      0.00
   -9   -8   18      1.29      0.00
   -8   -8   18      1.41      0.00
   -7   -8   18     -0.39      0.00
   -6   -8   18     -0.80      0.00
   -5   -8   18      1.26      0.00
   -4   -8   18      0.37      0.00
   -3   -8   18      0.90      0.00
   -2   -8   18     -0.06      0.00
   -1   -8   18     -0.27      0.00
    0   -8   18     -0.10      0.00
    1   -8   18      0.97      0.00
    2   -8   18      0.77      0.00
    3   -8   18      0.81      0.00
    4   -8   18      0.16      0.00
    5   -8   18      0.40      0.00
    6   -8   18     -0.32      0.00
    7   -8   18      0.14      0.00
    8   -8   18      0.46      0.00
  -12   -7   18     -1.61      0.00
  -11   -7   18     -1.57      0.00
  -10   -7   18     -0.91      0.00
   -9   -7   18     -1.93      0.00
   -8   -7   18     -0.13      0.00
   -7   -7   18      0.99      0.00
   -6   -7   18      0.24      0.00
   -5   -7   18     -0.67      0.00
   -4   -7   18      0.03      0.00
   -3   -7   18     -0.41      0.00
   -2   -7   18     -0.48      0.00
   -1   -7   18      0.78      0.00
    0   -7   18     -0.05      0.00
    1   -7   18     -0.65      0.00
    2   -7   18     -0.96      0.00
    3   -7   18     -0.23      0.00
    4   -7   18     -0.07      0.00
    5   -7   18      0.42      0.00
    6   -7   18     -0.56      0.00
    7   -7   18      0.02      0.00
    8   -7   18      0.54      0.00
    9   -7   18      0.67      0.00
  -13   -6   18      1.77      0.00
  -12   -6   18      2.76      0.00
  -11   -6   18      0.77      0.00
  -10   -6   18      0.51      0.00
   -9   -6   18     -0.14      0.00
   -8   -6   18     -0.85      0.00
   -7   -6   18     -0.60      0.00
   -6   -6   18      0.39      0.00
   -5   -6   18      0.69      0.00
   -4   -6   18      1.24      0.00
   -3   -6   18      0.77      0.00
   -2   -6   18      0.52      0.00
   -1   -6   18     -0.56      0.00
    0   -6   18      0.69      0.00
    1   -6   18      0.24      0.00
    2   -6   18      1.21      0.00
    3   -6   18     -0.43      0.00
    4   -6   18      0.55      0.00
    5   -6   18      0.21      0.00
    6   -6   18      0.08      0.00
    7   -6   18     -1.17      0.00
    8   -6   18     -1.09      0.00
    9   -6   18      0.25      0.00
  -13   -5   18     -1.79      0.00
  -12   -5   18     -0.42      0.00
  -11   -5   18      0.93      0.00
  -10   -5   18     -1.05      0.00
   -9   -5   18     -0.09      0.00
   -8   -5   18      0.44      0.00
   -7   -5   18      0.12      0.00
   -6   -5   18     -0.69      0.00
   -5   -5   18     -1.02      0.00
   -4   -5   18     -1.24      0.00
   -3   -5   18     -0.59      0.00
   -2   -5   18      0.38      0.00
   -1   -5   18     -0.21      0.00
    0   -5   18      0.11      0.00
    1   -5   18     -0.93      0.00
    2   -5   18      0.24      0.00
    3   -5   18      0.85      0.00
    4   -5   18     -1.41      0.00
    5   -5   18     -0.01      0.00
    6   -5   18      0.32      0.00
    7   -5   18      1.22      0.00
    8   -5   18     -0.48      0.00
    9   -5   18     -2.07      0.00
  -13   -4   18      1.64      0.00
  -12   -4   18     -1.32      0.00
  -11   -4   18     -0.67      0.00
  -10   -4   18      1.44      0.00
   -9   -4   18     -1.10      0.00
   -8   -4   18     -1.09      0.00
   -7   -4   18      1.50      0.00
   -6   -4   18      1.21      0.00
   -5   -4   18      0.96      0.00
   -4   -4   18      0.99      0.00
   -3   -4   18      0.61      0.00
   -2   -4   18     -0.28      0.00
   -1   -4   18      0.70      0.00
    0   -4   18     -0.02      0.00
    1   -4   18      1.27      0.00
    2   -4   18     -1.74      0.00
    3   -4   18      1.20      0.00
    4   -4   18      0.95      0.00
    5   -4   18     -0.88      0.00
    6   -4   18     -0.57      0.00
    7   -4   18     -1.65      0.00
    8   -4   18      1.26      0.00
    9   -4   18     -0.51      0.00
  -13   -3   18      1.46      0.00
  -12   -3   18      2.14      0.00
  -11   -3   18     -1.23      0.00
  -10   -3   18     -2.22      0.00
   -9   -3   18      0.69      0.00
   -8   -3   18     -0.82      0.00
   -7   -3   18     -2.15      0.00
   -6   -3   18      0.61      0.00
   -5   -3   18     -0.14      0.00
   -4   -3   18     -0.79      0.00
   -3   -3   18      0.25      0.00
   -2   -3   18      0.51      0.00
   -1   -3   18      0.74      0.00
    0   -3   18      0.33      0.00
    1   -3   18      0.26      0.00
    2   -3   18      0.77      0.00
    3   -3   18     -1.38      0.00
    4   -3   18      1.48      0.00
    5   -3   18      0.85      0.00
    6   -3   18      0.71      0.00
    7   -3   18      0.54      0.00
    8   -3   18     -0.52      0.00
    9   -3   18      1.51      0.00
  -14   -2   18     -0.06      0.00
  -13   -2   18     -1.57      0.00
  -12   -2   18      0.23      0.00
  -11   -2   18      1.99      0.00
  -10   -2   18      1.02      0.00
   -9   -2   18     -1.09      0.00
   -8   -2   18      1.03      0.00
   -7   -2   18      0.06      0.00
   -6   -2   18     -1.14      0.00
   -5   -2   18      0.57      0.00
   -4   -2   18      0.40      0.00
   -3   -2   18     -0.91      0.00
   -2   -2   18     -0.25      0.00
   -1   -2   18     -1.01      0.00
    0   -2   18      0.47      0.00
    1   -2   18     -0.12      0.00
    2   -2   18      0.03      0.00
    3   -2   18     -0.74      0.00
    4   -2   18     -1.51      0.00
    5   -2   18      0.00      0.00
    6   -2   18     -0.18      0.00
    7   -2   18      1.03      0.00
    8   -2   18      0.10      0.00
    9   -2   18      0.86      0.00
  -14   -1   18      1.63      0.00
  -13   -1   18      0.43      0.00
  -12   -1   18      0.22      0.00
  -11   -1   18     -0.76      0.00
  -10   -1   18      0.30      0.00
   -9   -1   18      0.67      0.00
   -8   -1   18     -0.69      0.00
   -7   -1   18      0.84      0.00
   -6   -1   18      0.21      0.00
   -5   -1   18     -0.37      0.00
   -4   -1   18      0.21      0.00
   -3   -1   18      0.99      0.00
   -2   -1   18      0.66      0.00
   -1   -1   18      0.26      0.00
    0   -1   18     -1.27      0.00
    1   -1   18     -0.26      0.00
    2   -1   18      0.47      0.00
    3   -1   18      1.13      0.00
    4   -1   18      0.68      0.00
    5   -1   18      0.10      0.00
    6   -1   18      0.10      0.00
    7   -1   18     -1.15      0.00
    8   -1   18     -0.46      0.00
    9   -1   18     -0.55      0.00
  -14    0   18     -0.84      0.00
  -13    0   18      0.46      0.00
  -12    0   18     -1.09      0.00
  -11    0   18      0.14      0.00
  -10    0   18     -1.34      0.00
   -9    0   18     -0.23      0.00
   -8    0   18     -0.62      0.00
   -7    0   18     -0.97      0.00
   -6    0   18     -0.47      0.00
   -5    0   18     -0.29      0.00
   -4    0   18     -0.23      0.00
   -3    0   18     -1.02      0.00
   -2    0   18     -0.67      0.00
   -1    0   18      1.04      0.00
    0    0   18      0.91      0.00
    1    0   18      0.07      0.00
    2    0   18     -0.68      0.00
    3    0   18     -0.74      0.00
    4    0   18      0.96      0.00
    5    0   18      1.10      0.00
    6    0   18     -0.03      0.00
    7    0   18      1.60      0.00
    8    0   18      0.32      0.00
    9    0   18     -0.84      0.00
  -14    1   18     -0.77      0.00
  -13    1   18      1.20      0.00
  -12    1   18      1.25      0.00
  -11    1   18     -0.47      0.00
  -10    1   18      0.17      0.00
   -9    1   18     -0.25      0.00
   -8    1   18      1.55      0.00
   -7    1   18      0.69      0.00
   -6    1   18      0.71      0.00
   -5    1   18     -0.35      0.00
   -4    1   18     -0.04      0.00
   -3    1   18      0.93      0.00
   -2    1   18     -0.02      0.00
   -1    1   18     -1.25      0.00
    0    1   18     -0.58      0.00
    1    1   18     -0.32      0.00
    2    1   18      1.16      0.00
    3    1   18      0.84      0.00
    4    1   18     -1.22      0.00
    5    1   18      0.44      0.00
    6    1   18      0.65      0.00
    7    1   18     -1.83      0.00
    8    1   18      0.53      0.00
    9    1   18     -0.21      0.00
  -14    2   18      0.81      0.00
  -13    2   18     -1.94      0.00
  -12    2   18      0.83      0.00
  -11    2   18      1.17      0.00
  -10    2   18     -0.04      0.00
   -9    2   18     -0.08      0.00
   -8    2   18     -0.63      0.00
   -7    2   18      0.60      0.00
   -6    2   18      1.01      0.00
   -5    2   18      0.40      0.00
   -4    2   18     -0.89      0.00
   -3    2   18     -0.47      0.00
   -2    2   18      0.46      0.00
   -1    2   18      0.87      0.00
    0    2   18      0.45      0.00
    1    2   18      0.32      0.00
    2    2   18     -0.93      0.00
    3    2   18     -0.35      0.00
    4    2   18      0.41      0.00
    5    2   18      0.00      0.00
    6    2   18      1.49      0.00
    7    2   18      1.75      0.00
    8    2   18      0.06      0.00
    9    2   18      1.77      0.00
  -14    3   18     -0.32      0.00
  -13    3   18      1.02      0.00
  -12    3   18     -1.39      0.00
  -11    3   18      0.86      0.00
  -10    3   18      1.26      0.00
   -9    3   18      0.25      0.00
   -8    3   18      1.12      0.00
   -7    3   18     -1.00      0.00
   -6    3   18     -1.48      0.00
   -5    3   18      1.37      0.00
   -4    3   18      0.45      0.00
   -3    3   18     -0.73      0.00
   -2    3   18     -0.77      0.00
   -1    3   18     -0.59      0.00
    0    3   18     -0.40      0.00
    1    3   18     -1.17      0.00
    2    3   18      0.52      0.00
    3    3   18      0.81      0.00
    4    3   18     -0.62      0.00
    5    3   18     -1.13      0.00
    6    3   18     -0.76      0.00
    7    3   18      0.60      0.00
    8    3   18      0.34      0.00
    9    3   18      0.20      0.00
  -14    4   18     -0.10      0.00
  -13    4   18      0.61      0.00
  -12    4   18      1.66      0.00
  -11    4   18     -1.28      0.00
  -10    4   18      0.29      0.00
   -9    4   18     -0.10      0.00
   -8    4   18     -0.19      0.00
   -7    4   18      2.53      0.00
   -6    4   18      0.16      0.00
   -5    4   18     -1.60      0.00
   -4    4   18      0.78      0.00
   -3    4   18      0.84      0.00
   -2    4   18      0.86      0.00
   -1    4   18     -0.38      0.00
    0    4   18      0.38      0.00
    1    4   18      0.85      0.00
    2    4   18     -1.11      0.00
    3    4   18      0.40      0.00
    4    4   18      2.17      0.00
    5    4   18      0.10      0.00
    6    4   18      0.38      0.00
    7    4   18      0.40      0.00
    8    4   18      0.66      0.00
    9    4   18     -0.44      0.00
  -14    5   18     -0.56      0.00
  -13    5   18      0.59      0.00
  -12    5   18      0.81      0.00
  -11    5   18      1.63      0.00
  -10    5   18     -0.90      0.00
   -9    5   18      0.11      0.00
   -8    5   18     -1.77      0.00
   -7    5   18     -0.90      0.00
   -6    5   18      1.27      0.00
   -5    5   18     -0.19      0.00
   -4    5   18     -0.62      0.00
   -3    5   18     -0.43      0.00
   -2    5   18     -0.37      0.00
   -1    5   18      0.17      0.00
    0    5   18     -1.51      0.00
    1    5   18     -0.13      0.00
    2    5   18      0.81      0.00
    3    5   18     -0.62      0.00
    4    5   18      0.07      0.00
    5    5   18      1.90      0.00
    6    5   18     -1.15      0.00
    7    5   18     -1.35      0.00
    8    5   18     -0.18      0.00
  -13    6   18     -0.46      0.00
  -12    6   18     -0.03      0.00
  -11    6   18      1.11      0.00
  -10    6   18      0.91      0.00
   -9    6   18      0.74      0.00
   -8    6   18      1.76      0.00
   -7    6   18     -0.73      0.00
   -6    6   18      0.37      0.00
   -5    6   18      0.71      0.00
   -4    6   18     -0.72      0.00
   -3    6   18     -0.77      0.00
   -2    6   18     -0.44      0.00
   -1    6   18      0.50      0.00
    0    6   18      0.16      0.00
    1    6   18     -1.31      0.00
    2    6   18     -1.38      0.00
    3    6   18      0.08      0.00
    4    6   18      0.02      0.00
    5    6   18     -0.32      0.00
    6    6   18      1.63      0.00
    7    6   18      1.04      0.00
    8    6   18     -0.46      0.00
  -13    7   18     -1.63      0.00
  -12    7   18      0.46      0.00
  -11    7   18     -1.12      0.00
  -10    7   18      0.51      0.00
   -9    7   18     -1.02      0.00
   -8    7   18     -0.02      0.00
   -7    7   18      1.08      0.00
   -6    7   18     -0.39      0.00
   -5    7   18      0.68      0.00
   -4    7   18      0.83      0.00
   -3    7   18      0.64      0.00
   -2    7   18     -0.52      0.00
   -1    7   18     -0.29      0.00
    0    7   18      0.65      0.00
    1    7   18      0.87      0.00
    2    7   18      1.35      0.00
    3    7   18     -1.11      0.00
    4    7   18     -0.77      0.00
    5    7   18      0.29      0.00
    6    7   18     -0.35      0.00
    7    7   18     -0.39      0.00
  -13    8   18      0.96      0.00
  -12    8   18      0.07      0.00
  -11    8   18      1.44      0.00
  -10    8   18     -0.49      0.00
   -9    8   18      0.21      0.00
   -8    8   18     -0.61      0.00
   -7    8   18      0.51      0.00
   -6    8   18      0.78      0.00
   -5    8   18     -0.50      0.00
   -4    8   18      0.42      0.00
   -3    8   18      0.45      0.00
   -2    8   18      0.44      0.00
   -1    8   18     -0.35      0.00
    0    8   18      0.25      0.00
    1    8   18     -1.03      0.00
    2    8   18     -0.84      0.00
    3    8   18      0.96      0.00
    4    8   18      0.08      0.00
    5    8   18     -0.27      0.00
    6    8   18      0.97      0.00
    7    8   18      1.50      0.00
  -12    9   18     -1.64      0.00
  -11    9   18     -0.15      0.00
  -10    9   18      0.08      0.00
   -9    9   18     -0.73      0.00
   -8    9   18     -1.34      0.00
   -7    9   18     -1.03      0.00
   -6    9   18      1.03      0.00
   -5    9   18      1.40      0.00
   -4    9   18     -0.39      0.00
   -3    9   18     -0.12      0.00
   -2    9   18      0.75      0.00
   -1    9   18     -0.08      0.00
    0    9   18     -0.18      0.00
    1    9   18      0.81      0.00
    2    9   18     -0.56      0.00
    3    9   18     -0.28      0.00
    4    9   18      0.52      0.00
    5    9   18      0.22      0.00
    6    9   18     -1.23      0.00
  -12   10   18      1.35      0.00
  -11   10   18     -1.79      0.00
  -10   10   18     -0.60      0.00
   -9   10   18      0.31      0.00
   -8   10   18      0.38      0.00
   -7   10   18     -0.60      0.00
   -6   10   18     -0.64      0.00
   -5   10   18      0.71      0.00
   -4   10   18      1.03      0.00
   -3   10   18      0.38      0.00
   -2   10   18     -0.82      0.00
   -1   10   18     -0.06      0.00
    0   10   18     -1.13      0.00
    1   10   18     -0.22      0.00
    2   10   18      0.63      0.00
    3   10   18     -0.37      0.00
    4   10   18     -1.33      0.00
    5   10   18      1.29      0.00
    6   10   18      1.54      0.00
  -11   11   18      1.29      0.00
  -10   11   18      0.23      0.00
   -9   11   18     -0.70      0.00
   -8   11   18      0.40      0.00
   -7   11   18      0.29      0.00
   -6   11   18     -0.88      0.00
   -5   11   18     -0.06      0.00
   -4   11   18      0.66      0.00
   -3   11   18      0.18      0.00
   -2   11   18      0.81      0.00
   -1   11   18     -0.14      0.00
    0   11   18      0.58      0.00
    1   11   18     -0.52      0.00
    2   11   18     -0.83      0.00
    3   11   18      1.47      0.00
    4   11   18      1.81      0.00
    5   11   18     -2.18      0.00
  -10   12   18     -1.46      0.00
   -9   12   18     -0.29      0.00
   -8   12   18      0.24      0.00
   -7   12   18      1.53      0.00
   -6   12   18      0.89      0.00
   -5   12   18     -1.61      0.00
   -4   12   18     -0.96      0.00
   -3   12   18     -0.43      0.00
   -2   12   18     -0.09      0.00
   -1   12   18      0.22      0.00
    0   12   18     -0.73      0.00
    1   12   18     -0.48      0.00
    2   12   18      0.23      0.00
    3   12   18     -2.59      0.00
    4   12   18     -0.01      0.00
   -9   13   18     -1.46      0.00
   -8   13   18     -2.88      0.00
   -7   13   18     -0.46      0.00
   -6   13   18      2.71      0.00
   -5   13   18      1.95      0.00
   -4   13   18      0.35      0.00
   -3   13   18      0.85      0.00
   -2   13   18      0.34      0.00
   -1   13   18      0.77      0.00
    0   13   18      0.91      0.00
    1   13   18      0.55      0.00
    2   13   18     -1.05      0.00
    3   13   18      0.75      0.00
   -8   14   18      1.36      0.00
   -7   14   18     -3.51      0.00
   -6   14   18     -3.02      0.00
   -5   14   18      1.70      0.00
   -4   14   18     -0.42      0.00
   -3   14   18     -1.07      0.00
   -2   14   18     -0.02      0.00
   -1   14   18      0.05      0.00
    0   14   18     -0.21      0.00
    1   14   18      0.01      0.00
   -6   15   18     -0.68      0.00
   -5   15   18     -2.08      0.00
   -4   15   18      2.40      0.00
   -3   15   18     -0.48      0.00
   -2   15   18     -0.63      0.00
   -1   15   18     -0.02      0.00
   -3  -15   19      1.47      0.00
   -2  -15   19     -1.06      0.00
   -1  -15   19      0.11      0.00
    0  -15   19      1.52      0.00
   -5  -14   19      3.33      0.00
   -4  -14   19      1.44      0.00
   -3  -14   19     -1.59      0.00
   -2  -14   19      1.60      0.00
   -1  -14   19      0.27      0.00
    0  -14   19      0.72      0.00
    1  -14   19     -1.25      0.00
    2  -14   19      0.54      0.00
    3  -14   19      1.37      0.00
   -7  -13   19      0.19      0.00
   -6  -13   19     -1.22      0.00
   -5  -13   19     -3.57      0.00
   -4  -13   19      0.88      0.00
   -3  -13   19      2.70      0.00
   -2  -13   19     -0.67      0.00
   -1  -13   19     -1.51      0.00
    0  -13   19      1.20      0.00
    1  -13   19      2.22      0.00
    2  -13   19     -1.52      0.00
    3  -13   19      1.26      0.00
    4  -13   19     -0.35      0.00
   -8  -12   19     -0.06      0.00
   -7  -12   19      1.16      0.00
   -6  -12   19      1.57      0.00
   -5  -12   19      0.44      0.00
   -4  -12   19     -2.64      0.00
   -3  -12   19     -3.02      0.00
   -2  -12   19      0.15      0.00
   -1  -12   19      1.07      0.00
    0  -12   19     -3.43      0.00
    1  -12   19      0.42      0.00
    2  -12   19      0.99      0.00
    3  -12   19     -0.44      0.00
    4  -12   19      2.22      0.00
    5  -12   19      0.66      0.00
   -9  -11   19     -0.33      0.00
   -8  -11   19      0.15      0.00
   -7  -11   19     -0.85      0.00
   -6  -11   19      0.88      0.00
   -5  -11   19      0.12      0.00
   -4  -11   19      1.12      0.00
   -3  -11   19      1.44      0.00
   -2  -11   19     -1.08      0.00
   -1  -11   19     -1.47      0.00
    0  -11   19      1.45      0.00
    1  -11   19     -1.39      0.00
    2  -11   19      0.52      0.00
    3  -11   19     -0.38      0.00
    4  -11   19     -1.77      0.00
    5  -11   19      0.29      0.00
    6  -11   19      1.91      0.00
  -10  -10   19      1.98      0.00
   -9  -10   19      0.53      0.00
   -8  -10   19     -1.08      0.00
   -7  -10   19     -0.29      0.00
   -6  -10   19      0.05      0.00
   -5  -10   19      0.89      0.00
   -4  -10   19     -0.43      0.00
   -3  -10   19     -1.65      0.00
   -2  -10   19      0.66      0.00
   -1  -10   19      0.36      0.00
    0  -10   19     -0.82      0.00
    1  -10   19     -0.37      0.00
    2  -10   19     -0.18      0.00
    3  -10   19      0.84      0.00
    4  -10   19      1.30      0.00
    5  -10   19     -1.45      0.00
    6  -10   19     -0.77      0.00
    7  -10   19      1.72      0.00
  -11   -9   19     -0.07      0.00
  -10   -9   19     -1.66      0.00
   -9   -9   19      1.05      0.00
   -8   -9   19      2.10      0.00
   -7   -9   19     -0.07      0.00
   -6   -9   19     -0.92      0.00
   -5   -9   19      0.75      0.00
   -4   -9   19      1.10      0.00
   -3   -9   19      2.01      0.00
   -2   -9   19      0.52      0.00
   -1   -9   19      0.82      0.00
    0   -9   19      0.37      0.00
    1   -9   19      1.01      0.00
    2   -9   19      0.14      0.00
    3   -9   19      0.03      0.00
    4   -9   19      0.35      0.00
    5   -9   19      0.97      0.00
    6   -9   19      0.01      0.00
    7   -9   19      0.37      0.00
  -11   -8   19     -1.08      0.00
  -10   -8   19     -0.70      0.00
   -9   -8   19     -2.13      0.00
   -8   -8   19     -0.81      0.00
   -7   -8   19      1.55      0.00
   -6   -8   19      0.15      0.00
   -5   -8   19     -1.20      0.00
   -4   -8   19     -0.50      0.00
   -3   -8   19     -0.71      0.00
   -2   -8   19     -0.87      0.00
   -1   -8   19      0.63      0.00
    0   -8   19      0.16      0.00
    1   -8   19     -0.71      0.00
    2   -8   19     -0.04      0.00
    3   -8   19      0.10      0.00
    4   -8   19      0.15      0.00
    5   -8   19      0.95      0.00
    6   -8   19     -1.56      0.00
    7   -8   19     -0.76      0.00
    8   -8   19      0.28      0.00
  -12   -7   19      1.80      0.00
  -11   -7   19      0.88      0.00
  -10   -7   19      0.41      0.00
   -9   -7   19     -0.48      0.00
   -8   -7   19     -0.87      0.00
   -7   -7   19     -0.55      0.00
   -6   -7   19      1.27      0.00
   -5   -7   19      0.32      0.00
   -4   -7   19     -0.45      0.00
   -3   -7   19     -0.44      0.00
   -2   -7   19      0.21      0.00
   -1   -7   19     -0.82      0.00
    0   -7   19      1.01      0.00
    1   -7   19      0.28      0.00
    2   -7   19      0.23      0.00
    3   -7   19     -0.21      0.00
    4   -7   19     -0.60      0.00
    5   -7   19      0.03      0.00
    6   -7   19      1.79      0.00
    7   -7   19     -1.05      0.00
    8   -7   19     -0.43      0.00
  -12   -6   19     -0.10      0.00
  -11   -6   19      0.30      0.00
  -10   -6   19     -0.15      0.00
   -9   -6   19      1.41      0.00
   -8   -6   19     -0.07      0.00
   -7   -6   19     -0.53      0.00
   -6   -6   19     -0.13      0.00
   -5   -6   19      0.75      0.00
   -4   -6   19      0.56      0.00
   -3   -6   19      0.34      0.00
   -2   -6   19      0.54      0.00
   -1   -6   19     -0.56      0.00
    0   -6   19      0.18      0.00
    1   -6   19      0.12      0.00
    2   -6   19      0.65      0.00
    3   -6   19      0.83      0.00
    4   -6   19     -0.03      0.00
    5   -6   19     -0.90      0.00
    6   -6   19     -0.44      0.00
    7   -6   19      0.77      0.00
    8   -6   19     -1.26      0.00
  -13   -5   19      0.88      0.00
  -12   -5   19     -2.05      0.00
  -11   -5   19     -0.70      0.00
  -10   -5   19     -0.44      0.00
   -9   -5   19     -1.86      0.00
   -8   -5   19      0.60      0.00
   -7   -5   19      1.15      0.00
   -6   -5   19     -0.48      0.00
   -5   -5   19     -0.11      0.00
   -4   -5   19     -0.02      0.00
   -3   -5   19     -0.58      0.00
   -2   -5   19     -0.27      0.00
   -1   -5   19      1.37      0.00
    0   -5   19     -0.22      0.00
    1   -5   19      1.06      0.00
    2   -5   19     -1.84      0.00
    3   -5   19      0.54      0.00
    4   -5   19      0.75      0.00
    5   -5   19      0.38      0.00
    6   -5   19     -0.29      0.00
    7   -5   19     -0.73      0.00
    8   -5   19      1.62      0.00
    9   -5   19     -0.51      0.00
  -13   -4   19      1.89      0.00
  -12   -4   19      2.98      0.00
  -11   -4   19     -1.37      0.00
  -10   -4   19     -0.57      0.00
   -9   -4   19      0.57      0.00
   -8   -4   19     -1.92      0.00
   -7   -4   19     -0.91      0.00
   -6   -4   19      1.71      0.00
   -5   -4   19      0.01      0.00
   -4   -4   19      0.11      0.00
   -3   -4   19      1.15      0.00
   -2   -4   19     -0.12      0.00
   -1   -4   19      0.06      0.00
    0   -4   19     -0.33      0.00
    1   -4   19      0.26      0.00
    2   -4   19      0.79      0.00
    3   -4   19     -1.98      0.00
    4   -4   19      0.56      0.00
    5   -4   19     -0.06      0.00
    6   -4   19      0.97      0.00
    7   -4   19      0.52      0.00
    8   -4   19     -0.73      0.00
    9   -4   19      1.75      0.00
  -13   -3   19     -2.08      0.00
  -12   -3   19     -0.29      0.00
  -11   -3   19      2.63      0.00
  -10   -3   19     -0.22      0.00
   -9   -3   19     -0.46      0.00
   -8   -3   19      1.48      0.00
   -7   -3   19     -1.41      0.00
   -6   -3   19     -1.57      0.00
   -5   -3   19      0.91      0.00
   -4   -3   19     -0.05      0.00
   -3   -3   19     -1.10      0.00
   -2   -3   19     -0.13      0.00
   -1   -3   19     -0.89      0.00
    0   -3   19      0.86      0.00
    1   -3   19     -0.25      0.00
    2   -3   19      1.27      0.00
    3   -3   19     -0.36      0.00
    4   -3   19     -1.28      0.00
    5   -3   19      0.14      0.00
    6   -3   19     -1.35      0.00
    7   -3   19      0.36      0.00
    8   -3   19     -0.78      0.00
    9   -3   19     -0.07      0.00
  -13   -2   19      1.33      0.00
  -12   -2   19     -0.98      0.00
  -11   -2   19     -1.99      0.00
  -10   -2   19      0.42      0.00
   -9   -2   19     -0.15      0.00
   -8   -2   19     -0.22      0.00
   -7   -2   19      2.13      0.00
   -6   -2   19     -0.38      0.00
   -5   -2   19     -0.82      0.00
   -4   -2   19      0.78      0.00
   -3   -2   19      1.29      0.00
   -2   -2   19      0.85      0.00
   -1   -2   19     -0.10      0.00
    0   -2   19     -1.74      0.00
    1   -2   19     -1.17      0.00
    2   -2   19      0.00      0.00
    3   -2   19      1.66      0.00
    4   -2   19     -0.02      0.00
    5   -2   19      0.82      0.00
    6   -2   19      0.71      0.00
    7   -2   19     -1.06      0.00
    8   -2   19      0.28      0.00
    9   -2   19     -1.02      0.00
  -14   -1   19     -1.27      0.00
  -13   -1   19      1.08      0.00
  -12   -1   19      0.55      0.00
  -11   -1   19     -0.01      0.00
  -10   -1   19     -2.05      0.00
   -9   -1   19     -0.59      0.00
   -8   -1   19     -1.32      0.00
   -7   -1   19     -1.08      0.00
   -6   -1   19      0.71      0.00
   -5   -1   19      0.05      0.00
   -4   -1   19     -0.56      0.00
   -3   -1   19     -0.82      0.00
   -2   -1   19     -0.24      0.00
   -1   -1   19      1.77      0.00
    0   -1   19      1.80      0.00
    1   -1   19      0.91      0.00
    2   -1   19     -0.99      0.00
    3   -1   19      0.32      0.00
    4   -1   19      1.01      0.00
    5   -1   19     -0.80      0.00
    6   -1   19      0.13      0.00
    7   -1   19      0.92      0.00
    8   -1   19     -0.43      0.00
    9   -1   19     -1.15      0.00
  -14    0   19     -0.49      0.00
  -13    0   19      0.27      0.00
  -12    0   19      0.89      0.00
  -11    0   19      0.63      0.00
  -10    0   19      0.61      0.00
   -9    0   19     -0.20      0.00
   -8    0   19      1.78      0.00
   -7    0   19      0.21      0.00
   -6    0   19     -0.09      0.00
   -5    0   19     -0.64      0.00
   -4    0   19      0.16      0.00
   -3    0   19      0.88      0.00
   -2    0   19     -0.22      0.00
   -1    0   19     -1.55      0.00
    0    0   19     -1.05      0.00
    1    0   19     -0.27      0.00
    2    0   19      1.14      0.00
    3    0   19     -0.40      0.00
    4    0   19     -0.47      0.00
    5    0   19      1.61      0.00
    6    0   19      0.87      0.00
    7    0   19     -0.48      0.00
    8    0   19      1.35      0.00
    9    0   19      1.30      0.00
  -14    1   19      1.05      0.00
  -13    1   19     -1.39      0.00
  -12    1   19      0.60      0.00
  -11    1   19      0.93      0.00
  -10    1   19      1.07      0.00
   -9    1   19     -0.15      0.00
   -8    1   19     -0.88      0.00
   -7    1   19      0.74      0.00
   -6    1   19      0.37      0.00
   -5    1   19      0.34      0.00
   -4    1   19     -0.87      0.00
   -3    1   19     -0.44      0.00
   -2    1   19      0.29      0.00
   -1    1   19      0.68      0.00
    0    1   19      0.76      0.00
    1    1   19     -0.28      0.00
    2    1   19     -1.15      0.00
    3    1   19      0.50      0.00
    4    1   19      0.14      0.00
    5    1   19     -1.46      0.00
    6    1   19      0.54      0.00
    7    1   19      1.32      0.00
    8    1   19     -0.14      0.00
    9    1   19      0.80      0.00
  -14    2   19     -0.31      0.00
  -13    2   19      1.70      0.00
  -12    2   19     -1.24      0.00
  -11    2   19     -0.12      0.00
  -10    2   19      0.12      0.00
   -9    2   19      0.76      0.00
   -8    2   19      0.52      0.00
   -7    2   19     -0.74      0.00
   -6    2   19     -1.03      0.00
   -5    2   19      0.56      0.00
   -4    2   19      0.00      0.00
   -3    2   19     -0.18      0.00
   -2    2   19      0.40      0.00
   -1    2   19     -0.68      0.00
    0    2   19     -0.98      0.00
    1    2   19      0.18      0.00
    2    2   19      1.10      0.00
    3    2   19      0.91      0.00
    4    2   19      0.89      0.00
    5    2   19      0.45      0.00
    6    2   19     -0.34      0.00
    7    2   19      0.70      0.00
    8    2   19      0.24      0.00
  -14    3   19     -1.06      0.00
  -13    3   19      0.11      0.00
  -12    3   19      2.38      0.00
  -11    3   19     -0.52      0.00
  -10    3   19      0.15      0.00
   -9    3   19     -0.25      0.00
   -8    3   19     -0.13      0.00
   -7    3   19      1.60      0.00
   -6    3   19      0.12      0.00
   -5    3   19     -1.85      0.00
   -4    3   19      0.48      0.00
   -3    3   19     -0.57      0.00
   -2    3   19     -0.28      0.00
   -1    3   19      0.20      0.00
    0    3   19     -0.05      0.00
    1    3   19     -0.48      0.00
    2    3   19     -1.06      0.00
    3    3   19      0.18      0.00
    4    3   19      1.98      0.00
    5    3   19      0.39      0.00
    6    3   19     -0.66      0.00
    7    3   19     -1.02      0.00
    8    3   19     -0.05      0.00
  -14    4   19      1.01      0.00
  -13    4   19     -0.28      0.00
  -12    4   19     -0.44      0.00
  -11    4   19      1.58      0.00
  -10    4   19     -0.32      0.00
   -9    4   19      0.47      0.00
   -8    4   19     -0.12      0.00
   -7    4   19      0.02      0.00
   -6    4   19      1.72      0.00
   -5    4   19      0.44      0.00
   -4    4   19     -0.81      0.00
   -3    4   19      0.20      0.00
   -2    4   19     -0.48      0.00
   -1    4   19      0.19      0.00
    0    4   19     -0.84      0.00
    1    4   19     -0.16      0.00
    2    4   19      0.42      0.00
    3    4   19     -1.12      0.00
    4    4   19     -0.10      0.00
    5    4   19      2.80      0.00
    6    4   19      0.75      0.00
    7    4   19     -0.01      0.00
    8    4   19      0.12      0.00
  -13    5   19      0.75      0.00
  -12    5   19      0.83      0.00
  -11    5   19      0.41      0.00
  -10    5   19      0.52      0.00
   -9    5   19      0.62      0.00
   -8    5   19      0.34      0.00
   -7    5   19     -1.14      0.00
   -6    5   19     -0.04      0.00
   -5    5   19      0.43      0.00
   -4    5   19     -1.00      0.00
   -3    5   19     -0.63      0.00
   -2    5   19     -0.26      0.00
   -1    5   19      0.17      0.00
    0    5   19      0.65      0.00
    1    5   19     -0.95      0.00
    2    5   19     -1.05      0.00
    3    5   19      0.32      0.00
    4    5   19     -1.76      0.00
    5    5   19     -1.83      0.00
    6    5   19      1.03      0.00
    7    5   19      0.77      0.00
    8    5   19     -0.12      0.00
  -13    6   19     -2.31      0.00
  -12    6   19     -0.16      0.00
  -11    6   19      0.51      0.00
  -10    6   19      1.32      0.00
   -9    6   19     -0.31      0.00
   -8    6   19      1.90      0.00
   -7    6   19      1.72      0.00
   -6    6   19     -0.19      0.00
   -5    6   19      1.02      0.00
   -4    6   19      1.28      0.00
   -3    6   19      0.48      0.00
   -2    6   19     -0.21      0.00
   -1    6   19     -0.59      0.00
    0    6   19      0.29      0.00
    1    6   19      0.87      0.00
    2    6   19      0.90      0.00
    3    6   19     -1.05      0.00
    4    6   19      0.79      0.00
    5    6   19      0.94      0.00
    6    6   19      0.01      0.00
    7    6   19      0.43      0.00
  -13    7   19      2.32      0.00
  -12    7   19     -0.61      0.00
  -11    7   19     -1.47      0.00
  -10    7   19     -1.73      0.00
   -9    7   19     -0.97      0.00
   -8    7   19     -2.36      0.00
   -7    7   19      0.30      0.00
   -6    7   19      0.85      0.00
   -5    7   19     -0.11      0.00
   -4    7   19      0.41      0.00
   -3    7   19      0.50      0.00
   -2    7   19      0.95      0.00
   -1    7   19     -0.05      0.00
    0    7   19     -0.01      0.00
    1    7   19     -0.65      0.00
    2    7   19     -0.35      0.00
    3    7   19      1.61      0.00
    4    7   19     -0.46      0.00
    5    7   19     -0.95      0.00
    6    7   19      0.07      0.00
    7    7   19      0.12      0.00
  -12    8   19      1.15      0.00
  -11    8   19      1.85      0.00
  -10    8   19      0.68      0.00
   -9    8   19      0.63      0.00
   -8    8   19     -0.24      0.00
   -7    8   19     -1.43      0.00
   -6    8   19      0.54      0.00
   -5    8   19      0.44      0.00
   -4    8   19     -0.58      0.00
   -3    8   19     -0.61      0.00
   -2    8   19     -0.05      0.00
   -1    8   19     -0.19      0.00
    0    8   19     -1.24      0.00
    1    8   19     -0.32      0.00
    2    8   19     -0.90      0.00
    3    8   19     -0.50      0.00
    4    8   19      1.12      0.00
    5    8   19      1.01      0.00
    6    8   19     -0.18      0.00
  -12    9   19     -0.60      0.00
  -11    9   19     -2.17      0.00
  -10    9   19     -0.92      0.00
   -9    9   19     -0.02      0.00
   -8    9   19      1.56      0.00
   -7    9   19      0.72      0.00
   -6    9   19     -0.43      0.00
   -5    9   19      1.14      0.00
   -4    9   19      1.34      0.00
   -3    9   19      0.59      0.00
   -2    9   19     -0.75      0.00
   -1    9   19      0.21      0.00
    0    9   19      0.35      0.00
    1    9   19      0.51      0.00
    2    9   19      0.37      0.00
    3    9   19     -0.47      0.00
    4    9   19     -0.77      0.00
    5    9   19      0.62      0.00
    6    9   19      0.75      0.00
  -11   10   19      1.30      0.00
  -10   10   19     -0.27      0.00
   -9   10   19     -1.56      0.00
   -8   10   19     -0.61      0.00
   -7   10   19      0.51      0.00
   -6   10   19     -0.58      0.00
   -5   10   19     -1.03      0.00
   -4   10   19     -0.56      0.00
   -3   10   19      0.05      0.00
   -2   10   19      1.12      0.00
   -1   10   19      0.07      0.00
    0   10   19     -0.46      0.00
    1   10   19     -1.17      0.00
    2   10   19     -0.73      0.00
    3   10   19      0.69      0.00
    4   10   19      0.96      0.00
    5   10   19     -1.46      0.00
  -11   11   19     -0.26      0.00
  -10   11   19     -0.73      0.00
   -9   11   19     -0.07      0.00
   -8   11   19      0.10      0.00
   -7   11   19      1.68      0.00
   -6   11   19      2.60      0.00
   -5   11   19      0.35      0.00
   -4   11   19      0.09      0.00
   -3   11   19     -0.38      0.00
   -2   11   19     -0.15      0.00
   -1   11   19      0.49      0.00
    0   11   19      0.46      0.00
    1   11   19      0.11      0.00
    2   11   19      0.45      0.00
    3   11   19     -2.32      0.00
    4   11   19     -0.21      0.00
  -10   12   19      0.22      0.00
   -9   12   19     -1.77      0.00
   -8   12   19     -3.55      0.00
   -7   12   19     -1.94      0.00
   -6   12   19      0.53      0.00
   -5   12   19      1.87      0.00
   -4   12   19      0.82      0.00
   -3   12   19      0.20      0.00
   -2   12   19     -0.23      0.00
   -1   12   19      0.21      0.00
    0   12   19      0.27      0.00
    1   12   19     -0.23      0.00
    2   12   19     -1.34      0.00
    3   12   19      1.45      0.00
   -9   13   19      2.89      0.00
   -8   13   19      2.84      0.00
   -7   13   19     -2.22      0.00
   -6   13   19     -1.84      0.00
   -5   13   19      0.88      0.00
   -4   13   19      0.50      0.00
   -3   13   19      0.55      0.00
   -2   13   19     -0.44      0.00
   -1   13   19      0.08      0.00
    0   13   19     -0.25      0.00
    1   13   19      0.67      0.00
    2   13   19      1.14      0.00
   -7   14   19      3.90      0.00
   -6   14   19     -1.24      0.00
   -5   14   19     -2.43      0.00
   -4   14   19      0.48      0.00
   -3   14   19     -0.64      0.00
   -2   14   19     -0.30      0.00
   -1   14   19     -1.33      0.00
    0   14   19      0.25      0.00
   -4  -14   20      0.62      0.00
   -3  -14   20      2.26      0.00
   -2  -14   20     -0.12      0.00
   -1  -14   20     -0.82      0.00
    0  -14   20      1.83      0.00
    1  -14   20      3.07      0.00
    2  -14   20     -1.03      0.00
   -6  -13   20      2.71      0.00
   -5  -13   20      2.11      0.00
   -4  -13   20     -2.84      0.00
   -3  -13   20     -3.06      0.00
   -2  -13   20      0.68      0.00
   -1  -13   20      0.15      0.00
    0  -13   20     -5.53      0.00
    1  -13   20      0.27      0.00
    2  -13   20      0.98      0.00
    3  -13   20     -0.86      0.00
   -7  -12   20     -0.89      0.00
   -6  -12   20     -0.49      0.00
   -5  -12   20      0.57      0.00
   -4  -12   20      2.69      0.00
   -3  -12   20      1.58      0.00
   -2  -12   20     -1.98      0.00
   -1  -12   20      0.45      0.00
    0  -12   20      2.46      0.00
    1  -12   20     -3.27      0.00
    2  -12   20      0.94      0.00
    3  -12   20     -0.52      0.00
    4  -12   20     -1.55      0.00
   -9  -11   20      0.52      0.00
   -8  -11   20     -0.49      0.00
   -7  -11   20      0.35      0.00
   -6  -11   20     -0.49      0.00
   -5  -11   20      0.61      0.00
   -4  -11   20      0.09      0.00
   -3  -11   20      0.09      0.00
   -2  -11   20      2.63      0.00
   -1  -11   20      0.18      0.00
    0  -11   20      0.50      0.00
    1  -11   20      0.57      0.00
    2  -11   20     -0.92      0.00
    3  -11   20      1.58      0.00
    4  -11   20      1.32      0.00
    5  -11   20     -1.18      0.00
   -9  -10   20      0.01      0.00
   -8  -10   20      1.27      0.00
   -7  -10   20      0.06      0.00
   -6  -10   20     -0.36      0.00
   -5  -10   20     -1.13      0.00
   -4  -10   20     -0.28      0.00
   -3  -10   20      0.64      0.00
   -2  -10   20     -0.96      0.00
   -1  -10   20      0.29      0.00
    0  -10   20      0.13      0.00
    1  -10   20      1.70      0.00
    2  -10   20      0.06      0.00
    3  -10   20     -0.36      0.00
    4  -10   20      0.39      0.00
    5  -10   20      1.38      0.00
    6  -10   20      0.20      0.00
  -10   -9   20      0.51      0.00
   -9   -9   20     -1.29      0.00
   -8   -9   20     -0.80      0.00
   -7   -9   20      1.22      0.00
   -6   -9   20      0.50      0.00
   -5   -9   20     -0.18      0.00
   -4   -9   20     -1.14      0.00
   -3   -9   20     -1.08      0.00
   -2   -9   20     -0.53      0.00
   -1   -9   20      0.87      0.00
    0   -9   20     -0.10      0.00
    1   -9   20     -0.84      0.00
    2   -9   20      0.57      0.00
    3   -9   20      0.02      0.00
    4   -9   20      0.09      0.00
    5   -9   20      0.73      0.00
    6   -9   20     -1.36      0.00
    7   -9   20     -0.69      0.00
  -11   -8   20      1.39      0.00
  -10   -8   20     -0.49      0.00
   -9   -8   20     -0.26      0.00
   -8   -8   20     -0.40      0.00
   -7   -8   20     -0.39      0.00
   -6   -8   20      1.49      0.00
   -5   -8   20      1.02      0.00
   -4   -8   20     -0.01      0.00
   -3   -8   20     -0.60      0.00
   -2   -8   20     -0.17      0.00
   -1   -8   20     -1.38      0.00
    0   -8   20      1.28      0.00
    1   -8   20      0.40      0.00
    2   -8   20      0.17      0.00
    3   -8   20      0.50      0.00
    4   -8   20     -1.09      0.00
    5   -8   20     -0.04      0.00
    6   -8   20      2.19      0.00
    7   -8   20     -1.56      0.00
  -11   -7   20     -0.75      0.00
  -10   -7   20      0.96      0.00
   -9   -7   20      1.49      0.00
   -8   -7   20     -0.29      0.00
   -7   -7   20     -0.77      0.00
   -6   -7   20     -0.79      0.00
   -5   -7   20      0.29      0.00
   -4   -7   20      1.25      0.00
   -3   -7   20      0.38      0.00
   -2   -7   20      0.31      0.00
   -1   -7   20     -0.54      0.00
    0   -7   20      0.17      0.00
    1   -7   20      0.96      0.00
    2   -7   20      0.05      0.00
    3   -7   20      0.23      0.00
    4   -7   20      0.97      0.00
    5   -7   20     -1.44      0.00
    6   -7   20     -0.01      0.00
    7   -7   20      1.91      0.00
  -12   -6   20     -0.77      0.00
  -11   -6   20     -0.15      0.00
  -10   -6   20     -2.02      0.00
   -9   -6   20     -1.58      0.00
   -8   -6   20      1.61      0.00
   -7   -6   20      1.00      0.00
   -6   -6   20     -0.18      0.00
   -5   -6   20      0.27      0.00
   -4   -6   20      0.04      0.00
   -3   -6   20      0.26      0.00
   -2   -6   20      0.93      0.00
   -1   -6   20      1.76      0.00
    0   -6   20     -1.49      0.00
    1   -6   20      0.36      0.00
    2   -6   20     -0.59      0.00
    3   -6   20      0.11      0.00
    4   -6   20      0.84      0.00
    5   -6   20      1.03      0.00
    6   -6   20     -1.36      0.00
    7   -6   20     -1.04      0.00
    8   -6   20      0.52      0.00
  -12   -5   20      1.53      0.00
  -11   -5   20     -1.40      0.00
  -10   -5   20      1.01      0.00
   -9   -5   20     -0.44      0.00
   -8   -5   20     -2.26      0.00
   -7   -5   20      0.29      0.00
   -6   -5   20      1.04      0.00
   -5   -5   20     -0.91      0.00
   -4   -5   20     -0.30      0.00
   -3   -5   20      0.22      0.00
   -2   -5   20     -1.89      0.00
   -1   -5   20     -0.03      0.00
    0   -5   20      0.69      0.00
    1   -5   20      0.09      0.00
    2   -5   20      0.70      0.00
    3   -5   20     -2.02      0.00
    4   -5   20     -1.24      0.00
    5   -5   20     -0.06      0.00
    6   -5   20      1.50      0.00
    7   -5   20      0.76      0.00
    8   -5   20     -0.49      0.00
  -13   -4   20     -1.34      0.00
  -12   -4   20      0.31      0.00
  -11   -4   20      1.86      0.00
  -10   -4   20     -1.41      0.00
   -9   -4   20      0.63      0.00
   -8   -4   20      0.99      0.00
   -7   -4   20     -1.95      0.00
   -6   -4   20      0.00      0.00
   -5   -4   20      1.83      0.00
   -4   -4   20      0.50      0.00
   -3   -4   20      0.43      0.00
   -2   -4   20      1.15      0.00
   -1   -4   20     -1.30      0.00
    0   -4   20      0.21      0.00
    1   -4   20     -0.95      0.00
    2   -4   20      1.36      0.00
    3   -4   20      1.08      0.00
    4   -4   20     -0.35      0.00
    5   -4   20     -0.75      0.00
    6   -4   20     -2.16      0.00
    7   -4   20     -0.71      0.00
    8   -4   20     -0.62      0.00
  -13   -3   20      1.18      0.00
  -12   -3   20     -1.63      0.00
  -11   -3   20     -1.58      0.00
  -10   -3   20      0.28      0.00
   -9   -3   20     -1.05      0.00
   -8   -3   20      0.45      0.00
   -7   -3   20      1.91      0.00
   -6   -3   20     -1.71      0.00
   -5   -3   20     -0.94      0.00
   -4   -3   20      0.42      0.00
   -3   -3   20      0.39      0.00
   -2   -3   20      1.14      0.00
   -1   -3   20      0.50      0.00
    0   -3   20     -0.61      0.00
    1   -3   20     -0.46      0.00
    2   -3   20     -0.31      0.00
    3   -3   20      1.32      0.00
    4   -3   20      0.12      0.00
    5   -3   20      1.13      0.00
    6   -3   20      0.70      0.00
    7   -3   20     -0.83      0.00
    8   -3   20     -0.45      0.00
  -13   -2   20      1.14      0.00
  -12   -2   20      0.93      0.00
  -11   -2   20     -0.54      0.00
  -10   -2   20     -1.74      0.00
   -9   -2   20     -1.00      0.00
   -8   -2   20     -1.71      0.00
   -7   -2   20     -0.35      0.00
   -6   -2   20      1.18      0.00
   -5   -2   20     -0.57      0.00
   -4   -2   20     -0.47      0.00
   -3   -2   20     -0.40      0.00
   -2   -2   20     -0.27      0.00
   -1   -2   20      1.74      0.00
    0   -2   20      1.05      0.00
    1   -2   20      0.32      0.00
    2   -2   20     -1.95      0.00
    3   -2   20      0.45      0.00
    4   -2   20      0.51      0.00
    5   -2   20     -0.98      0.00
    6   -2   20      1.32      0.00
    7   -2   20      1.16      0.00
    8   -2   20      0.78      0.00
  -13   -1   20      0.09      0.00
  -12   -1   20      1.48      0.00
  -11   -1   20      1.50      0.00
  -10   -1   20      1.44      0.00
   -9   -1   20      0.52      0.00
   -8   -1   20      0.79      0.00
   -7   -1   20     -0.58      0.00
   -6   -1   20     -0.01      0.00
   -5   -1   20     -0.37      0.00
   -4   -1   20      0.01      0.00
   -3   -1   20      0.40      0.00
   -2   -1   20     -0.69      0.00
   -1   -1   20     -1.68      0.00
    0   -1   20     -0.51      0.00
    1   -1   20      1.15      0.00
    2   -1   20      1.53      0.00
    3   -1   20     -1.17      0.00
    4   -1   20      0.56      0.00
    5   -1   20      0.54      0.00
    6   -1   20     -1.01      0.00
    7   -1   20     -0.79      0.00
    8   -1   20      0.25      0.00
  -13    0   20     -1.76      0.00
  -12    0   20     -0.81      0.00
  -11    0   20      0.00      0.00
  -10    0   20      0.31      0.00
   -9    0   20      0.12      0.00
   -8    0   20     -0.06      0.00
   -7    0   20      0.09      0.00
   -6    0   20     -0.34      0.00
   -5    0   20      0.16      0.00
   -4    0   20     -0.84      0.00
   -3    0   20     -0.06      0.00
   -2    0   20      0.73      0.00
   -1    0   20      0.57      0.00
    0    0   20     -0.27      0.00
    1    0   20     -1.80      0.00
    2    0   20     -0.67      0.00
    3    0   20      1.07      0.00
    4    0   20      0.62      0.00
    5    0   20      0.25      0.00
    6    0   20      1.37      0.00
    7    0   20      1.99      0.00
    8    0   20      0.00      0.00
  -13    1   20      2.65      0.00
  -12    1   20     -0.74      0.00
  -11    1   20     -0.79      0.00
  -10    1   20     -0.39      0.00
   -9    1   20      0.06      0.00
   -8    1   20     -0.02      0.00
   -7    1   20      0.02      0.00
   -6    1   20     -0.98      0.00
   -5    1   20      0.02      0.00
   -4    1   20     -0.46      0.00
   -3    1   20     -0.27      0.00
   -2    1   20      0.32      0.00
   -1    1   20     -0.66      0.00
    0    1   20     -0.21      0.00
    1    1   20      1.38      0.00
    2    1   20      1.05      0.00
    3    1   20      0.41      0.00
    4    1   20      0.41      0.00
    5    1   20      0.26      0.00
    6    1   20     -1.47      0.00
    7    1   20     -1.21      0.00
    8    1   20     -0.10      0.00
  -13    2   20     -0.23      0.00
  -12    2   20      2.89      0.00
  -11    2   20      0.01      0.00
  -10    2   20      0.12      0.00
   -9    2   20      0.33      0.00
   -8    2   20      0.03      0.00
   -7    2   20      1.36      0.00
   -6    2   20      1.04      0.00
   -5    2   20     -1.21      0.00
   -4    2   20      0.62      0.00
   -3    2   20     -1.40      0.00
   -2    2   20     -0.41      0.00
   -1    2   20      0.95      0.00
    0    2   20     -0.52      0.00
    1    2   20     -1.34      0.00
    2    2   20     -0.86      0.00
    3    2   20      0.53      0.00
    4    2   20      2.22      0.00
    5    2   20      1.73      0.00
    6    2   20      1.07      0.00
    7    2   20      0.04      0.00
    8    2   20      0.05      0.00
  -13    3   20     -1.74      0.00
  -12    3   20     -1.32      0.00
  -11    3   20      2.05      0.00
  -10    3   20     -0.24      0.00
   -9    3   20      0.37      0.00
   -8    3   20      0.53      0.00
   -7    3   20     -1.26      0.00
   -6    3   20      0.73      0.00
   -5    3   20      0.49      0.00
   -4    3   20     -0.75      0.00
   -3    3   20      0.78      0.00
   -2    3   20     -1.17      0.00
   -1    3   20     -0.45      0.00
    0    3   20      0.14      0.00
    1    3   20      0.08      0.00
    2    3   20      0.07      0.00
    3    3   20     -1.81      0.00
    4    3   20     -1.70      0.00
    5    3   20      0.93      0.00
    6    3   20      0.52      0.00
    7    3   20      0.22      0.00
    8    3   20      0.21      0.00
  -13    4   20      3.29      0.00
  -12    4   20      0.76      0.00
  -11    4   20     -0.44      0.00
  -10    4   20      1.56      0.00
   -9    4   20      0.77      0.00
   -8    4   20      0.64      0.00
   -7    4   20      0.96      0.00
   -6    4   20     -0.29      0.00
   -5    4   20      0.45      0.00
   -4    4   20     -0.53      0.00
   -3    4   20      0.14      0.00
   -2    4   20      0.55      0.00
   -1    4   20     -0.10      0.00
    0    4   20      0.38      0.00
    1    4   20     -0.40      0.00
    2    4   20     -0.43      0.00
    3    4   20      1.34      0.00
    4    4   20     -1.14      0.00
    5    4   20     -0.96      0.00
    6    4   20      1.75      0.00
    7    4   20      1.46      0.00
  -13    5   20     -3.27      0.00
  -12    5   20      0.51      0.00
  -11    5   20      0.56      0.00
  -10    5   20     -0.63      0.00
   -9    5   20     -0.79      0.00
   -8    5   20      0.70      0.00
   -7    5   20      0.09      0.00
   -6    5   20     -0.12      0.00
   -5    5   20      0.48      0.00
   -4    5   20      0.94      0.00
   -3    5   20     -0.09      0.00
   -2    5   20      0.15      0.00
   -1    5   20     -0.52      0.00
    0    5   20     -0.03      0.00
    1    5   20      1.06      0.00
    2    5   20      0.92      0.00
    3    5   20     -0.61      0.00
    4    5   20      1.45      0.00
    5    5   20     -0.68      0.00
    6    5   20     -1.82      0.00
    7    5   20     -0.59      0.00
  -13    6   20      3.39      0.00
  -12    6   20     -0.60      0.00
  -11    6   20     -1.03      0.00
  -10    6   20      0.22      0.00
   -9    6   20      0.02      0.00
   -8    6   20     -0.98      0.00
   -7    6   20      0.93      0.00
   -6    6   20      0.75      0.00
   -5    6   20      0.23      0.00
   -4    6   20      0.18      0.00
   -3    6   20      0.02      0.00
   -2    6   20      0.50      0.00
   -1    6   20     -0.41      0.00
    0    6   20     -0.99      0.00
    1    6   20     -1.67      0.00
    2    6   20     -0.52      0.00
    3    6   20      1.78      0.00
    4    6   20      0.32      0.00
    5    6   20      0.98      0.00
    6    6   20      1.13      0.00
    7    6   20      0.11      0.00
  -12    7   20      1.77      0.00
  -11    7   20      1.20      0.00
  -10    7   20     -1.03      0.00
   -9    7   20      0.13      0.00
   -8    7   20     -0.29      0.00
   -7    7   20     -1.12      0.00
   -6    7   20     -0.22      0.00
   -5    7   20     -0.75      0.00
   -4    7   20     -0.14      0.00
   -3    7   20     -0.25      0.00
   -2    7   20     -0.34      0.00
   -1    7   20      0.67      0.00
    0    7   20     -0.81      0.00
    1    7   20      0.42      0.00
    2    7   20     -0.74      0.00
    3    7   20     -1.13      0.00
    4    7   20      0.42      0.00
    5    7   20      0.05      0.00
    6    7   20     -0.65      0.00
  -12    8   20     -0.64      0.00
  -11    8   20     -0.30      0.00
  -10    8   20      0.93      0.00
   -9    8   20      0.50      0.00
   -8    8   20      2.29      0.00
   -7    8   20      1.28      0.00
   -6    8   20      0.40      0.00
   -5    8   20      1.12      0.00
   -4    8   20      0.00      0.00
   -3    8   20      0.39      0.00
   -2    8   20     -0.71      0.00
   -1    8   20     -0.32      0.00
    0    8   20      0.66      0.00
    1    8   20     -0.83      0.00
    2    8   20     -0.39      0.00
    3    8   20     -0.43      0.00
    4    8   20     -0.05      0.00
    5    8   20      1.05      0.00
    6    8   20      0.98      0.00
  -12    9   20      0.91      0.00
  -11    9   20     -0.64      0.00
  -10    9   20     -1.80      0.00
   -9    9   20     -2.37      0.00
   -8    9   20     -1.36      0.00
   -7    9   20      1.36      0.00
   -6    9   20      0.29      0.00
   -5    9   20     -0.18      0.00
   -4    9   20      0.39      0.00
   -3    9   20      0.24      0.00
   -2    9   20      1.81      0.00
   -1    9   20      0.65      0.00
    0    9   20     -0.33      0.00
    1    9   20      0.06      0.00
    2    9   20     -0.01      0.00
    3    9   20      0.17      0.00
    4    9   20     -0.27      0.00
    5    9   20     -1.30      0.00
  -11   10   20      0.94      0.00
  -10   10   20      0.48      0.00
   -9   10   20      0.12      0.00
   -8   10   20     -1.33      0.00
   -7   10   20     -0.40      0.00
   -6   10   20      2.26      0.00
   -5   10   20      0.22      0.00
   -4   10   20      0.02      0.00
   -3   10   20     -0.51      0.00
   -2   10   20     -1.33      0.00
   -1   10   20     -0.22      0.00
    0   10   20      0.15      0.00
    1   10   20     -0.62      0.00
    2   10   20      0.01      0.00
    3   10   20     -1.56      0.00
    4   10   20      0.41      0.00
  -10   11   20      0.49      0.00
   -9   11   20      0.08      0.00
   -8   11   20     -0.50      0.00
   -7   11   20     -1.19      0.00
   -6   11   20     -0.13      0.00
   -5   11   20      2.79      0.00
   -4   11   20      1.49      0.00
   -3   11   20      0.64      0.00
   -2   11   20      0.48      0.00
   -1   11   20     -0.02      0.00
    0   11   20      0.14      0.00
    1   11   20     -0.54      0.00
    2   11   20     -1.06      0.00
    3   11   20      1.99      0.00
   -9   12   20      1.76      0.00
   -8   12   20      1.92      0.00
   -7   12   20     -0.96      0.00
   -6   12   20     -2.23      0.00
   -5   12   20     -1.92      0.00
   -4   12   20     -0.26      0.00
   -3   12   20      0.58      0.00
   -2   12   20     -0.92      0.00
   -1   12   20      0.01      0.00
    0   12   20     -0.33      0.00
    1   12   20      1.44      0.00
    2   12   20      0.38      0.00
   -8   13   20      1.28      0.00
   -7   13   20      4.52      0.00
   -6   13   20      1.17      0.00
   -5   13   20     -0.36      0.00
   -4   13   20     -0.24      0.00
   -3   13   20      0.07      0.00
   -2   13   20      0.70      0.00
   -1   13   20     -1.44      0.00
    0   13   20      0.15      0.00
   -5   14   20      0.29      0.00
   -4   14   20     -0.44      0.00
   -3   14   20      0.12      0.00
   -2   14   20      0.99      0.00
   -5  -13   21      1.09      0.00
   -4  -13   21      4.46      0.00
   -3  -13   21      1.69      0.00
   -2  -13   21     -2.74      0.00
   -1  -13   21      1.04      0.00
    0  -13   21      1.66      0.00
    1  -13   21     -4.72      0.00
    2  -13   21      1.07      0.00
   -7  -12   21      0.43      0.00
   -6  -12   21     -1.75      0.00
   -5  -12   21     -1.95      0.00
   -4  -12   21     -2.26      0.00
   -3  -12   21      0.31      0.00
   -2  -12   21      3.19      0.00
   -1  -12   21     -0.21      0.00
    0  -12   21      2.76      0.00
    1  -12   21      1.91      0.00
    2  -12   21     -1.21      0.00
    3  -12   21      2.57      0.00
   -8  -11   21      0.78      0.00
   -7  -11   21      1.62      0.00
   -6  -11   21      2.03      0.00
   -5  -11   21     -0.58      0.00
   -4  -11   21     -0.11      0.00
   -3  -11   21     -0.52      0.00
   -2  -11   21     -2.18      0.00
   -1  -11   21     -0.68      0.00
    0  -11   21     -1.17      0.00
    1  -11   21      2.22      0.00
    2  -11   21      0.00      0.00
    3  -11   21     -0.87      0.00
    4  -11   21      0.24      0.00
   -9  -10   21     -1.15      0.00
   -8  -10   21     -1.42      0.00
   -7  -10   21     -1.23      0.00
   -6  -10   21      0.10      0.00
   -5  -10   21      0.87      0.00
   -4  -10   21     -1.88      0.00
   -3  -10   21     -1.48      0.00
   -2  -10   21     -0.38      0.00
   -1  -10   21      0.56      0.00
    0  -10   21     -0.87      0.00
    1  -10   21     -1.11      0.00
    2  -10   21      1.29      0.00
    3  -10   21      0.26      0.00
    4  -10   21     -0.13      0.00
    5  -10   21     -0.02      0.00
  -10   -9   21     -0.86      0.00
   -9   -9   21      1.53      0.00
   -8   -9   21      1.56      0.00
   -7   -9   21      0.99      0.00
   -6   -9   21      0.55      0.00
   -5   -9   21      1.49      0.00
   -4   -9   21      1.68      0.00
   -3   -9   21      0.34      0.00
   -2   -9   21      0.29      0.00
   -1   -9   21     -1.09      0.00
    0   -9   21      1.53      0.00
    1   -9   21      0.15      0.00
    2   -9   21     -0.28      0.00
    3   -9   21      0.54      0.00
    4   -9   21     -0.50      0.00
    5   -9   21      0.57      0.00
    6   -9   21      2.47      0.00
  -10   -8   21      0.64      0.00
   -9   -8   21     -0.72      0.00
   -8   -8   21     -1.20      0.00
   -7   -8   21     -0.40      0.00
   -6   -8   21     -0.75      0.00
   -5   -8   21     -0.47      0.00
   -4   -8   21      2.03      0.00
   -3   -8   21      0.66      0.00
   -2   -8   21      0.30      0.00
   -1   -8   21      0.09      0.00
    0   -8   21     -0.03      0.00
    1   -8   21      1.26      0.00
    2   -8   21      0.30      0.00
    3   -8   21      0.21      0.00
    4   -8   21      1.02      0.00
    5   -8   21     -2.13      0.00
    6   -8   21     -0.78      0.00
  -11   -7   21     -0.65      0.00
  -10   -7   21     -1.63      0.00
   -9   -7   21     -0.07      0.00
   -8   -7   21      1.66      0.00
   -7   -7   21      0.76      0.00
   -6   -7   21      0.65      0.00
   -5   -7   21     -1.14      0.00
   -4   -7   21     -2.15      0.00
   -3   -7   21      0.57      0.00
   -2   -7   21      1.30      0.00
   -1   -7   21      1.32      0.00
    0   -7   21     -2.05      0.00
    1   -7   21     -0.37      0.00
    2   -7   21     -0.10      0.00
    3   -7   21     -0.28      0.00
    4   -7   21      0.89      0.00
    5   -7   21      1.77      0.00
    6   -7   21     -1.22      0.00
    7   -7   21     -0.78      0.00
  -11   -6   21     -0.45      0.00
  -10   -6   21      1.15      0.00
   -9   -6   21     -1.20      0.00
   -8   -6   21     -1.68      0.00
   -7   -6   21      0.59      0.00
   -6   -6   21      1.04      0.00
   -5   -6   21      1.75      0.00
   -4   -6   21      1.00      0.00
   -3   -6   21     -0.25      0.00
   -2   -6   21     -2.32      0.00
   -1   -6   21      0.71      0.00
    0   -6   21      1.93      0.00
    1   -6   21     -0.21      0.00
    2   -6   21      0.79      0.00
    3   -6   21     -1.29      0.00
    4   -6   21     -2.15      0.00
    5   -6   21     -0.14      0.00
    6   -6   21      0.77      0.00
    7   -6   21     -0.05      0.00
  -12   -5   21     -0.02      0.00
  -11   -5   21      0.26      0.00
  -10   -5   21     -1.68      0.00
   -9   -5   21      1.21      0.00
   -8   -5   21      0.34      0.00
   -7   -5   21     -1.51      0.00
   -6   -5   21     -0.23      0.00
   -5   -5   21     -0.28      0.00
   -4   -5   21     -0.20      0.00
   -3   -5   21      0.80      0.00
   -2   -5   21      1.77      0.00
   -1   -5   21     -1.86      0.00
    0   -5   21      0.07      0.00
    1   -5   21     -0.74      0.00
    2   -5   21      0.59      0.00
    3   -5   21      2.19      0.00
    4   -5   21      0.15      0.00
    5   -5   21     -1.37      0.00
    6   -5   21     -1.60      0.00
    7   -5   21     -0.79      0.00
  -12   -4   21     -0.96      0.00
  -11   -4   21     -0.45      0.00
  -10   -4   21     -0.13      0.00
   -9   -4   21     -1.65      0.00
   -8   -4   21      0.41      0.00
   -7   -4   21      0.89      0.00
   -6   -4   21     -1.09      0.00
   -5   -4   21      0.65      0.00
   -4   -4   21      0.72      0.00
   -3   -4   21      0.11      0.00
   -2   -4   21      1.56      0.00
   -1   -4   21      1.02      0.00
    0   -4   21     -0.24      0.00
    1   -4   21      0.07      0.00
    2   -4   21     -1.11      0.00
    3   -4   21      0.19      0.00
    4   -4   21      1.34      0.00
    5   -4   21      1.21      0.00
    6   -4   21      0.82      0.00
    7   -4   21     -0.53      0.00
  -12   -3   21      0.34      0.00
  -11   -3   21     -0.47      0.00
  -10   -3   21     -0.41      0.00
   -9   -3   21     -0.42      0.00
   -8   -3   21     -1.18      0.00
   -7   -3   21      0.24      0.00
   -6   -3   21      0.09      0.00
   -5   -3   21     -1.80      0.00
   -4   -3   21     -0.63      0.00
   -3   -3   21     -0.98      0.00
   -2   -3   21     -1.12      0.00
   -1   -3   21      1.64      0.00
    0   -3   21      0.47      0.00
    1   -3   21      0.42      0.00
    2   -3   21     -1.34      0.00
    3   -3   21     -0.35      0.00
    4   -3   21     -0.74      0.00
    5   -3   21     -0.62      0.00
    6   -3   21      0.86      0.00
    7   -3   21      0.71      0.00
    8   -3   21      0.54      0.00
  -13   -2   21      0.43      0.00
  -12   -2   21      1.02      0.00
  -11   -2   21      0.15      0.00
  -10   -2   21      0.70      0.00
   -9   -2   21      0.23      0.00
   -8   -2   21     -0.34      0.00
   -7   -2   21     -0.74      0.00
   -6   -2   21      1.07      0.00
   -5   -2   21      0.34      0.00
   -4   -2   21      0.10      0.00
   -3   -2   21      0.81      0.00
   -2   -2   21     -0.98      0.00
   -1   -2   21     -1.99      0.00
    0   -2   21     -0.52      0.00
    1   -2   21      0.96      0.00
    2   -2   21      1.00      0.00
    3   -2   21     -0.91      0.00
    4   -2   21      1.41      0.00
    5   -2   21      0.09      0.00
    6   -2   21     -1.13      0.00
    7   -2   21     -0.14      0.00
    8   -2   21      0.54      0.00
  -13   -1   21     -1.50      0.00
  -12   -1   21     -0.36      0.00
  -11   -1   21      0.59      0.00
  -10   -1   21     -0.35      0.00
   -9   -1   21      0.79      0.00
   -8   -1   21      0.54      0.00
   -7   -1   21     -0.94      0.00
   -6   -1   21     -0.87      0.00
   -5   -1   21      0.39      0.00
   -4   -1   21     -0.58      0.00
   -3   -1   21      0.16      0.00
   -2   -1   21      1.32      0.00
   -1   -1   21      0.54      0.00
    0   -1   21     -0.50      0.00
    1   -1   21     -1.62      0.00
    2   -1   21      0.89      0.00
    3   -1   21      0.89      0.00
    4   -1   21     -0.08      0.00
    5   -1   21      0.64      0.00
    6   -1   21      0.57      0.00
    7   -1   21      0.30      0.00
    8   -1   21     -1.58      0.00
  -13    0   21      1.77      0.00
  -12    0   21     -1.99      0.00
  -11    0   21     -1.91      0.00
  -10    0   21     -0.97      0.00
   -9    0   21     -1.21      0.00
   -8    0   21      0.07      0.00
   -7    0   21      0.81      0.00
   -6    0   21     -1.28      0.00
   -5    0   21     -0.30      0.00
   -4    0   21     -0.57      0.00
   -3    0   21     -0.46      0.00
   -2    0   21      0.04      0.00
   -1    0   21     -0.18      0.00
    0    0   21      0.44      0.00
    1    0   21      0.81      0.00
    2    0   21     -0.19      0.00
    3    0   21      0.30      0.00
    4    0   21      0.65      0.00
    5    0   21      1.36      0.00
    6    0   21     -0.31      0.00
    7    0   21     -0.21      0.00
    8    0   21      1.32      0.00
  -13    1   21      1.35      0.00
  -12    1   21      4.29      0.00
  -11    1   21      1.21      0.00
  -10    1   21      0.89      0.00
   -9    1   21      0.71      0.00
   -8    1   21     -0.41      0.00
   -7    1   21      0.79      0.00
   -6    1   21      1.17      0.00
   -5    1   21     -0.68      0.00
   -4    1   21      0.95      0.00
   -3    1   21     -1.49      0.00
   -2    1   21     -0.55      0.00
   -1    1   21      0.74      0.00
    0    1   21     -0.53      0.00
    1    1   21     -0.52      0.00
    2    1   21     -0.07      0.00
    3    1   21      0.51      0.00
    4    1   21      0.14      0.00
    5    1   21     -0.06      0.00
    6    1   21      0.74      0.00
    7    1   21     -0.65      0.00
  -13    2   21     -3.74      0.00
  -12    2   21     -2.11      0.00
  -11    2   21      1.55      0.00
  -10    2   21     -0.34      0.00
   -9    2   21      1.01      0.00
   -8    2   21      0.88      0.00
   -7    2   21     -1.71      0.00
   -6    2   21      0.27      0.00
   -5    2   21     -0.14      0.00
   -4    2   21     -0.43      0.00
   -3    2   21      1.52      0.00
   -2    2   21     -1.13      0.00
   -1    2   21     -0.82      0.00
    0    2   21      0.46      0.00
    1    2   21     -0.11      0.00
    2    2   21     -0.08      0.00
    3    2   21     -0.66      0.00
    4    2   21     -0.03      0.00
    5    2   21      1.18      0.00
    6    2   21      1.81      0.00
    7    2   21      1.67      0.00
  -13    3   21      5.37      0.00
  -12    3   21      0.01      0.00
  -11    3   21     -0.75      0.00
  -10    3   21      1.27      0.00
   -9    3   21     -0.69      0.00
   -8    3   21      0.62      0.00
   -7    3   21      1.15      0.00
   -6    3   21     -1.37      0.00
   -5    3   21      0.45      0.00
   -4    3   21     -0.62      0.00
   -3    3   21      0.50      0.00
   -2    3   21      1.10      0.00
   -1    3   21     -0.26      0.00
    0    3   21     -0.07      0.00
    1    3   21      0.53      0.00
    2    3   21      0.27      0.00
    3    3   21      0.93      0.00
    4    3   21     -1.31      0.00
    5    3   21     -1.67      0.00
    6    3   21     -0.58      0.00
    7    3   21      0.40      0.00
  -13    4   21     -2.97      0.00
  -12    4   21      2.51      0.00
  -11    4   21      0.59      0.00
  -10    4   21     -0.51      0.00
   -9    4   21      0.54      0.00
   -8    4   21      0.27      0.00
   -7    4   21      0.61      0.00
   -6    4   21      0.55      0.00
   -5    4   21     -0.38      0.00
   -4    4   21      0.31      0.00
   -3    4   21     -0.95      0.00
   -2    4   21      0.15      0.00
   -1    4   21     -0.44      0.00
    0    4   21     -0.69      0.00
    1    4   21      0.26      0.00
    2    4   21      1.02      0.00
    3    4   21      1.06      0.00
    4    4   21      3.04      0.00
    5    4   21      0.33      0.00
    6    4   21     -0.73      0.00
    7    4   21     -0.58      0.00
  -13    5   21      2.08      0.00
  -12    5   21     -1.78      0.00
  -11    5   21     -0.57      0.00
  -10    5   21      0.22      0.00
   -9    5   21     -0.56      0.00
   -8    5   21     -0.64      0.00
   -7    5   21     -0.05      0.00
   -6    5   21      0.55      0.00
   -5    5   21      0.17      0.00
   -4    5   21     -0.08      0.00
   -3    5   21     -0.15      0.00
   -2    5   21      0.08      0.00
   -1    5   21     -0.21      0.00
    0    5   21     -0.76      0.00
    1    5   21     -1.85      0.00
    2    5   21     -0.71      0.00
    3    5   21      0.41      0.00
    4    5   21     -0.19      0.00
    5    5   21      1.08      0.00
    6    5   21      0.21      0.00
  -12    6   21      2.85      0.00
  -11    6   21      1.72      0.00
  -10    6   21     -0.05      0.00
   -9    6   21      1.43      0.00
   -8    6   21      1.07      0.00
   -7    6   21      0.44      0.00
   -6    6   21     -0.73      0.00
   -5    6   21     -0.93      0.00
   -4    6   21      0.25      0.00
   -3    6   21     -0.25      0.00
   -2    6   21     -0.78      0.00
   -1    6   21      0.40      0.00
    0    6   21     -1.07      0.00
    1    6   21      0.37      0.00
    2    6   21     -1.35      0.00
    3    6   21     -1.27      0.00
    4    6   21      0.17      0.00
    5    6   21      0.78      0.00
    6    6   21      1.03      0.00
  -12    7   21     -2.13      0.00
  -11    7   21     -0.90      0.00
  -10    7   21      0.02      0.00
   -9    7   21     -1.13      0.00
   -8    7   21      0.76      0.00
   -7    7   21      1.06      0.00
   -6    7   21      1.94      0.00
   -5    7   21      1.12      0.00
   -4    7   21     -0.61      0.00
   -3    7   21      1.35      0.00
   -2    7   21      0.20      0.00
   -1    7   21      0.47      0.00
    0    7   21      1.52      0.00
    1    7   21     -0.92      0.00
    2    7   21      0.34      0.00
    3    7   21     -0.06      0.00
    4    7   21     -0.27      0.00
    5    7   21     -0.50      0.00
  -11    8   21     -0.29      0.00
  -10    8   21     -0.58      0.00
   -9    8   21     -0.82      0.00
   -8    8   21     -1.27      0.00
   -7    8   21      0.68      0.00
   -6    8   21     -0.34      0.00
   -5    8   21      0.64      0.00
   -4    8   21      0.80      0.00
   -3    8   21     -0.79      0.00
   -2    8   21      1.25      0.00
   -1    8   21     -0.83      0.00
    0    8   21     -1.25      0.00
    1    8   21     -0.12      0.00
    2    8   21     -0.48      0.00
    3    8   21     -0.30      0.00
    4    8   21     -0.43      0.00
    5    8   21      0.46      0.00
  -11    9   21      0.36      0.00
  -10    9   21     -0.10      0.00
   -9    9   21      0.23      0.00
   -8    9   21     -0.97      0.00
   -7    9   21     -0.68      0.00
   -6    9   21      2.26      0.00
   -5    9   21      0.08      0.00
   -4    9   21      0.73      0.00
   -3    9   21      0.30      0.00
   -2    9   21     -1.38      0.00
   -1    9   21      0.50      0.00
    0    9   21      0.43      0.00
    1    9   21     -0.21      0.00
    2    9   21      0.14      0.00
    3    9   21     -0.04      0.00
    4    9   21      0.90      0.00
  -10   10   21      0.64      0.00
   -9   10   21      1.05      0.00
   -8   10   21      1.40      0.00
   -7   10   21     -1.46      0.00
   -6   10   21     -1.76      0.00
   -5   10   21      1.57      0.00
   -4   10   21      0.13      0.00
   -3   10   21      0.61      0.00
   -2   10   21      0.71      0.00
   -1   10   21     -0.77      0.00
    0   10   21     -0.63      0.00
    1   10   21     -1.26      0.00
    2   10   21     -1.03      0.00
    3   10   21      0.98      0.00
   -9   11   21      0.37      0.00
   -8   11   21      2.05      0.00
   -7   11   21      2.76      0.00
   -6   11   21     -0.30      0.00
   -5   11   21     -1.88      0.00
   -4   11   21     -0.11      0.00
   -3   11   21      0.26      0.00
   -2   11   21     -0.31      0.00
   -1   11   21      0.60      0.00
    0   11   21      0.29      0.00
    1   11   21      2.11      0.00
    2   11   21     -0.14      0.00
   -8   12   21     -1.05      0.00
   -7   12   21      1.59      0.00
   -6   12   21      1.76      0.00
   -5   12   21      0.40      0.00
   -4   12   21     -0.82      0.00
   -3   12   21     -0.11      0.00
   -2   12   21      0.50      0.00
   -1   12   21     -1.13      0.00
    0   12   21     -0.50      0.00
    1   12   21     -2.09      0.00
   -6   13   21      2.26      0.00
   -5   13   21      1.42      0.00
   -4   13   21      0.52      0.00
   -3   13   21     -0.32      0.00
   -2   13   21      1.27      0.00
   -1   13   21      0.95      0.00
   -3  -13   22      0.29      0.00
   -2  -13   22      1.86      0.00
   -1  -13   22     -2.01      0.00
    0  -13   22      2.66      0.00
   -6  -12   22      2.41      0.00
   -5  -12   22     -0.06      0.00
   -4  -12   22     -0.66      0.00
   -3  -12   22     -2.26      0.00
   -2  -12   22     -2.45      0.00
   -1  -12   22     -0.90      0.00
    0  -12   22     -2.02      0.00
    1  -12   22      3.14      0.00
    2  -12   22      0.22      0.00
   -7  -11   22     -2.11      0.00
   -6  -11   22      0.86      0.00
   -5  -11   22      2.85      0.00
   -4  -11   22      0.29      0.00
   -3  -11   22      0.59      0.00
   -2  -11   22      0.66      0.00
   -1  -11   22      0.81      0.00
    0  -11   22     -1.84      0.00
    1  -11   22     -2.27      0.00
    2  -11   22      1.24      0.00
    3  -11   22     -0.25      0.00
   -8  -10   22      1.74      0.00
   -7  -10   22      1.10      0.00
   -6  -10   22     -1.98      0.00
   -5  -10   22     -0.27      0.00
   -4  -10   22      1.28      0.00
   -3  -10   22      0.22      0.00
   -2  -10   22      0.23      0.00
   -1  -10   22     -0.83      0.00
    0  -10   22      2.48      0.00
    1  -10   22      0.50      0.00
    2  -10   22     -0.11      0.00
    3  -10   22      0.98      0.00
    4  -10   22      0.26      0.00
   -9   -9   22     -1.07      0.00
   -8   -9   22     -0.77      0.00
   -7   -9   22      1.23      0.00
   -6   -9   22      0.68      0.00
   -5   -9   22     -0.75      0.00
   -4   -9   22      2.05      0.00
   -3   -9   22      0.74      0.00
   -2   -9   22      1.12      0.00
   -1   -9   22      1.32      0.00
    0   -9   22     -1.03      0.00
    1   -9   22      0.51      0.00
    2   -9   22      0.16      0.00
    3   -9   22     -0.19      0.00
    4   -9   22      0.84      0.00
    5   -9   22     -1.54      0.00
  -10   -8   22     -0.91      0.00
   -9   -8   22     -0.36      0.00
   -8   -8   22      0.15      0.00
   -7   -8   22     -0.18      0.00
   -6   -8   22      1.74      0.00
   -5   -8   22     -2.05      0.00
   -4   -8   22     -3.56      0.00
   -3   -8   22      0.73      0.00
   -2   -8   22     -0.02      0.00
   -1   -8   22      0.46      0.00
    0   -8   22     -0.34      0.00
    1   -8   22      0.00      0.00
    2   -8   22      0.60      0.00
    3   -8   22      0.28      0.00
    4   -8   22      0.26      0.00
    5   -8   22      1.11      0.00
    6   -8   22     -2.18      0.00
  -10   -7   22      1.37      0.00
   -9   -7   22      0.27      0.00
   -8   -7   22      0.07      0.00
   -7   -7   22     -0.24      0.00
   -6   -7   22      0.45      0.00
   -5   -7   22      4.32      0.00
   -4   -7   22      0.58      0.00
   -3   -7   22     -1.37      0.00
   -2   -7   22     -1.34      0.00
   -1   -7   22      0.87      0.00
    0   -7   22      1.61      0.00
    1   -7   22     -0.81      0.00
    2   -7   22     -0.38      0.00
    3   -7   22     -0.93      0.00
    4   -7   22     -1.37      0.00
    5   -7   22      0.88      0.00
    6   -7   22      1.76      0.00
  -11   -6   22     -0.80      0.00
  -10   -6   22     -2.31      0.00
   -9   -6   22     -0.05      0.00
   -8   -6   22     -0.23      0.00
   -7   -6   22      0.31      0.00
   -6   -6   22     -1.06      0.00
   -5   -6   22     -1.24      0.00
   -4   -6   22      1.82      0.00
   -3   -6   22      1.43      0.00
   -2   -6   22      2.08      0.00
   -1   -6   22     -1.57      0.00
    0   -6   22      0.52      0.00
    1   -6   22      0.68      0.00
    2   -6   22      0.71      0.00
    3   -6   22      2.38      0.00
    4   -6   22     -0.06      0.00
    5   -6   22     -2.41      0.00
    6   -6   22     -1.84      0.00
  -11   -5   22      0.63      0.00
  -10   -5   22      0.37      0.00
   -9   -5   22     -0.99      0.00
   -8   -5   22     -0.01      0.00
   -7   -5   22     -0.49      0.00
   -6   -5   22      0.06      0.00
   -5   -5   22     -0.28      0.00
   -4   -5   22     -0.87      0.00
   -3   -5   22     -0.81      0.00
   -2   -5   22      0.48      0.00
   -1   -5   22      0.95      0.00
    0   -5   22     -0.66      0.00
    1   -5   22     -0.15      0.00
    2   -5   22     -1.87      0.00
    3   -5   22     -1.13      0.00
    4   -5   22      2.19      0.00
    5   -5   22      1.79      0.00
    6   -5   22      1.34      0.00
    7   -5   22     -0.33      0.00
  -12   -4   22     -0.68      0.00
  -11   -4   22     -0.81      0.00
  -10   -4   22      0.07      0.00
   -9   -4   22     -0.22      0.00
   -8   -4   22     -0.36      0.00
   -7   -4   22      0.89      0.00
   -6   -4   22     -0.08      0.00
   -5   -4   22     -0.15      0.00
   -4   -4   22      0.68      0.00
   -3   -4   22     -0.29      0.00
   -2   -4   22     -1.12      0.00
   -1   -4   22      1.24      0.00
    0   -4   22     -0.12      0.00
    1   -4   22      0.38      0.00
    2   -4   22      0.04      0.00
    3   -4   22     -1.00      0.00
    4   -4   22     -1.59      0.00
    5   -4   22     -0.49      0.00
    6   -4   22     -0.01      0.00
    7   -4   22      0.59      0.00
  -12   -3   22      0.85      0.00
  -11   -3   22     -0.79      0.00
  -10   -3   22     -0.04      0.00
   -9   -3   22      0.13      0.00
   -8   -3   22     -0.83      0.00
   -7   -3   22     -0.82      0.00
   -6   -3   22      1.31      0.00
   -5   -3   22     -0.07      0.00
   -4   -3   22     -0.33      0.00
   -3   -3   22      0.97      0.00
   -2   -3   22     -1.12      0.00
   -1   -3   22     -1.70      0.00
    0   -3   22      0.17      0.00
    1   -3   22      0.63      0.00
    2   -3   22      0.59      0.00
    3   -3   22     -0.26      0.00
    4   -3   22      0.50      0.00
    5   -3   22     -0.62      0.00
    6   -3   22     -1.40      0.00
    7   -3   22     -0.25      0.00
  -12   -2   22     -0.35      0.00
  -11   -2   22      0.56      0.00
  -10   -2   22     -1.44      0.00
   -9   -2   22      0.24      0.00
   -8   -2   22      0.49      0.00
   -7   -2   22     -1.58      0.00
   -6   -2   22     -1.23      0.00
   -5   -2   22      0.98      0.00
   -4   -2   22      0.22      0.00
   -3   -2   22      0.61      0.00
   -2   -2   22      1.85      0.00
   -1   -2   22     -0.05      0.00
    0   -2   22     -1.08      0.00
    1   -2   22     -1.44      0.00
    2   -2   22      1.49      0.00
    3   -2   22      0.90      0.00
    4   -2   22      0.02      0.00
    5   -2   22      1.34      0.00
    6   -2   22      0.98      0.00
    7   -2   22     -0.60      0.00
  -12   -1   22     -1.70      0.00
  -11   -1   22     -0.93      0.00
  -10   -1   22      0.39      0.00
   -9   -1   22     -1.28      0.00
   -8   -1   22     -0.02      0.00
   -7   -1   22      1.24      0.00
   -6   -1   22     -1.57      0.00
   -5   -1   22     -0.76      0.00
   -4   -1   22     -0.61      0.00
   -3   -1   22     -0.72      0.00
   -2   -1   22      0.08      0.00
   -1   -1   22      0.72      0.00
    0   -1   22      1.40      0.00
    1   -1   22      0.42      0.00
    2   -1   22     -1.09      0.00
    3   -1   22      0.15      0.00
    4   -1   22      0.21      0.00
    5   -1   22     -0.15      0.00
    6   -1   22     -0.62      0.00
    7   -1   22      0.38      0.00
  -12    0   22      3.09      0.00
  -11    0   22      0.07      0.00
  -10    0   22      0.04      0.00
   -9    0   22      0.91      0.00
   -8    0   22     -0.41      0.00
   -7    0   22     -0.22      0.00
   -6    0   22      0.73      0.00
   -5    0   22     -0.77      0.00
   -4    0   22      0.87      0.00
   -3    0   22     -1.04      0.00
   -2    0   22     -0.92      0.00
   -1    0   22     -0.29      0.00
    0    0   22     -1.37      0.00
    1    0   22      0.18      0.00
    2    0   22      0.53      0.00
    3    0   22      0.86      0.00
    4    0   22     -0.16      0.00
    5    0   22      0.70      0.00
    6    0   22      1.28      0.00
    7    0   22     -0.33      0.00
  -12    1   22     -0.63      0.00
  -11    1   22      2.01      0.00
  -10    1   22      0.27      0.00
   -9    1   22      0.44      0.00
   -8    1   22      0.31      0.00
   -7    1   22     -1.02      0.00
   -6    1   22     -0.07      0.00
   -5    1   22     -0.67      0.00
   -4    1   22      0.01      0.00
   -3    1   22      1.96      0.00
   -2    1   22     -0.36      0.00
   -1    1   22     -0.29      0.00
    0    1   22      1.13      0.00
    1    1   22     -0.07      0.00
    2    1   22      0.04      0.00
    3    1   22      0.25      0.00
    4    1   22      0.59      0.00
    5    1   22     -0.62      0.00
    6    1   22      0.93      0.00
    7    1   22      0.85      0.00
  -12    2   22     -1.80      0.00
  -11    2   22     -1.22      0.00
  -10    2   22      0.20      0.00
   -9    2   22     -0.60      0.00
   -8    2   22      0.82      0.00
   -7    2   22      0.32      0.00
   -6    2   22     -1.31      0.00
   -5    2   22      0.08      0.00
   -4    2   22     -1.70      0.00
   -3    2   22      0.02      0.00
   -2    2   22      0.95      0.00
   -1    2   22     -0.69      0.00
    0    2   22     -1.10      0.00
    1    2   22      0.96      0.00
    2    2   22      0.76      0.00
    3    2   22      0.81      0.00
    4    2   22      0.96      0.00
    5    2   22      0.32      0.00
    6    2   22     -0.98      0.00
    7    2   22      0.99      0.00
  -12    3   22      4.08      0.00
  -11    3   22      0.49      0.00
  -10    3   22      0.39      0.00
   -9    3   22      0.42      0.00
   -8    3   22     -0.13      0.00
   -7    3   22      1.20      0.00
   -6    3   22      0.22      0.00
   -5    3   22     -0.21      0.00
   -4    3   22      0.28      0.00
   -3    3   22     -1.27      0.00
   -2    3   22      0.26      0.00
   -1    3   22      0.51      0.00
    0    3   22     -0.26      0.00
    1    3   22     -0.71      0.00
    2    3   22      0.94      0.00
    3    3   22      0.97      0.00
    4    3   22      1.01      0.00
    5    3   22     -0.11      0.00
    6    3   22     -0.71      0.00
  -12    4   22     -2.13      0.00
  -11    4   22      0.51      0.00
  -10    4   22      0.49      0.00
   -9    4   22      0.45      0.00
   -8    4   22      0.09      0.00
   -7    4   22     -0.04      0.00
   -6    4   22      1.12      0.00
   -5    4   22     -0.64      0.00
   -4    4   22     -0.28      0.00
   -3    4   22     -0.66      0.00
   -2    4   22     -0.91      0.00
   -1    4   22     -0.96      0.00
    0    4   22     -0.63      0.00
    1    4   22     -1.51      0.00
    2    4   22     -1.01      0.00
    3    4   22      0.17      0.00
    4    4   22      1.27      0.00
    5    4   22      2.36      0.00
    6    4   22      1.24      0.00
  -12    5   22      2.17      0.00
  -11    5   22      0.69      0.00
  -10    5   22     -0.42      0.00
   -9    5   22      0.71      0.00
   -8    5   22      0.65      0.00
   -7    5   22      0.24      0.00
   -6    5   22     -0.77      0.00
   -5    5   22      0.61      0.00
   -4    5   22      0.91      0.00
   -3    5   22      0.73      0.00
   -2    5   22      0.16      0.00
   -1    5   22      0.87      0.00
    0    5   22     -0.48      0.00
    1    5   22      0.73      0.00
    2    5   22     -1.36      0.00
    3    5   22     -1.75      0.00
    4    5   22     -1.88      0.00
    5    5   22     -0.43      0.00
    6    5   22      0.79      0.00
  -12    6   22     -1.68      0.00
  -11    6   22      0.09      0.00
  -10    6   22      0.73      0.00
   -9    6   22     -0.65      0.00
   -8    6   22      0.46      0.00
   -7    6   22      0.98      0.00
   -6    6   22      2.04      0.00
   -5    6   22      0.08      0.00
   -4    6   22     -0.92      0.00
   -3    6   22      1.08      0.00
   -2    6   22     -0.42      0.00
   -1    6   22      0.06      0.00
    0    6   22      0.58      0.00
    1    6   22     -1.29      0.00
    2    6   22      0.91      0.00
    3    6   22      1.14      0.00
    4    6   22      0.95      0.00
    5    6   22     -0.73      0.00
  -11    7   22     -1.50      0.00
  -10    7   22     -0.82      0.00
   -9    7   22     -0.31      0.00
   -8    7   22     -1.14      0.00
   -7    7   22     -0.22      0.00
   -6    7   22     -0.69      0.00
   -5    7   22      1.61      0.00
   -4    7   22      1.08      0.00
   -3    7   22     -0.71      0.00
   -2    7   22      1.48      0.00
   -1    7   22     -1.24      0.00
    0    7   22     -0.29      0.00
    1    7   22      0.62      0.00
    2    7   22     -0.26      0.00
    3    7   22     -0.92      0.00
    4    7   22     -0.58      0.00
    5    7   22      1.12      0.00
  -11    8   22      1.55      0.00
  -10    8   22      0.27      0.00
   -9    8   22      1.17      0.00
   -8    8   22      0.50      0.00
   -7    8   22     -0.42      0.00
   -6    8   22      1.07      0.00
   -5    8   22     -1.20      0.00
   -4    8   22      0.40      0.00
   -3    8   22     -0.19      0.00
   -2    8   22     -1.79      0.00
   -1    8   22      0.03      0.00
    0    8   22     -1.20      0.00
    1    8   22     -1.26      0.00
    2    8   22     -0.53      0.00
    3    8   22      1.42      0.00
    4    8   22      1.05      0.00
  -10    9   22     -0.27      0.00
   -9    9   22      0.28      0.00
   -8    9   22      2.19      0.00
   -7    9   22     -0.03      0.00
   -6    9   22     -0.99      0.00
   -5    9   22      1.37      0.00
   -4    9   22     -0.26      0.00
   -3    9   22      1.42      0.00
   -2    9   22      1.43      0.00
   -1    9   22      0.22      0.00
    0    9   22      0.27      0.00
    1    9   22     -0.09      0.00
    2    9   22     -0.49      0.00
    3    9   22     -0.71      0.00
  -10   10   22     -1.51      0.00
   -9   10   22     -1.11      0.00
   -8   10   22      0.35      0.00
   -7   10   22      3.13      0.00
   -6   10   22      0.03      0.00
   -5   10   22     -1.60      0.00
   -4   10   22     -0.59      0.00
   -3   10   22     -0.83      0.00
   -2   10   22     -0.45      0.00
   -1   10   22     -0.27      0.00
    0   10   22     -0.43      0.00
    1   10   22      0.76      0.00
    2   10   22     -0.41      0.00
   -8   11   22     -1.63      0.00
   -7   11   22      0.48      0.00
   -6   11   22      3.07      0.00
   -5   11   22      1.84      0.00
   -4   11   22      0.52      0.00
   -3   11   22      0.01      0.00
   -2   11   22      0.32      0.00
   -1   11   22     -0.02      0.00
    0   11   22     -0.58      0.00
    1   11   22     -1.87      0.00
   -7   12   22     -2.33      0.00
   -6   12   22     -0.19      0.00
   -5   12   22      0.35      0.00
   -4   12   22      0.28      0.00
   -3   12   22     -0.04      0.00
   -2   12   22      0.66      0.00
   -1   12   22     -0.02      0.00
   -4  -12   23      1.58      0.00
   -3  -12   23      1.90      0.00
   -2  -12   23      1.51      0.00
   -1  -12   23      2.20      0.00
    0  -12   23     -1.32      0.00
   -6  -11   23     -2.33      0.00
   -5  -11   23     -1.29      0.00
   -4  -11   23      0.87      0.00
   -3  -11   23      0.69      0.00
   -2  -11   23      0.13      0.00
   -1  -11   23     -0.75      0.00
    0  -11   23      3.33      0.00
    1  -11   23      0.31      0.00
    2  -11   23      0.20      0.00
   -7  -10   23      1.28      0.00
   -6  -10   23      1.27      0.00
   -5  -10   23     -1.36      0.00
   -4  -10   23     -0.39      0.00
   -3  -10   23     -1.20      0.00
   -2  -10   23      1.13      0.00
   -1  -10   23      1.25      0.00
    0  -10   23     -2.13      0.00
    1  -10   23      0.50      0.00
    2  -10   23      0.09      0.00
    3  -10   23      0.02      0.00
   -8   -9   23      0.62      0.00
   -7   -9   23     -0.36      0.00
   -6   -9   23      2.41      0.00
   -5   -9   23     -1.19      0.00
   -4   -9   23     -2.04      0.00
   -3   -9   23      1.41      0.00
   -2   -9   23     -1.51      0.00
   -1   -9   23      0.63      0.00
    0   -9   23      1.75      0.00
    1   -9   23     -0.29      0.00
    2   -9   23      0.28      0.00
    3   -9   23      0.21      0.00
    4   -9   23     -0.08      0.00
   -9   -8   23      0.11      0.00
   -8   -8   23      0.38      0.00
   -7   -8   23     -1.26      0.00
   -6   -8   23      0.11      0.00
   -5   -8   23      5.46      0.00
   -4   -8   23     -0.58      0.00
   -3   -8   23     -1.71      0.00
   -2   -8   23      0.17      0.00
   -1   -8   23     -0.45      0.00
    0   -8   23      0.84      0.00
    1   -8   23      0.30      0.00
    2   -8   23     -0.39      0.00
    3   -8   23     -0.05      0.00
    4   -8   23     -0.60      0.00
    5   -8   23      0.75      0.00
  -10   -7   23     -1.47      0.00
   -9   -7   23     -0.09      0.00
   -8   -7   23      0.24      0.00
   -7   -7   23      2.13      0.00
   -6   -7   23     -3.06      0.00
   -5   -7   23     -1.94      0.00
   -4   -7   23      3.67      0.00
   -3   -7   23      0.78      0.00
   -2   -7   23      1.85      0.00
   -1   -7   23     -0.65      0.00
    0   -7   23     -0.34      0.00
    1   -7   23      0.62      0.00
    2   -7   23     -0.04      0.00
    3   -7   23      0.95      0.00
    4   -7   23      0.08      0.00
    5   -7   23     -1.88      0.00
  -10   -6   23     -0.23      0.00
   -9   -6   23     -0.73      0.00
   -8   -6   23     -0.98      0.00
   -7   -6   23     -0.68      0.00
   -6   -6   23      3.08      0.00
   -5   -6   23     -1.18      0.00
   -4   -6   23     -0.75      0.00
   -3   -6   23      0.04      0.00
   -2   -6   23     -0.78      0.00
   -1   -6   23      1.42      0.00
    0   -6   23     -0.08      0.00
    1   -6   23      0.30      0.00
    2   -6   23     -0.41      0.00
    3   -6   23     -1.27      0.00
    4   -6   23      1.64      0.00
    5   -6   23      1.12      0.00
  -11   -5   23      0.01      0.00
  -10   -5   23      1.06      0.00
   -9   -5   23     -0.01      0.00
   -8   -5   23      0.90      0.00
   -7   -5   23      0.32      0.00
   -6   -5   23     -0.85      0.00
   -5   -5   23      1.10      0.00
   -4   -5   23     -0.44      0.00
   -3   -5   23      0.10      0.00
   -2   -5   23     -0.90      0.00
   -1   -5   23     -0.28      0.00
    0   -5   23     -0.85      0.00
    1   -5   23     -0.78      0.00
    2   -5   23     -0.03      0.00
    3   -5   23     -1.12      0.00
    4   -5   23     -1.98      0.00
    5   -5   23     -0.09      0.00
    6   -5   23      0.61      0.00
  -11   -4   23     -2.38      0.00
  -10   -4   23     -1.27      0.00
   -9   -4   23     -0.20      0.00
   -8   -4   23     -1.55      0.00
   -7   -4   23     -0.26      0.00
   -6   -4   23      1.50      0.00
   -5   -4   23      0.88      0.00
   -4   -4   23      1.11      0.00
   -3   -4   23      1.72      0.00
   -2   -4   23      0.18      0.00
   -1   -4   23     -0.59      0.00
    0   -4   23      1.15      0.00
    1   -4   23      0.92      0.00
    2   -4   23      0.74      0.00
    3   -4   23      0.62      0.00
    4   -4   23     -0.27      0.00
    5   -4   23     -1.36      0.00
    6   -4   23     -1.74      0.00
  -11   -3   23      1.95      0.00
  -10   -3   23     -1.12      0.00
   -9   -3   23      0.05      0.00
   -8   -3   23      0.67      0.00
   -7   -3   23     -2.21      0.00
   -6   -3   23     -2.29      0.00
   -5   -3   23     -0.29      0.00
   -4   -3   23     -0.33      0.00
   -3   -3   23     -0.36      0.00
   -2   -3   23      1.38      0.00
   -1   -3   23     -0.55      0.00
    0   -3   23     -1.60      0.00
    1   -3   23     -1.13      0.00
    2   -3   23      0.89      0.00
    3   -3   23      0.68      0.00
    4   -3   23      0.01      0.00
    5   -3   23      1.31      0.00
    6   -3   23      0.47      0.00
  -12   -2   23     -2.65      0.00
  -11   -2   23     -1.42      0.00
  -10   -2   23      0.92      0.00
   -9   -2   23     -1.64      0.00
   -8   -2   23     -0.45      0.00
   -7   -2   23      1.97      0.00
   -6   -2   23     -0.95      0.00
   -5   -2   23     -0.62      0.00
   -4   -2   23     -0.13      0.00
   -3   -2   23     -0.11      0.00
   -2   -2   23      0.18      0.00
   -1   -2   23      0.86      0.00
    0   -2   23      1.21      0.00
    1   -2   23     -0.55      0.00
    2   -2   23     -1.31      0.00
    3   -2   23      0.65      0.00
    4   -2   23      1.16      0.00
    5   -2   23     -0.99      0.00
    6   -2   23      0.58      0.00
  -12   -1   23      3.23      0.00
  -11   -1   23     -0.02      0.00
  -10   -1   23     -0.30      0.00
   -9   -1   23      1.96      0.00
   -8   -1   23     -0.63      0.00
   -7   -1   23     -1.48      0.00
   -6   -1   23      0.77      0.00
   -5   -1   23     -0.92      0.00
   -4   -1   23      0.39      0.00
   -3   -1   23     -0.79      0.00
   -2   -1   23     -0.83      0.00
   -1   -1   23     -0.36      0.00
    0   -1   23     -1.11      0.00
    1   -1   23      1.43      0.00
    2   -1   23      0.50      0.00
    3   -1   23     -0.35      0.00
    4   -1   23     -1.03      0.00
    5   -1   23      0.89      0.00
    6   -1   23     -0.70      0.00
  -12    0   23     -1.29      0.00
  -11    0   23      0.97      0.00
  -10    0   23     -0.51      0.00
   -9    0   23     -1.70      0.00
   -8    0   23      0.62      0.00
   -7    0   23     -0.22      0.00
   -6    0   23     -0.93      0.00
   -5    0   23     -0.68      0.00
   -4    0   23     -0.14      0.00
   -3    0   23      1.57      0.00
   -2    0   23     -0.21      0.00
   -1    0   23     -0.06      0.00
    0    0   23      0.67      0.00
    1    0   23     -0.86      0.00
    2    0   23      0.64      0.00
    3    0   23      2.00      0.00
    4    0   23      1.86      0.00
    5    0   23     -0.27      0.00
    6    0   23      1.72      0.00
  -12    1   23     -0.83      0.00
  -11    1   23     -0.08      0.00
  -10    1   23      0.71      0.00
   -9    1   23      0.73      0.00
   -8    1   23     -0.51      0.00
   -7    1   23     -0.12      0.00
   -6    1   23     -0.07      0.00
   -5    1   23     -0.10      0.00
   -4    1   23     -1.69      0.00
   -3    1   23     -0.15      0.00
   -2    1   23      1.10      0.00
   -1    1   23     -0.57      0.00
    0    1   23     -0.57      0.00
    1    1   23      1.63      0.00
    2    1   23      0.21      0.00
    3    1   23     -0.97      0.00
    4    1   23      0.89      0.00
    5    1   23     -0.07      0.00
    6    1   23     -1.85      0.00
  -12    2   23      2.47      0.00
  -11    2   23     -0.50      0.00
  -10    2   23      0.66      0.00
   -9    2   23      0.19      0.00
   -8    2   23      0.85      0.00
   -7    2   23      0.77      0.00
   -6    2   23     -0.70      0.00
   -5    2   23      0.24      0.00
   -4    2   23     -0.37      0.00
   -3    2   23     -1.76      0.00
   -2    2   23     -0.53      0.00
   -1    2   23      0.85      0.00
    0    2   23     -0.71      0.00
    1    2   23     -1.85      0.00
    2    2   23      1.55      0.00
    3    2   23      1.67      0.00
    4    2   23      0.33      0.00
    5    2   23      1.63      0.00
    6    2   23      0.37      0.00
  -12    3   23     -0.65      0.00
  -11    3   23      1.02      0.00
  -10    3   23      0.07      0.00
   -9    3   23      0.58      0.00
   -8    3   23     -0.49      0.00
   -7    3   23      0.28      0.00
   -6    3   23      1.39      0.00
   -5    3   23     -0.71      0.00
   -4    3   23      1.22      0.00
   -3    3   23     -0.06      0.00
   -2    3   23     -0.58      0.00
   -1    3   23     -1.01      0.00
    0    3   23      1.06      0.00
    1    3   23     -0.06      0.00
    2    3   23     -1.91      0.00
    3    3   23     -0.69      0.00
    4    3   23      0.54      0.00
    5    3   23      0.75      0.00
    6    3   23      1.13      0.00
  -12    4   23      1.14      0.00
  -11    4   23      0.55      0.00
  -10    4   23     -0.16      0.00
   -9    4   23      0.63      0.00
   -8    4   23      0.47      0.00
   -7    4   23     -0.60      0.00
   -6    4   23     -0.57      0.00
   -5    4   23      0.94      0.00
   -4    4   23     -0.02      0.00
   -3    4   23      0.74      0.00
   -2    4   23      0.01      0.00
   -1    4   23      0.09      0.00
    0    4   23     -1.52      0.00
    1    4   23      0.67      0.00
    2    4   23      0.17      0.00
    3    4   23     -0.37      0.00
    4    4   23     -1.41      0.00
    5    4   23     -0.05      0.00
  -11    5   23      0.04      0.00
  -10    5   23      0.45      0.00
   -9    5   23     -0.57      0.00
   -8    5   23      0.31      0.00
   -7    5   23      0.47      0.00
   -6    5   23      0.90      0.00
   -5    5   23     -0.08      0.00
   -4    5   23      0.12      0.00
   -3    5   23      1.34      0.00
   -2    5   23      0.04      0.00
   -1    5   23      1.06      0.00
    0    5   23      0.89      0.00
    1    5   23     -0.73      0.00
    2    5   23      0.76      0.00
    3    5   23      1.25      0.00
    4    5   23      0.87      0.00
    5    5   23     -1.95      0.00
  -11    6   23     -1.02      0.00
  -10    6   23      0.33      0.00
   -9    6   23      0.77      0.00
   -8    6   23      0.29      0.00
   -7    6   23      0.07      0.00
   -6    6   23     -1.04      0.00
   -5    6   23      0.56      0.00
   -4    6   23     -0.41      0.00
   -3    6   23     -1.55      0.00
   -2    6   23     -0.09      0.00
   -1    6   23     -2.98      0.00
    0    6   23     -0.42      0.00
    1    6   23      0.45      0.00
    2    6   23      0.02      0.00
    3    6   23     -0.96      0.00
    4    6   23      0.86      0.00
  -11    7   23      1.08      0.00
  -10    7   23     -1.12      0.00
   -9    7   23      0.53      0.00
   -8    7   23      0.71      0.00
   -7    7   23      0.43      0.00
   -6    7   23      1.22      0.00
   -5    7   23     -0.74      0.00
   -4    7   23      1.02      0.00
   -3    7   23      0.40      0.00
   -2    7   23      0.00      0.00
   -1    7   23      0.89      0.00
    0    7   23     -1.75      0.00
    1    7   23     -1.42      0.00
    2    7   23     -0.25      0.00
    3    7   23      2.07      0.00
    4    7   23     -0.57      0.00
  -10    8   23      0.73      0.00
   -9    8   23     -0.51      0.00
   -8    8   23      1.49      0.00
   -7    8   23      0.42      0.00
   -6    8   23     -0.67      0.00
   -5    8   23      0.77      0.00
   -4    8   23     -0.69      0.00
   -3    8   23      0.78      0.00
   -2    8   23      0.19      0.00
   -1    8   23      0.14      0.00
    0    8   23      0.04      0.00
    1    8   23     -0.15      0.00
    2    8   23     -1.51      0.00
    3    8   23     -1.98      0.00
   -9    9   23     -0.87      0.00
   -8    9   23     -0.60      0.00
   -7    9   23      2.62      0.00
   -6    9   23      1.04      0.00
   -5    9   23     -0.10      0.00
   -4    9   23      0.02      0.00
   -3    9   23     -0.39      0.00
   -2    9   23     -0.10      0.00
   -1    9   23     -0.58      0.00
    0    9   23     -0.19      0.00
    1    9   23      0.38      0.00
    2    9   23      1.09      0.00
   -9   10   23     -0.08      0.00
   -8   10   23     -1.66      0.00
   -7   10   23     -1.07      0.00
   -6   10   23      1.59      0.00
   -5   10   23      1.22      0.00
   -4   10   23      1.12      0.00
   -3   10   23     -0.34      0.00
   -2   10   23      0.10      0.00
   -1   10   23      0.09      0.00
    0   10   23     -1.42      0.00
    1   10   23     -2.59      0.00
   -7   11   23     -1.18      0.00
   -6   11   23     -0.28      0.00
   -5   11   23     -0.33      0.00
   -4   11   23     -0.13      0.00
   -3   11   23      0.80      0.00
   -2   11   23     -0.03      0.00
   -1   11   23     -0.30      0.00
   -4   12   23     -0.01      0.00
   -4  -11   24     -1.80      0.00
   -3  -11   24     -2.10      0.00
   -2  -11   24      1.09      0.00
   -1  -11   24     -0.09      0.00
    0  -11   24     -2.81      0.00
   -6  -10   24      1.16      0.00
   -5  -10   24     -0.36      0.00
   -4  -10   24     -0.15      0.00
   -3  -10   24      0.73      0.00
   -2  -10   24     -2.88      0.00
   -1  -10   24      1.31      0.00
    0  -10   24      2.48      0.00
    1  -10   24     -0.32      0.00
    2  -10   24     -0.02      0.00
   -7   -9   24     -0.42      0.00
   -6   -9   24      0.43      0.00
   -5   -9   24      4.65      0.00
   -4   -9   24     -0.61      0.00
   -3   -9   24      0.35      0.00
   -2   -9   24      1.95      0.00
   -1   -9   24     -1.88      0.00
    0   -9   24      0.16      0.00
    1   -9   24      1.11      0.00
    2   -9   24     -0.01      0.00
    3   -9   24      0.44      0.00
   -8   -8   24     -0.53      0.00
   -7   -8   24      2.53      0.00
   -6   -8   24     -3.93      0.00
   -5   -8   24     -1.57      0.00
   -4   -8   24      3.71      0.00
   -3   -8   24     -1.01      0.00
   -2   -8   24      1.43      0.00
   -1   -8   24      0.55      0.00
    0   -8   24     -1.14      0.00
    1   -8   24      0.55      0.00
    2   -8   24     -0.09      0.00
    3   -8   24     -0.06      0.00
    4   -8   24     -0.41      0.00
   -9   -7   24      1.43      0.00
   -8   -7   24     -1.04      0.00
   -7   -7   24     -0.31      0.00
   -6   -7   24      4.67      0.00
   -5   -7   24     -2.85      0.00
   -4   -7   24     -0.09      0.00
   -3   -7   24      1.22      0.00
   -2   -7   24     -1.99      0.00
   -1   -7   24      1.83      0.00
    0   -7   24      0.08      0.00
    1   -7   24     -0.62      0.00
    2   -7   24      0.35      0.00
    3   -7   24     -1.27      0.00
    4   -7   24      1.37      0.00
  -10   -6   24     -0.36      0.00
   -9   -6   24     -1.52      0.00
   -8   -6   24      2.11      0.00
   -7   -6   24     -0.46      0.00
   -6   -6   24     -0.01      0.00
   -5   -6   24      3.08      0.00
   -4   -6   24     -1.82      0.00
   -3   -6   24      1.58      0.00
   -2   -6   24      0.43      0.00
   -1   -6   24     -1.32      0.00
    0   -6   24      0.40      0.00
    1   -6   24     -0.42      0.00
    2   -6   24      0.36      0.00
    3   -6   24      0.04      0.00
    4   -6   24     -2.61      0.00
    5   -6   24     -0.66      0.00
  -10   -5   24      0.27      0.00
   -9   -5   24      0.27      0.00
   -8   -5   24     -2.49      0.00
   -7   -5   24     -0.06      0.00
   -6   -5   24     -0.68      0.00
   -5   -5   24      0.80      0.00
   -4   -5   24      1.19      0.00
   -3   -5   24      0.00      0.00
   -2   -5   24      0.90      0.00
   -1   -5   24     -0.36      0.00
    0   -5   24      0.07      0.00
    1   -5   24      0.17      0.00
    2   -5   24     -0.53      0.00
    3   -5   24      0.59      0.00
    4   -5   24      0.36      0.00
    5   -5   24     -1.02      0.00
  -11   -4   24      1.26      0.00
  -10   -4   24     -2.14      0.00
   -9   -4   24      0.13      0.00
   -8   -4   24      1.01      0.00
   -7   -4   24     -1.40      0.00
   -6   -4   24     -1.32      0.00
   -5   -4   24     -0.83      0.00
   -4   -4   24      0.69      0.00
   -3   -4   24     -0.51      0.00
   -2   -4   24      1.25      0.00
   -1   -4   24      0.46      0.00
    0   -4   24     -0.97      0.00
    1   -4   24      0.00      0.00
    2   -4   24      0.78      0.00
    3   -4   24      0.64      0.00
    4   -4   24      0.17      0.00
    5   -4   24      0.83      0.00
  -11   -3   24     -0.43      0.00
  -10   -3   24      1.70      0.00
   -9   -3   24     -1.81      0.00
   -8   -3   24     -0.34      0.00
   -7   -3   24      1.73      0.00
   -6   -3   24     -0.39      0.00
   -5   -3   24     -1.03      0.00
   -4   -3   24     -0.79      0.00
   -3   -3   24      0.02      0.00
   -2   -3   24     -1.22      0.00
   -1   -3   24      0.00      0.00
    0   -3   24      0.30      0.00
    1   -3   24     -1.66      0.00
    2   -3   24     -1.41      0.00
    3   -3   24      0.11      0.00
    4   -3   24      1.26      0.00
    5   -3   24     -1.19      0.00
  -11   -2   24     -1.48      0.00
  -10   -2   24     -1.19      0.00
   -9   -2   24      1.84      0.00
   -8   -2   24     -1.74      0.00
   -7   -2   24     -1.61      0.00
   -6   -2   24      1.37      0.00
   -5   -2   24      0.18      0.00
   -4   -2   24      0.64      0.00
   -3   -2   24     -0.02      0.00
   -2   -2   24      0.39      0.00
   -1   -2   24     -0.06      0.00
    0   -2   24     -0.22      0.00
    1   -2   24      2.02      0.00
    2   -2   24      0.34      0.00
    3   -2   24     -1.12      0.00
    4   -2   24     -0.83      0.00
    5   -2   24      1.51      0.00
  -11   -1   24      1.83      0.00
  -10   -1   24     -0.40      0.00
   -9   -1   24     -2.22      0.00
   -8   -1   24      1.77      0.00
   -7   -1   24     -0.82      0.00
   -6   -1   24     -1.63      0.00
   -5   -1   24     -0.23      0.00
   -4   -1   24     -0.49      0.00
   -3   -1   24      0.54      0.00
   -2   -1   24     -0.67      0.00
   -1   -1   24      0.41      0.00
    0   -1   24      0.20      0.00
    1   -1   24     -0.91      0.00
    2   -1   24      0.99      0.00
    3   -1   24      2.27      0.00
    4   -1   24      0.50      0.00
    5   -1   24     -0.97      0.00
  -11    0   24     -1.06      0.00
  -10    0   24      0.77      0.00
   -9    0   24      0.77      0.00
   -8    0   24     -2.17      0.00
   -7    0   24      0.57      0.00
   -6    0   24     -0.07      0.00
   -5    0   24     -0.72      0.00
   -4    0   24     -0.91      0.00
   -3    0   24     -0.16      0.00
   -2    0   24      0.67      0.00
   -1    0   24     -1.36      0.00
    0    0   24     -0.04      0.00
    1    0   24      1.33      0.00
    2    0   24     -0.21      0.00
    3    0   24     -1.17      0.00
    4    0   24      1.98      0.00
    5    0   24      0.69      0.00
  -11    1   24      0.47      0.00
  -10    1   24      0.93      0.00
   -9    1   24      0.67      0.00
   -8    1   24      1.39      0.00
   -7    1   24     -0.42      0.00
   -6    1   24     -0.13      0.00
   -5    1   24      1.18      0.00
   -4    1   24     -0.26      0.00
   -3    1   24     -1.09      0.00
   -2    1   24     -0.29      0.00
   -1    1   24      1.62      0.00
    0    1   24     -0.82      0.00
    1    1   24     -1.69      0.00
    2    1   24      1.71      0.00
    3    1   24      0.73      0.00
    4    1   24     -1.75      0.00
    5    1   24      0.82      0.00
  -11    2   24     -0.48      0.00
  -10    2   24     -0.97      0.00
   -9    2   24      0.01      0.00
   -8    2   24     -0.89      0.00
   -7    2   24     -0.17      0.00
   -6    2   24     -0.30      0.00
   -5    2   24     -1.30      0.00
   -4    2   24      1.56      0.00
   -3    2   24     -0.07      0.00
   -2    2   24     -0.75      0.00
   -1    2   24     -1.59      0.00
    0    2   24      2.07      0.00
    1    2   24      0.97      0.00
    2    2   24     -1.78      0.00
    3    2   24      0.90      0.00
    4    2   24      1.77      0.00
    5    2   24      0.87      0.00
  -11    3   24      1.66      0.00
  -10    3   24      0.16      0.00
   -9    3   24      0.39      0.00
   -8    3   24      0.47      0.00
   -7    3   24     -0.48      0.00
   -6    3   24      0.30      0.00
   -5    3   24      0.87      0.00
   -4    3   24     -0.07      0.00
   -3    3   24      1.25      0.00
   -2    3   24      0.69      0.00
   -1    3   24      0.26      0.00
    0    3   24     -1.95      0.00
    1    3   24      1.09      0.00
    2    3   24      1.42      0.00
    3    3   24     -0.78      0.00
    4    3   24     -2.16      0.00
    5    3   24     -1.15      0.00
  -11    4   24      0.16      0.00
  -10    4   24      0.84      0.00
   -9    4   24      0.17      0.00
   -8    4   24      0.62      0.00
   -7    4   24     -0.07      0.00
   -6    4   24     -0.80      0.00
   -5    4   24     -0.90      0.00
   -4    4   24     -0.64      0.00
   -3    4   24      0.26      0.00
   -2    4   24     -0.76      0.00
   -1    4   24      0.81      0.00
    0    4   24      0.32      0.00
    1    4   24     -0.77      0.00
    2    4   24      0.65      0.00
    3    4   24      2.56      0.00
    4    4   24      2.60      0.00
  -11    5   24     -1.55      0.00
  -10    5   24      0.38      0.00
   -9    5   24      0.31      0.00
   -8    5   24      1.16      0.00
   -7    5   24      1.19      0.00
   -6    5   24     -0.12      0.00
   -5    5   24      0.43      0.00
   -4    5   24     -0.44      0.00
   -3    5   24     -0.91      0.00
   -2    5   24     -0.09      0.00
   -1    5   24     -2.51      0.00
    0    5   24      0.75      0.00
    1    5   24      0.53      0.00
    2    5   24     -0.15      0.00
    3    5   24     -2.21      0.00
    4    5   24      0.37      0.00
  -10    6   24     -1.08      0.00
   -9    6   24      0.59      0.00
   -8    6   24     -0.24      0.00
   -7    6   24      0.65      0.00
   -6    6   24      1.42      0.00
   -5    6   24     -0.44      0.00
   -4    6   24      0.63      0.00
   -3    6   24     -0.32      0.00
   -2    6   24      0.23      0.00
   -1    6   24     -0.56      0.00
    0    6   24     -3.55      0.00
    1    6   24     -1.83      0.00
    2    6   24      0.48      0.00
    3    6   24      2.73      0.00
  -10    7   24      0.89      0.00
   -9    7   24     -1.32      0.00
   -8    7   24      0.79      0.00
   -7    7   24      0.21      0.00
   -6    7   24     -0.20      0.00
   -5    7   24      1.49      0.00
   -4    7   24      0.53      0.00
   -3    7   24      1.22      0.00
   -2    7   24      0.43      0.00
   -1    7   24      2.24      0.00
    0    7   24      1.29      0.00
    1    7   24     -0.04      0.00
    2    7   24     -2.65      0.00
    3    7   24     -2.20      0.00
   -9    8   24      0.99      0.00
   -8    8   24     -0.96      0.00
   -7    8   24      1.12      0.00
   -6    8   24      0.71      0.00
   -5    8   24     -0.43      0.00
   -4    8   24     -0.34      0.00
   -3    8   24     -0.69      0.00
   -2    8   24     -1.79      0.00
   -1    8   24     -2.67      0.00
    0    8   24     -0.86      0.00
    1    8   24      0.08      0.00
    2    8   24      2.22      0.00
   -8    9   24      0.32      0.00
   -7    9   24     -0.62      0.00
   -6    9   24      0.51      0.00
   -5    9   24      0.93      0.00
   -4    9   24      1.44      0.00
   -3    9   24      0.47      0.00
   -2    9   24      1.79      0.00
   -1    9   24      0.82      0.00
    0    9   24     -1.23      0.00
    1    9   24     -2.31      0.00
   -7   10   24     -0.56      0.00
   -6   10   24     -0.05      0.00
   -5   10   24     -1.40      0.00
   -4   10   24     -1.06      0.00
   -3   10   24      0.40      0.00
   -2   10   24     -1.24      0.00
   -1   10   24     -0.40      0.00
   -5   11   24      1.34      0.00
   -4   11   24     -0.13      0.00
   -3   11   24     -0.86      0.00
   -4  -10   25     -1.05      0.00
   -3  -10   25      1.61      0.00
   -2  -10   25      2.08      0.00
   -1  -10   25     -2.28      0.00
    0  -10   25      0.21      0.00
   -6   -9   25     -2.35      0.00
   -5   -9   25     -0.04      0.00
   -4   -9   25      2.71      0.00
   -3   -9   25     -1.61      0.00
   -2   -9   25      1.79      0.00
   -1   -9   25      1.31      0.00
    0   -9   25     -1.63      0.00
    1   -9   25     -0.18      0.00
   -7   -8   25     -0.32      0.00
   -6   -8   25      3.93      0.00
   -5   -8   25     -3.78      0.00
   -4   -8   25      0.33      0.00
   -3   -8   25      1.11      0.00
   -2   -8   25     -2.77      0.00
   -1   -8   25      2.35      0.00
    0   -8   25      0.79      0.00
    1   -8   25     -0.70      0.00
    2   -8   25      0.54      0.00
   -8   -7   25      3.67      0.00
   -7   -7   25     -1.17      0.00
   -6   -7   25      0.87      0.00
   -5   -7   25      3.53      0.00
   -4   -7   25     -3.11      0.00
   -3   -7   25      2.82      0.00
   -2   -7   25      1.20      0.00
   -1   -7   25     -2.70      0.00
    0   -7   25      0.91      0.00
    1   -7   25     -0.70      0.00
    2   -7   25      0.04      0.00
    3   -7   25      0.95      0.00
   -9   -6   25     -1.19      0.00
   -8   -6   25     -3.16      0.00
   -7   -6   25      0.87      0.00
   -6   -6   25     -2.05      0.00
   -5   -6   25      1.99      0.00
   -4   -6   25      1.45      0.00
   -3   -6   25     -2.12      0.00
   -2   -6   25      2.18      0.00
   -1   -6   25      0.85      0.00
    0   -6   25     -0.34      0.00
    1   -6   25      0.91      0.00
    2   -6   25     -1.02      0.00
    3   -6   25      0.33      0.00
    4   -6   25      0.49      0.00
   -9   -5   25      1.83      0.00
   -8   -5   25      0.75      0.00
   -7   -5   25     -0.43      0.00
   -6   -5   25     -0.66      0.00
   -5   -5   25     -2.34      0.00
   -4   -5   25      1.49      0.00
   -3   -5   25     -1.22      0.00
   -2   -5   25     -0.72      0.00
   -1   -5   25      0.43      0.00
    0   -5   25     -1.46      0.00
    1   -5   25     -0.70      0.00
    2   -5   25     -0.06      0.00
    3   -5   25     -0.08      0.00
    4   -5   25      0.71      0.00
  -10   -4   25      0.06      0.00
   -9   -4   25     -2.21      0.00
   -8   -4   25      0.47      0.00
   -7   -4   25      1.02      0.00
   -6   -4   25      1.94      0.00
   -5   -4   25      0.14      0.00
   -4   -4   25     -0.12      0.00
   -3   -4   25      1.95      0.00
   -2   -4   25     -1.49      0.00
   -1   -4   25      0.28      0.00
    0   -4   25      1.15      0.00
    1   -4   25     -0.67      0.00
    2   -4   25     -0.35      0.00
    3   -4   25     -0.72      0.00
    4   -4   25      0.09      0.00
  -10   -3   25     -0.01      0.00
   -9   -3   25      0.57      0.00
   -8   -3   25     -2.61      0.00
   -7   -3   25     -1.44      0.00
   -6   -3   25     -0.10      0.00
   -5   -3   25      0.77      0.00
   -4   -3   25     -0.54      0.00
   -3   -3   25     -0.42      0.00
   -2   -3   25      0.90      0.00
   -1   -3   25     -1.15      0.00
    0   -3   25     -0.42      0.00
    1   -3   25      0.78      0.00
    2   -3   25     -0.20      0.00
    3   -3   25     -1.23      0.00
    4   -3   25     -0.75      0.00
  -10   -2   25     -0.82      0.00
   -9   -2   25     -0.95      0.00
   -8   -2   25      1.82      0.00
   -7   -2   25     -1.62      0.00
   -6   -2   25     -1.18      0.00
   -5   -2   25      0.28      0.00
   -4   -2   25      0.42      0.00
   -3   -2   25      0.10      0.00
   -2   -2   25     -0.48      0.00
   -1   -2   25      1.05      0.00
    0   -2   25     -0.05      0.00
    1   -2   25      0.01      0.00
    2   -2   25      1.21      0.00
    3   -2   25      2.45      0.00
    4   -2   25     -0.59      0.00
  -11   -1   25     -0.70      0.00
  -10   -1   25      1.09      0.00
   -9   -1   25      0.05      0.00
   -8   -1   25     -2.02      0.00
   -7   -1   25      1.43      0.00
   -6   -1   25     -0.96      0.00
   -5   -1   25     -1.08      0.00
   -4   -1   25     -0.13      0.00
   -3   -1   25     -0.02      0.00
   -2   -1   25     -0.19      0.00
   -1   -1   25     -1.75      0.00
    0   -1   25      0.40      0.00
    1   -1   25      0.54      0.00
    2   -1   25     -0.77      0.00
    3   -1   25     -1.38      0.00
    4   -1   25      2.11      0.00
  -11    0   25      0.12      0.00
  -10    0   25     -0.31      0.00
   -9    0   25      0.53      0.00
   -8    0   25      0.17      0.00
   -7    0   25     -1.59      0.00
   -6    0   25      0.53      0.00
   -5    0   25      0.69      0.00
   -4    0   25     -0.50      0.00
   -3    0   25     -0.36      0.00
   -2    0   25      0.28      0.00
   -1    0   25      1.13      0.00
    0    0   25     -1.30      0.00
    1    0   25     -0.86      0.00
    2    0   25      2.24      0.00
    3    0   25      0.58      0.00
    4    0   25     -1.75      0.00
  -11    1   25     -0.32      0.00
  -10    1   25     -0.45      0.00
   -9    1   25      0.03      0.00
   -8    1   25     -0.17      0.00
   -7    1   25     -0.60      0.00
   -6    1   25     -1.15      0.00
   -5    1   25     -0.62      0.00
   -4    1   25      1.81      0.00
   -3    1   25      0.57      0.00
   -2    1   25     -0.07      0.00
   -1    1   25     -0.51      0.00
    0    1   25      2.76      0.00
    1    1   25      1.17      0.00
    2    1   25     -1.87      0.00
    3    1   25      1.59      0.00
    4    1   25      1.29      0.00
  -11    2   25      1.23      0.00
  -10    2   25     -0.31      0.00
   -9    2   25     -0.28      0.00
   -8    2   25      0.52      0.00
   -7    2   25     -0.19      0.00
   -6    2   25     -0.47      0.00
   -5    2   25     -1.00      0.00
   -4    2   25     -1.36      0.00
   -3    2   25     -0.16      0.00
   -2    2   25      0.08      0.00
   -1    2   25     -0.36      0.00
    0    2   25     -2.31      0.00
    1    2   25      1.44      0.00
    2    2   25      2.56      0.00
    3    2   25     -0.53      0.00
    4    2   25     -0.77      0.00
  -11    3   25      1.09      0.00
  -10    3   25      1.46      0.00
   -9    3   25      0.69      0.00
   -8    3   25      0.58      0.00
   -7    3   25      0.85      0.00
   -6    3   25      0.22      0.00
   -5    3   25      0.20      0.00
   -4    3   25      0.05      0.00
   -3    3   25      0.95      0.00
   -2    3   25     -0.36      0.00
   -1    3   25      1.06      0.00
    0    3   25      0.43      0.00
    1    3   25     -1.01      0.00
    2    3   25     -0.24      0.00
    3    3   25      2.08      0.00
    4    3   25      1.97      0.00
  -10    4   25      0.47      0.00
   -9    4   25     -0.44      0.00
   -8    4   25      0.74      0.00
   -7    4   25      0.52      0.00
   -6    4   25     -0.40      0.00
   -5    4   25     -0.39      0.00
   -4    4   25     -1.63      0.00
   -3    4   25     -1.72      0.00
   -2    4   25     -0.77      0.00
   -1    4   25     -2.05      0.00
    0    4   25      0.72      0.00
    1    4   25      0.11      0.00
    2    4   25      0.22      0.00
    3    4   25     -1.89      0.00
  -10    5   25     -1.11      0.00
   -9    5   25      1.03      0.00
   -8    5   25     -1.11      0.00
   -7    5   25      1.03      0.00
   -6    5   25      2.42      0.00
   -5    5   25      1.18      0.00
   -4    5   25      2.17      0.00
   -3    5   25      0.45      0.00
   -2    5   25      1.21      0.00
   -1    5   25     -1.06      0.00
    0    5   25     -2.79      0.00
    1    5   25     -0.89      0.00
    2    5   25      0.54      0.00
    3    5   25      1.75      0.00
  -10    6   25      1.17      0.00
   -9    6   25     -0.86      0.00
   -8    6   25      1.04      0.00
   -7    6   25     -1.21      0.00
   -6    6   25     -1.41      0.00
   -5    6   25      0.66      0.00
   -4    6   25     -0.13      0.00
   -3    6   25      0.18      0.00
   -2    6   25     -0.58      0.00
   -1    6   25      2.74      0.00
    0    6   25      0.49      0.00
    1    6   25     -0.75      0.00
    2    6   25     -2.66      0.00
   -9    7   25      1.61      0.00
   -8    7   25     -0.56      0.00
   -7    7   25      1.43      0.00
   -6    7   25      0.98      0.00
   -5    7   25     -0.59      0.00
   -4    7   25      0.34      0.00
   -3    7   25      0.25      0.00
   -2    7   25     -1.97      0.00
   -1    7   25     -2.51      0.00
    0    7   25      0.83      0.00
    1    7   25      1.30      0.00
   -8    8   25      1.53      0.00
   -7    8   25     -0.73      0.00
   -6    8   25     -0.40      0.00
   -5    8   25      0.26      0.00
   -4    8   25     -0.01      0.00
   -3    8   25      0.21      0.00
   -2    8   25      1.90      0.00
   -1    8   25     -0.98      0.00
    0    8   25     -2.73      0.00
   -7    9   25      0.95      0.00
   -6    9   25      1.05      0.00
   -5    9   25     -0.86      0.00
   -4    9   25     -0.68      0.00
   -3    9   25     -0.06      0.00
   -2    9   25     -0.76      0.00
   -1    9   25      1.57      0.00
   -5   10   25      1.99      0.00
   -4   10   25     -0.04      0.00
   -3   10   25     -1.00      0.00
   -4   -9   26      1.66      0.00
   -3   -9   26      1.25      0.00
   -2   -9   26     -1.88      0.00
   -1   -9   26      2.46      0.00
   -6   -8   26      1.15      0.00
   -5   -8   26      2.03      0.00
   -4   -8   26     -3.87      0.00
   -3   -8   26      2.51      0.00
   -2   -8   26      0.73      0.00
   -1   -8   26     -3.00      0.00
    0   -8   26      1.39      0.00
    1   -8   26     -0.05      0.00
   -7   -7   26      1.63      0.00
   -6   -7   26     -2.22      0.00
   -5   -7   26      3.27      0.00
   -4   -7   26      1.59      0.00
   -3   -7   26     -3.37      0.00
   -2   -7   26      2.73      0.00
   -1   -7   26      0.98      0.00
    0   -7   26     -1.62      0.00
    1   -7   26      0.48      0.00
    2   -7   26     -1.35      0.00
   -8   -6   26     -0.28      0.00
   -7   -6   26      0.95      0.00
   -6   -6   26      0.28      0.00
   -5   -6   26     -2.56      0.00
   -4   -6   26      3.19      0.00
   -3   -6   26     -0.62      0.00
   -2   -6   26     -2.00      0.00
   -1   -6   26      1.55      0.00
    0   -6   26     -0.13      0.00
    1   -6   26     -0.18      0.00
    2   -6   26      0.06      0.00
   -8   -5   26      0.80      0.00
   -7   -5   26     -1.04      0.00
   -6   -5   26      2.94      0.00
   -5   -5   26     -0.31      0.00
   -4   -5   26     -0.69      0.00
   -3   -5   26      3.01      0.00
   -2   -5   26     -2.30      0.00
   -1   -5   26     -1.39      0.00
    0   -5   26      0.44      0.00
    1   -5   26     -0.82      0.00
    2   -5   26     -0.11      0.00
    3   -5   26     -1.12      0.00
   -9   -4   26     -1.73      0.00
   -8   -4   26     -1.37      0.00
   -7   -4   26     -0.33      0.00
   -6   -4   26     -1.21      0.00
   -5   -4   26      2.58      0.00
   -4   -4   26     -1.11      0.00
   -3   -4   26      0.20      0.00
   -2   -4   26      3.04      0.00
   -1   -4   26     -0.64      0.00
    0   -4   26      0.29      0.00
    1   -4   26      0.59      0.00
    2   -4   26      0.40      0.00
    3   -4   26     -0.24      0.00
   -9   -3   26      0.95      0.00
   -8   -3   26     -0.23      0.00
   -7   -3   26     -1.81      0.00
   -6   -3   26     -1.39      0.00
   -5   -3   26     -0.95      0.00
   -4   -3   26      0.76      0.00
   -3   -3   26     -1.85      0.00
   -2   -3   26     -1.66      0.00
   -1   -3   26      0.09      0.00
    0   -3   26     -1.38      0.00
    1   -3   26     -0.23      0.00
    2   -3   26      0.09      0.00
    3   -3   26      1.95      0.00
  -10   -2   26     -0.55      0.00
   -9   -2   26     -0.66      0.00
   -8   -2   26     -0.22      0.00
   -7   -2   26      1.69      0.00
   -6   -2   26     -0.56      0.00
   -5   -2   26     -0.44      0.00
   -4   -2   26      1.07      0.00
   -3   -2   26      1.41      0.00
   -2   -2   26      0.15      0.00
   -1   -2   26     -0.40      0.00
    0   -2   26      1.11      0.00
    1   -2   26      0.46      0.00
    2   -2   26     -0.55      0.00
    3   -2   26     -0.96      0.00
  -10   -1   26     -0.54      0.00
   -9   -1   26     -0.06      0.00
   -8   -1   26     -1.43      0.00
   -7   -1   26     -1.85      0.00
   -6   -1   26      0.80      0.00
   -5   -1   26     -0.24      0.00
   -4   -1   26     -1.32      0.00
   -3   -1   26     -0.20      0.00
   -2   -1   26      0.30      0.00
   -1   -1   26     -0.23      0.00
    0   -1   26     -1.46      0.00
    1   -1   26     -0.26      0.00
    2   -1   26      1.97      0.00
    3   -1   26     -0.47      0.00
  -10    0   26     -0.16      0.00
   -9    0   26     -0.08      0.00
   -8    0   26      0.47      0.00
   -7    0   26     -1.20      0.00
   -6    0   26     -1.73      0.00
   -5    0   26     -0.20      0.00
   -4    0   26      1.31      0.00
   -3    0   26      0.55      0.00
   -2    0   26      0.59      0.00
   -1    0   26      0.70      0.00
    0    0   26      2.06      0.00
    1    0   26      0.48      0.00
    2    0   26     -1.02      0.00
    3    0   26      2.76      0.00
  -10    1   26      0.23      0.00
   -9    1   26     -0.37      0.00
   -8    1   26      0.93      0.00
   -7    1   26      0.92      0.00
   -6    1   26     -0.12      0.00
   -5    1   26     -1.15      0.00
   -4    1   26     -1.62      0.00
   -3    1   26     -1.11      0.00
   -2    1   26     -0.21      0.00
   -1    1   26      0.15      0.00
    0    1   26     -1.23      0.00
    1    1   26      1.49      0.00
    2    1   26      1.35      0.00
    3    1   26     -1.59      0.00
  -10    2   26      0.53      0.00
   -9    2   26      0.23      0.00
   -8    2   26     -0.89      0.00
   -7    2   26      0.63      0.00
   -6    2   26      0.32      0.00
   -5    2   26      0.15      0.00
   -4    2   26      0.23      0.00
   -3    2   26      0.85      0.00
   -2    2   26     -1.27      0.00
   -1    2   26     -0.47      0.00
    0    2   26      0.25      0.00
    1    2   26     -0.85      0.00
    2    2   26      0.41      0.00
    3    2   26      2.13      0.00
  -10    3   26      1.21      0.00
   -9    3   26     -0.37      0.00
   -8    3   26      0.56      0.00
   -7    3   26     -0.16      0.00
   -6    3   26      0.51      0.00
   -5    3   26      0.80      0.00
   -4    3   26     -1.03      0.00
   -3    3   26     -0.63      0.00
   -2    3   26      1.05      0.00
   -1    3   26      0.25      0.00
    0    3   26      0.46      0.00
    1    3   26     -0.31      0.00
    2    3   26     -0.27      0.00
    3    3   26     -2.00      0.00
   -9    4   26      1.47      0.00
   -8    4   26     -1.60      0.00
   -7    4   26      0.09      0.00
   -6    4   26      0.68      0.00
   -5    4   26      0.24      0.00
   -4    4   26      1.83      0.00
   -3    4   26     -0.88      0.00
   -2    4   26     -0.48      0.00
   -1    4   26     -2.18      0.00
    0    4   26     -0.77      0.00
    1    4   26      0.38      0.00
    2    4   26      0.77      0.00
   -9    5   26      0.03      0.00
   -8    5   26      2.47      0.00
   -7    5   26     -1.04      0.00
   -6    5   26     -0.78      0.00
   -5    5   26      0.92      0.00
   -4    5   26      0.36      0.00
   -3    5   26      1.28      0.00
   -2    5   26      0.55      0.00
   -1    5   26      3.36      0.00
    0    5   26     -0.44      0.00
    1    5   26     -0.40      0.00
    2    5   26     -1.71      0.00
   -9    6   26      0.31      0.00
   -8    6   26     -0.65      0.00
   -7    6   26      1.88      0.00
   -6    6   26     -0.12      0.00
   -5    6   26     -1.86      0.00
   -4    6   26     -0.82      0.00
   -3    6   26     -0.89      0.00
   -2    6   26     -3.34      0.00
   -1    6   26     -2.76      0.00
    0    6   26      1.42      0.00
    1    6   26      1.25      0.00
   -8    7   26      1.41      0.00
   -7    7   26     -0.57      0.00
   -6    7   26      1.08      0.00
   -5    7   26      1.15      0.00
   -4    7   26      0.08      0.00
   -3    7   26      1.20      0.00
   -2    7   26      2.77      0.00
   -1    7   26     -1.65      0.00
    0    7   26     -2.56      0.00
   -7    8   26      1.11      0.00
   -6    8   26      0.42      0.00
   -5    8   26     -0.23      0.00
   -4    8   26     -0.69      0.00
   -3    8   26     -1.77      0.00
   -2    8   26     -1.19      0.00
   -1    8   26      1.79      0.00
   -5   -7   27     -1.58      0.00
   -4   -7   27      4.47      0.00
   -3   -7   27      0.52      0.00
   -2   -7   27     -2.53      0.00
   -1   -7   27      1.43      0.00
    0   -7   27      0.28      0.00
   -6   -6   27      2.89      0.00
   -5   -6   27     -1.43      0.00
   -4   -6   27     -1.35      0.00
   -3   -6   27      3.92      0.00
   -2   -6   27     -1.23      0.00
   -1   -6   27     -1.52      0.00
    0   -6   27      0.75      0.00
    1   -6   27     -0.19      0.00
   -7   -5   27     -0.01      0.00
   -6   -5   27     -1.99      0.00
   -5   -5   27      3.16      0.00
   -4   -5   27     -2.91      0.00
   -3   -5   27     -1.00      0.00
   -2   -5   27      3.20      0.00
   -1   -5   27     -1.56      0.00
    0   -5   27     -0.98      0.00
    1   -5   27     -0.56      0.00
   -8   -4   27     -2.03      0.00
   -7   -4   27      0.16      0.00
   -6   -4   27     -0.61      0.00
   -5   -4   27     -0.51      0.00
   -4   -4   27      2.97      0.00
   -3   -4   27     -2.12      0.00
   -2   -4   27     -1.13      0.00
   -1   -4   27      1.48      0.00
    0   -4   27     -0.57      0.00
    1   -4   27      0.41      0.00
    2   -4   27     -0.83      0.00
   -8   -3   27      0.68      0.00
   -7   -3   27      0.31      0.00
   -6   -3   27     -0.09      0.00
   -5   -3   27     -1.22      0.00
   -4   -3   27      0.23      0.00
   -3   -3   27      1.38      0.00
   -2   -3   27     -1.04      0.00
   -1   -3   27     -0.71      0.00
    0   -3   27      0.13      0.00
    1   -3   27     -0.41      0.00
    2   -3   27     -0.40      0.00
   -9   -2   27     -0.75      0.00
   -8   -2   27     -1.72      0.00
   -7   -2   27     -1.17      0.00
   -6   -2   27      1.33      0.00
   -5   -2   27      0.26      0.00
   -4   -2   27     -1.08      0.00
   -3   -2   27      0.86      0.00
   -2   -2   27      1.12      0.00
   -1   -2   27     -0.24      0.00
    0   -2   27     -0.15      0.00
    1   -2   27      0.61      0.00
    2   -2   27      1.47      0.00
   -9   -1   27     -0.27      0.00
   -8   -1   27      0.67      0.00
   -7   -1   27     -1.42      0.00
   -6   -1   27     -2.14      0.00
   -5   -1   27      0.13      0.00
   -4   -1   27      0.24      0.00
   -3   -1   27     -0.82      0.00
   -2   -1   27      0.29      0.00
   -1   -1   27      0.65      0.00
    0   -1   27      0.29      0.00
    1   -1   27     -0.76      0.00
    2   -1   27     -0.23      0.00
   -9    0   27     -0.67      0.00
   -8    0   27      0.21      0.00
   -7    0   27      1.21      0.00
   -6    0   27      0.24      0.00
   -5    0   27     -1.00      0.00
   -4    0   27     -1.04      0.00
   -3    0   27     -1.20      0.00
   -2    0   27     -0.40      0.00
   -1    0   27      0.94      0.00
    0    0   27      0.34      0.00
    1    0   27      1.43      0.00
    2    0   27     -0.35      0.00
   -9    1   27      0.56      0.00
   -8    1   27     -1.56      0.00
   -7    1   27      0.30      0.00
   -6    1   27      0.61      0.00
   -5    1   27      0.88      0.00
   -4    1   27      1.30      0.00
   -3    1   27      1.19      0.00
   -2    1   27     -1.92      0.00
   -1    1   27     -1.63      0.00
    0    1   27      0.57      0.00
    1    1   27     -0.13      0.00
    2    1   27      1.02      0.00
   -9    2   27     -0.79      0.00
   -8    2   27     -0.03      0.00
   -7    2   27     -1.87      0.00
   -6    2   27     -0.40      0.00
   -5    2   27      0.05      0.00
   -4    2   27     -1.54      0.00
   -3    2   27      0.08      0.00
   -2    2   27      2.72      0.00
   -1    2   27      1.10      0.00
    0    2   27     -0.77      0.00
    1    2   27     -0.24      0.00
    2    2   27      0.24      0.00
   -9    3   27      2.15      0.00
   -8    3   27     -0.11      0.00
   -7    3   27      0.93      0.00
   -6    3   27      0.14      0.00
   -5    3   27      0.38      0.00
   -4    3   27      2.19      0.00
   -3    3   27     -1.36      0.00
   -2    3   27     -1.39      0.00
   -1    3   27     -0.76      0.00
    0    3   27      2.03      0.00
    1    3   27      0.78      0.00
   -8    4   27      2.00      0.00
   -7    4   27     -1.38      0.00
   -6    4   27     -0.83      0.00
   -5    4   27     -0.64      0.00
   -4    4   27     -0.77      0.00
   -3    4   27      1.08      0.00
   -2    4   27      0.23      0.00
   -1    4   27      1.12      0.00
    0    4   27     -1.90      0.00
    1    4   27      0.85      0.00
   -8    5   27      0.02      0.00
   -7    5   27      3.09      0.00
   -6    5   27      0.30      0.00
   -5    5   27     -0.49      0.00
   -4    5   27     -0.43      0.00
   -3    5   27     -0.37      0.00
   -2    5   27     -2.23      0.00
   -1    5   27     -0.93      0.00
    0    5   27      1.58      0.00
   -7    6   27     -1.39      0.00
   -6    6   27      1.52      0.00
   -5    6   27      0.49      0.00
   -4    6   27     -0.65      0.00
   -3    6   27      0.03      0.00
   -2    6   27      1.36      0.00
   -1    6   27     -2.83      0.00
   -6    7   27      0.08      0.00
   -5    7   27      1.39      0.00
   -4    7   27      0.64      0.00
   -3    7   27     -1.23      0.00
   -2    7   27     -0.04      0.00
   -4   -6   28     -3.89      0.00
   -3   -6   28     -1.73      0.00
   -2   -6   28      3.21      0.00
   -5   -5   28      0.44      0.00
   -4   -5   28      4.20      0.00
   -3   -5   28     -3.09      0.00
   -2   -5   28     -2.23      0.00
   -1   -5   28      1.06      0.00
   -6   -4   28      0.88      0.00
   -5   -4   28     -1.45      0.00
   -4   -4   28      0.45      0.00
   -3   -4   28      3.24      0.00
   -2   -4   28     -0.20      0.00
   -1   -4   28      0.41      0.00
    0   -4   28      0.65      0.00
   -7   -3   28     -1.06      0.00
   -6   -3   28      0.77      0.00
   -5   -3   28      0.05      0.00
   -4   -3   28     -2.27      0.00
   -3   -3   28     -0.62      0.00
   -2   -3   28     -0.30      0.00
   -1   -3   28     -1.69      0.00
    0   -3   28     -0.07      0.00
   -7   -2   28     -0.94      0.00
   -6   -2   28     -1.65      0.00
   -5   -2   28      1.59      0.00
   -4   -2   28      0.82      0.00
   -3   -2   28     -0.49      0.00
   -2   -2   28      1.26      0.00
   -1   -2   28      1.15      0.00
    0   -2   28     -0.41      0.00
   -8   -1   28     -1.11      0.00
   -7   -1   28      1.07      0.00
   -6   -1   28      0.02      0.00
   -5   -1   28     -1.45      0.00
   -4   -1   28     -0.40      0.00
   -3   -1   28     -1.37      0.00
   -2   -1   28     -1.28      0.00
   -1   -1   28      0.72      0.00
    0   -1   28      1.09      0.00
    1   -1   28      0.81      0.00
   -8    0   28     -1.65      0.00
   -7    0   28     -0.89      0.00
   -6    0   28      0.24      0.00
   -5    0   28      0.87      0.00
   -4    0   28      1.71      0.00
   -3    0   28      1.60      0.00
   -2    0   28     -1.69      0.00
   -1    0   28     -1.79      0.00
    0    0   28      0.66      0.00
    1    0   28      0.91      0.00
   -8    1   28      0.75      0.00
   -7    1   28     -1.52      0.00
   -6    1   28     -0.46      0.00
   -5    1   28     -0.33      0.00
   -4    1   28     -1.58      0.00
   -3    1   28      1.17      0.00
   -2    1   28      3.92      0.00
   -1    1   28      0.99      0.00
    0    1   28     -1.43      0.00
   -7    2   28      0.67      0.00
   -6    2   28     -1.09      0.00
   -5    2   28     -0.55      0.00
   -4    2   28      0.91      0.00
   -3    2   28     -2.74      0.00
   -2    2   28     -2.21      0.00
   -1    2   28      0.85      0.00
    0    2   28      2.80      0.00
   -7    3   28      0.15      0.00
   -6    3   28      1.11      0.00
   -5    3   28     -0.08      0.00
   -4    3   28     -0.07      0.00
   -3    3   28      1.92      0.00
   -2    3   28      0.39      0.00
   -1    3   28     -0.59      0.00
   -7    4   28      1.37      0.00
   -6    4   28     -0.90      0.00
   -5    4   28     -0.42      0.00
   -4    4   28     -1.33      0.00
   -3    4   28     -0.89      0.00
   -2    4   28     -1.64      0.00
   -1    4   28     -0.18      0.00
   -6    5   28      2.46      0.00
   -5    5   28      1.07      0.00
   -4    5   28      0.41      0.00
   -3    5   28      0.14      0.00
   -2    5   28      1.45      0.00
   -4   -3   29      0.09      0.00
   -3   -3   29     -1.63      0.00
   -5   -2   29     -0.84      0.00
   -4   -2   29      1.68      0.00
   -3   -2   29      0.64      0.00
   -2   -2   29     -0.13      0.00
   -5   -1   29     -0.48      0.00
   -4   -1   29     -0.08      0.00
   -3   -1   29      0.39      0.00
   -2   -1   29     -1.68      0.00
   -5    0   29     -0.04      0.00
   -4    0   29     -1.04      0.00
   -3    0   29      1.93      0.00
   -2    0   29      3.74      0.00
   -5    1   29     -0.36      0.00
   -4    1   29      0.11      0.00
   -3    1   29     -3.21      0.00
   -2    1   29     -1.67      0.00
   -5    2   29     -0.28      0.00
   -4    2   29      0.02      0.00
   -3    2   29      1.56      0.00
    1    0    0      5.91      0.00
   15    3    0      0.78      0.00
   15    4    0     -0.67      0.00
   15    5    0     -0.30      0.00
   15    6    0      0.73      0.00
  -15    7    0     -0.14      0.00
   14    7    0      0.42      0.00
   15    7    0     -0.93      0.00
  -15    8    0     -1.75      0.00
  -11    8    0      1.50      0.00
   14    8    0      0.37      0.00
  -15    9    0      2.07      0.00
   13    9    0     -1.28      0.00
   14    9    0     -0.51      0.00
  -15   10    0     -0.66      0.00
   13   10    0      1.65      0.00
  -15   11    0     -1.22      0.00
  -14   11    0     -1.19      0.00
   12   11    0     -2.16      0.00
   13   11    0     -0.52      0.00
  -14   12    0     -0.47      0.00
   12   12    0      0.29      0.00
  -14   13    0      0.40      0.00
  -13   13    0      0.69      0.00
   11   13    0     -0.40      0.00
   12   13    0      0.33      0.00
  -13   14    0     -1.76      0.00
   10   14    0      0.51      0.00
   11   14    0      0.52      0.00
  -13   15    0      0.53      0.00
  -12   15    0     -0.85      0.00
    9   15    0      1.00      0.00
   10   15    0     -1.16      0.00
  -12   16    0      0.14      0.00
  -11   16    0     -0.55      0.00
    8   16    0     -1.99      0.00
    9   16    0      1.05      0.00
  -11   17    0     -0.47      0.00
  -10   17    0     -0.62      0.00
    7   17    0      0.20      0.00
    8   17    0      0.26      0.00
  -10   18    0     -0.14      0.00
   -9   18    0     -0.41      0.00
   -8   18    0     -0.80      0.00
    5   18    0     -0.26      0.00
    6   18    0     -0.28      0.00
    7   18    0      1.26      0.00
   -9   19    0      0.12      0.00
   -8   19    0     -0.08      0.00
   -7   19    0     -0.12      0.00
   -6   19    0     -0.34      0.00
    3   19    0      0.85      0.00
    4   19    0     -0.35      0.00
    5   19    0      0.55      0.00
    6   19    0     -0.36      0.00
   -6  -19    1     -0.41      0.00
   -5  -19    1      0.50      0.00
   -4  -19    1      0.89      0.00
   -3  -19    1     -1.23      0.00
    6  -19    1     -0.77      0.00
    7  -19    1     -0.05      0.00
    8  -19    1     -0.71      0.00
    9  -19    1     -0.43      0.00
   -7  -18    1     -0.06      0.00
   -6  -18    1      0.98      0.00
   -5  -18    1     -0.62      0.00
    8  -18    1      1.41      0.00
    9  -18    1      0.23      0.00
   10  -18    1     -0.05      0.00
   -8  -17    1     -1.05      0.00
   -7  -17    1     -0.87      0.00
   10  -17    1      1.00      0.00
   11  -17    1     -0.06      0.00
   -9  -16    1      0.52      0.00
   -8  -16    1      1.91      0.00
   11  -16    1      0.84      0.00
   12  -16    1     -0.17      0.00
  -10  -15    1      1.07      0.00
   -9  -15    1     -0.53      0.00
   12  -15    1      0.00      0.00
   13  -15    1     -0.68      0.00
  -11  -14    1     -0.99      0.00
  -10  -14    1      0.81      0.00
   12  -14    1      1.35      0.00
   13  -14    1      0.21      0.00
  -12  -13    1      0.31      0.00
  -11  -13    1     -0.45      0.00
   13  -13    1      1.13      0.00
   14  -13    1      0.85      0.00
  -12  -12    1     -0.77      0.00
   14  -12    1     -1.46      0.00
  -13  -11    1      1.21      0.00
  -12  -11    1     -0.03      0.00
   14  -11    1      1.73      0.00
   15  -11    1     -0.81      0.00
  -14  -10    1     -0.23      0.00
  -13  -10    1     -0.55      0.00
   14  -10    1     -1.02      0.00
   15  -10    1      1.40      0.00
  -14   -9    1      0.10      0.00
   15   -9    1     -0.57      0.00
  -14   -8    1      0.53      0.00
   11   -8    1     -0.42      0.00
   12   -8    1      0.27      0.00
   15   -8    1     -1.86      0.00
  -15   -7    1      0.50      0.00
  -14   -7    1     -2.40      0.00
   15   -7    1      1.00      0.00
  -15   -6    1     -0.35      0.00
  -15   -5    1     -0.63      0.00
  -15   -4    1      0.18      0.00
    0   -1    1     93.90      0.00
   -3    1    1     -8.25      0.00
    0    1    1    -43.06      0.00
   15    2    1      0.61      0.00
   15    3    1      0.29      0.00
   15    4    1     -0.97      0.00
   15    5    1      1.47      0.00
   14    6    1     -0.25      0.00
   15    6    1     -1.52      0.00
   14    7    1      0.46      0.00
   15    7    1      1.02      0.00
  -15    8    1      0.35      0.00
   14    8    1     -0.97      0.00
  -15    9    1      0.64      0.00
   13    9    1      0.70      0.00
   14    9    1     -0.53      0.00
  -15   10    1     -2.47      0.00
   13   10    1      0.02      0.00
  -15   11    1      0.91      0.00
  -14   11    1     -1.79      0.00
   12   11    1      0.17      0.00
   13   11    1     -1.22      0.00
  -15   12    1      0.67      0.00
  -14   12    1      0.65      0.00
   12   12    1      1.43      0.00
  -14   13    1     -0.23      0.00
  -13   13    1     -1.21      0.00
   11   13    1      0.05      0.00
   12   13    1     -0.52      0.00
  -14   14    1      0.34      0.00
  -13   14    1      0.10      0.00
   10   14    1     -1.60      0.00
   11   14    1     -0.23      0.00
  -13   15    1      1.43      0.00
  -12   15    1      1.36      0.00
    9   15    1      2.59      0.00
   10   15    1      0.49      0.00
  -12   16    1      0.46      0.00
  -11   16    1     -0.27      0.00
    8   16    1     -0.79      0.00
    9   16    1     -1.87      0.00
  -11   17    1      0.86      0.00
  -10   17    1     -0.31      0.00
    7   17    1      2.09      0.00
    8   17    1      1.19      0.00
  -10   18    1      0.81      0.00
   -9   18    1      0.88      0.00
    5   18    1      0.65      0.00
    6   18    1     -2.04      0.00
    7   18    1     -1.63      0.00
   -9   19    1     -0.13      0.00
   -8   19    1     -0.08      0.00
   -7   19    1     -0.48      0.00
   -6   19    1      0.25      0.00
    3   19    1     -0.09      0.00
    4   19    1      0.17      0.00
    5   19    1      0.21      0.00
    6   19    1      1.04      0.00
   -6  -19    2      0.61      0.00
   -5  -19    2     -1.02      0.00
   -4  -19    2     -0.07      0.00
   -3  -19    2      1.14      0.00
    6  -19    2     -0.35      0.00
    7  -19    2     -0.51      0.00
    8  -19    2      0.84      0.00
    9  -19    2     -0.07      0.00
   -7  -18    2     -0.50      0.00
   -6  -18    2      1.37      0.00
   -5  -18    2      1.44      0.00
    8  -18    2     -0.60      0.00
    9  -18    2      0.81      0.00
   10  -18    2      0.95      0.00
   -9  -17    2      1.13      0.00
   -8  -17    2      1.45      0.00
   -7  -17    2     -0.99      0.00
   10  -17    2     -1.05      0.00
   11  -17    2      0.73      0.00
  -10  -16    2     -0.08      0.00
   -9  -16    2     -0.65      0.00
   -8  -16    2     -0.76      0.00
   11  -16    2     -1.46      0.00
   12  -16    2     -0.06      0.00
  -10  -15    2      0.69      0.00
   -9  -15    2     -0.29      0.00
   12  -15    2      0.30      0.00
   13  -15    2     -0.21      0.00
  -11  -14    2     -0.54      0.00
  -10  -14    2      0.05      0.00
   12  -14    2     -0.37      0.00
   13  -14    2      0.90      0.00
  -12  -13    2     -0.22      0.00
  -11  -13    2      1.38      0.00
   13  -13    2     -1.68      0.00
   14  -13    2     -0.89      0.00
  -13  -12    2      0.55      0.00
  -12  -12    2     -0.32      0.00
   13  -12    2      0.49      0.00
   14  -12    2      0.29      0.00
  -13  -11    2     -0.39      0.00
   14  -11    2     -0.19      0.00
   15  -11    2      0.47      0.00
  -14  -10    2      0.04      0.00
  -13  -10    2      0.19      0.00
   14  -10    2     -0.98      0.00
   15  -10    2     -0.32      0.00
  -14   -9    2     -0.04      0.00
   15   -9    2     -0.92      0.00
  -15   -8    2      0.23      0.00
  -14   -8    2     -0.50      0.00
   11   -8    2      0.23      0.00
   12   -8    2     -0.04      0.00
   13   -8    2     -0.46      0.00
   14   -8    2      1.70      0.00
   15   -8    2     -0.33      0.00
  -15   -7    2     -0.09      0.00
  -14   -7    2      1.00      0.00
   15   -7    2      1.76      0.00
  -15   -6    2     -0.90      0.00
   15   -6    2     -1.91      0.00
  -15   -5    2      0.27      0.00
  -15   -4    2      0.35      0.00
   15    1    2      1.24      0.00
   15    2    2      0.05      0.00
   15    3    2     -0.16      0.00
   15    4    2      0.68      0.00
   15    5    2     -0.58      0.00
   14    6    2      0.14      0.00
   15    6    2      0.25      0.00
  -11    7    2      1.84      0.00
   14    7    2     -1.14      0.00
  -15    8    2      0.77      0.00
  -12    8    2      0.99      0.00
  -11    8    2     -2.91      0.00
   14    8    2     -0.11      0.00
  -15    9    2     -1.84      0.00
  -13    9    2      1.44      0.00
  -12    9    2     -0.75      0.00
  -11    9    2      1.00      0.00
  -10    9    2     -0.43      0.00
   13    9    2     -0.42      0.00
   14    9    2      0.57      0.00
  -15   10    2      0.24      0.00
  -12   10    2      1.36      0.00
  -11   10    2     -0.40      0.00
   13   10    2     -0.83      0.00
  -15   11    2      1.32      0.00
  -14   11    2      1.30      0.00
   12   11    2      1.27      0.00
   13   11    2      0.05      0.00
  -15   12    2     -1.77      0.00
  -14   12    2      0.28      0.00
   11   12    2     -0.78      0.00
   12   12    2     -0.93      0.00
  -14   13    2      0.05      0.00
  -13   13    2      1.19      0.00
   11   13    2     -0.24      0.00
  -14   14    2     -0.52      0.00
  -13   14    2      1.28      0.00
   10   14    2      0.16      0.00
   11   14    2      0.35      0.00
  -13   15    2     -1.18      0.00
  -12   15    2      2.39      0.00
    9   15    2     -0.91      0.00
   10   15    2      1.14      0.00
  -12   16    2     -1.24      0.00
  -11   16    2      1.61      0.00
    8   16    2      1.16      0.00
    9   16    2     -0.66      0.00
  -11   17    2     -0.28      0.00
  -10   17    2      1.13      0.00
    7   17    2     -1.01      0.00
    8   17    2      0.46      0.00
  -10   18    2     -0.23      0.00
   -9   18    2      0.39      0.00
    5   18    2      1.31      0.00
    6   18    2      1.58      0.00
    7   18    2     -0.50      0.00
   -9   19    2     -0.28      0.00
   -8   19    2     -0.20      0.00
   -7   19    2     -0.25      0.00
   -6   19    2     -0.28      0.00
    3   19    2      0.37      0.00
    4   19    2      0.02      0.00
    5   19    2     -0.36      0.00
   -6  -19    3      1.27      0.00
   -5  -19    3      1.33      0.00
   -4  -19    3     -0.53      0.00
   -3  -19    3     -0.59      0.00
    6  -19    3      0.24      0.00
    7  -19    3     -0.39      0.00
    8  -19    3     -0.86      0.00
    9  -19    3      0.27      0.00
   -7  -18    3     -1.08      0.00
   -6  -18    3     -1.87      0.00
    8  -18    3     -0.44      0.00
    9  -18    3     -1.13      0.00
   10  -18    3     -0.51      0.00
   -9  -17    3      0.37      0.00
   -8  -17    3     -0.21      0.00
   -7  -17    3      3.57      0.00
    9  -17    3      1.16      0.00
   10  -17    3     -0.64      0.00
   11  -17    3     -1.31      0.00
  -10  -16    3     -0.41      0.00
   -9  -16    3     -0.82      0.00
   -8  -16    3     -0.01      0.00
   10  -16    3      2.25      0.00
   11  -16    3      0.95      0.00
   12  -16    3     -0.54      0.00
  -10  -15    3      1.76      0.00
   -9  -15    3      1.05      0.00
   11  -15    3      0.00      0.00
   12  -15    3      0.69      0.00
  -11  -14    3      0.79      0.00
  -10  -14    3     -1.54      0.00
   12  -14    3     -1.13      0.00
   13  -14    3     -1.14      0.00
  -12  -13    3     -0.78      0.00
  -11  -13    3     -0.41      0.00
   13  -13    3      0.83      0.00
  -13  -12    3      0.02      0.00
  -12  -12    3      0.99      0.00
   13  -12    3     -0.26      0.00
   14  -12    3      0.41      0.00
  -13  -11    3     -0.20      0.00
   14  -11    3     -0.12      0.00
  -14  -10    3     -0.12      0.00
  -13  -10    3     -0.67      0.00
   14  -10    3     -1.38      0.00
   15  -10    3     -0.03      0.00
  -14   -9    3      0.86      0.00
   14   -9    3      2.12      0.00
   15   -9    3     -0.75      0.00
  -15   -8    3      0.01      0.00
  -14   -8    3     -0.45      0.00
   11   -8    3     -1.83      0.00
   12   -8    3     -0.53      0.00
   13   -8    3     -2.09      0.00
   14   -8    3     -1.15      0.00
   15   -8    3      1.38      0.00
  -15   -7    3     -0.38      0.00
   15   -7    3     -1.08      0.00
  -15   -6    3     -0.24      0.00
   15   -6    3     -1.10      0.00
  -15   -5    3      1.39      0.00
   15   -5    3      1.81      0.00
  -15   -4    3     -1.29      0.00
   15   -4    3     -0.15      0.00
   15   -3    3     -1.47      0.00
   15   -2    3      1.64      0.00
   15   -1    3     -0.82      0.00
   15    0    3      1.04      0.00
   15    1    3      0.53      0.00
   15    2    3     -0.37      0.00
   15    3    3      0.79      0.00
   15    4    3     -0.26      0.00
   14    5    3      0.86      0.00
   15    5    3      0.03      0.00
   14    6    3     -1.43      0.00
   15    6    3      0.37      0.00
  -11    7    3     -3.45      0.00
   14    7    3      0.69      0.00
  -12    8    3      0.86      0.00
  -11    8    3      1.48      0.00
   13    8    3     -1.57      0.00
   14    8    3      0.15      0.00
  -15    9    3     -0.02      0.00
  -13    9    3      0.18      0.00
  -12    9    3      1.87      0.00
  -11    9    3      0.69      0.00
  -10    9    3      0.22      0.00
   13    9    3      0.19      0.00
  -15   10    3      0.94      0.00
  -13   10    3     -3.03      0.00
  -12   10    3     -1.66      0.00
  -11   10    3      1.78      0.00
   12   10    3     -0.30      0.00
   13   10    3     -0.69      0.00
  -15   11    3     -1.48      0.00
  -14   11    3      1.79      0.00
  -13   11    3      2.06      0.00
  -12   11    3     -0.61      0.00
   12   11    3     -0.44      0.00
  -15   12    3     -0.02      0.00
  -14   12    3     -1.82      0.00
  -13   12    3      0.74      0.00
   11   12    3      0.02      0.00
   12   12    3     -0.89      0.00
  -14   13    3      0.18      0.00
  -13   13    3      0.89      0.00
   10   13    3      0.59      0.00
   11   13    3      0.92      0.00
  -14   14    3     -0.47      0.00
  -13   14    3     -1.75      0.00
   10   14    3      0.30      0.00
  -13   15    3      0.09      0.00
  -12   15    3     -1.00      0.00
    9   15    3     -0.63      0.00
   10   15    3     -0.15      0.00
  -12   16    3     -0.97      0.00
  -11   16    3     -0.72      0.00
    8   16    3     -0.33      0.00
    9   16    3      1.16      0.00
  -11   17    3     -1.07      0.00
  -10   17    3     -0.42      0.00
    6   17    3      1.58      0.00
    7   17    3      0.14      0.00
    8   17    3     -0.97      0.00
  -10   18    3     -0.29      0.00
   -9   18    3      0.32      0.00
    5   18    3     -0.56      0.00
    6   18    3      0.62      0.00
    7   18    3      0.55      0.00
   -9   19    3     -0.26      0.00
   -8   19    3     -0.10      0.00
   -7   19    3     -0.30      0.00
   -6   19    3     -0.52      0.00
    2   19    3      0.13      0.00
    3   19    3     -0.22      0.00
    4   19    3     -0.18      0.00
    5   19    3     -0.38      0.00
   -6  -19    4     -0.41      0.00
   -5  -19    4      1.20      0.00
   -4  -19    4      1.00      0.00
   -3  -19    4      1.09      0.00
    5  -19    4      0.41      0.00
    6  -19    4     -0.75      0.00
    7  -19    4     -0.28      0.00
    8  -19    4     -0.31      0.00
   -7  -18    4      2.08      0.00
   -6  -18    4     -0.64      0.00
    8  -18    4      0.77      0.00
    9  -18    4      1.21      0.00
   10  -18    4      0.11      0.00
   -9  -17    4      0.44      0.00
   -8  -17    4      0.28      0.00
   -7  -17    4     -2.33      0.00
    9  -17    4     -0.40      0.00
   10  -17    4      1.30      0.00
   11  -17    4      0.16      0.00
  -10  -16    4      1.48      0.00
   -9  -16    4     -0.65      0.00
   -8  -16    4      0.44      0.00
   10  -16    4     -1.51      0.00
   11  -16    4      0.54      0.00
  -11  -15    4     -0.10      0.00
  -10  -15    4     -1.15      0.00
   11  -15    4     -0.72      0.00
   12  -15    4     -0.78      0.00
  -11  -14    4      0.67      0.00
  -10  -14    4      0.08      0.00
   12  -14    4      0.51      0.00
   13  -14    4      0.63      0.00
  -12  -13    4      0.13      0.00
  -11  -13    4     -0.65      0.00
   13  -13    4     -0.70      0.00
  -13  -12    4      0.29      0.00
  -12  -12    4     -0.57      0.00
   13  -12    4     -0.22      0.00
   14  -12    4      0.11      0.00
  -13  -11    4     -0.56      0.00
   14  -11    4     -1.26      0.00
  -14  -10    4      2.02      0.00
  -13  -10    4      1.24      0.00
   14  -10    4      1.32      0.00
   15  -10    4     -1.23      0.00
  -14   -9    4     -2.08      0.00
   14   -9    4     -0.27      0.00
   15   -9    4      1.57      0.00
  -15   -8    4      0.67      0.00
  -14   -8    4      1.25      0.00
   12   -8    4     -0.18      0.00
   13   -8    4      1.06      0.00
   14   -8    4     -2.37      0.00
   15   -8    4     -1.51      0.00
  -15   -7    4     -0.68      0.00
   15   -7    4      0.03      0.00
  -15   -6    4      1.52      0.00
   15   -6    4      0.51      0.00
  -15   -5    4     -0.96      0.00
   15   -5    4      0.36      0.00
   15   -4    4     -1.90      0.00
   15   -3    4      1.43      0.00
   15   -2    4      0.15      0.00
   15   -1    4      0.51      0.00
   15    0    4      0.13      0.00
   15    1    4      0.32      0.00
   15    2    4      0.00      0.00
   15    3    4      0.93      0.00
   15    4    4     -0.76      0.00
   14    5    4     -0.27      0.00
   15    5    4      1.31      0.00
   14    6    4      0.32      0.00
  -11    7    4      0.83      0.00
   14    7    4      0.39      0.00
  -12    8    4      1.70      0.00
  -11    8    4      1.19      0.00
  -10    8    4      0.34      0.00
   13    8    4      0.84      0.00
   14    8    4     -1.40      0.00
  -15    9    4      1.11      0.00
  -12    9    4     -3.18      0.00
  -11    9    4      1.58      0.00
  -10    9    4      0.40      0.00
   13    9    4     -0.38      0.00
  -15   10    4     -1.40      0.00
  -13   10    4      3.70      0.00
  -12   10    4     -0.75      0.00
  -11   10    4     -3.92      0.00
  -10   10    4      0.63      0.00
   12   10    4      0.72      0.00
   13   10    4     -0.32      0.00
  -15   11    4     -0.23      0.00
  -14   11    4     -2.63      0.00
  -13   11    4      1.26      0.00
  -12   11    4      3.77      0.00
  -11   11    4      1.31      0.00
   12   11    4     -0.69      0.00
  -15   12    4      0.82      0.00
  -14   12    4     -0.38      0.00
  -13   12    4     -2.50      0.00
  -12   12    4     -0.54      0.00
   11   12    4      0.54      0.00
   12   12    4      0.19      0.00
  -14   13    4      1.50      0.00
  -13   13    4      0.41      0.00
   10   13    4      0.23      0.00
   11   13    4     -0.32      0.00
  -14   14    4     -0.27      0.00
  -13   14    4     -0.10      0.00
    9   14    4     -2.17      0.00
   10   14    4     -0.67      0.00
  -13   15    4      1.33      0.00
  -12   15    4      0.26      0.00
    8   15    4      1.21      0.00
    9   15    4      2.37      0.00
  -12   16    4      0.54      0.00
  -11   16    4     -0.42      0.00
    7   16    4     -0.08      0.00
    8   16    4     -2.23      0.00
    9   16    4     -0.70      0.00
  -11   17    4      0.43      0.00
  -10   17    4     -0.50      0.00
    6   17    4      0.96      0.00
    7   17    4      1.24      0.00
    8   17    4      1.71      0.00
  -10   18    4      0.17      0.00
   -9   18    4      0.74      0.00
   -8   18    4      0.50      0.00
    4   18    4      0.04      0.00
    5   18    4     -0.62      0.00
    6   18    4     -1.34      0.00
   -9   19    4     -0.90      0.00
   -8   19    4     -0.25      0.00
   -7   19    4     -0.29      0.00
   -6   19    4     -0.25      0.00
    2   19    4     -0.14      0.00
    3   19    4      0.28      0.00
    4   19    4     -0.07      0.00
    5   19    4      0.33      0.00
   -6  -19    5     -0.80      0.00
   -5  -19    5     -0.93      0.00
   -4  -19    5     -0.57      0.00
   -3  -19    5     -1.98      0.00
    5  -19    5     -0.31      0.00
    6  -19    5      1.44      0.00
    7  -19    5      0.26      0.00
    8  -19    5     -0.18      0.00
   -7  -18    5     -1.14      0.00
   -6  -18    5      3.35      0.00
   -5  -18    5      0.86      0.00
    7  -18    5     -0.32      0.00
    8  -18    5      0.56      0.00
    9  -18    5     -0.16      0.00
   -9  -17    5     -0.50      0.00
   -8  -17    5      1.73      0.00
   -7  -17    5     -0.72      0.00
    9  -17    5     -0.62      0.00
   10  -17    5     -1.10      0.00
  -10  -16    5     -0.72      0.00
   -9  -16    5      0.73      0.00
   -8  -16    5     -0.79      0.00
   10  -16    5      0.28      0.00
   11  -16    5     -0.58      0.00
  -11  -15    5      1.37      0.00
  -10  -15    5      0.14      0.00
   11  -15    5     -0.15      0.00
   12  -15    5     -0.54      0.00
  -11  -14    5     -0.71      0.00
  -10  -14    5      1.80      0.00
   12  -14    5     -0.26      0.00
   13  -14    5     -0.58      0.00
  -12  -13    5     -0.17      0.00
  -11  -13    5      0.10      0.00
   12  -13    5      0.35      0.00
   13  -13    5     -0.42      0.00
  -13  -12    5      0.71      0.00
  -12  -12    5      0.84      0.00
   13  -12    5      0.53      0.00
   14  -12    5     -0.49      0.00
  -13  -11    5     -1.51      0.00
   13  -11    5      0.66      0.00
   14  -11    5      0.60      0.00
  -14  -10    5     -0.61      0.00
  -13  -10    5      1.66      0.00
   14  -10    5     -0.08      0.00
  -14   -9    5     -0.29      0.00
   14   -9    5     -1.76      0.00
   15   -9    5     -0.81      0.00
  -15   -8    5      0.12      0.00
  -14   -8    5      2.44      0.00
   14   -8    5      1.34      0.00
   15   -8    5     -0.16      0.00
  -15   -7    5      0.35      0.00
    9   -7    5      0.53      0.00
   10   -7    5      0.49      0.00
   15   -7    5      0.61      0.00
  -15   -6    5      0.06      0.00
   15   -6    5     -0.77      0.00
  -15   -5    5     -0.04      0.00
   15   -5    5     -0.29      0.00
   15   -4    5      0.34      0.00
   15   -3    5      1.09      0.00
   15   -2    5     -0.48      0.00
   15   -1    5      0.29      0.00
   15    0    5     -0.16      0.00
   15    1    5      0.98      0.00
   15    2    5      0.10      0.00
   15    3    5      0.11      0.00
   14    4    5     -0.77      0.00
   15    4    5      0.84      0.00
   14    5    5      0.53      0.00
   14    6    5      0.26      0.00
  -11    7    5     -0.47      0.00
  -10    7    5     -1.20      0.00
   13    7    5      0.90      0.00
   14    7    5     -1.14      0.00
  -11    8    5      2.08      0.00
  -10    8    5     -0.13      0.00
   -9    8    5     -3.14      0.00
   13    8    5      0.80      0.00
  -15    9    5     -0.87      0.00
  -12    9    5     -0.27      0.00
  -11    9    5     -4.68      0.00
  -10    9    5      1.40      0.00
   12    9    5      0.56      0.00
   13    9    5     -1.57      0.00
  -15   10    5     -0.77      0.00
  -13   10    5      0.24      0.00
  -12   10    5      4.54      0.00
  -11   10    5      2.36      0.00
  -10   10    5     -2.50      0.00
   12   10    5      0.15      0.00
   13   10    5      0.56      0.00
  -15   11    5      1.73      0.00
  -13   11    5     -3.52      0.00
  -12   11    5     -1.26      0.00
  -11   11    5      2.00      0.00
   11   11    5     -0.38      0.00
   12   11    5     -0.66      0.00
  -15   12    5     -0.81      0.00
  -14   12    5      2.95      0.00
  -13   12    5      1.03      0.00
  -12   12    5     -1.70      0.00
   11   12    5     -0.15      0.00
  -14   13    5     -0.75      0.00
  -13   13    5      2.40      0.00
   10   13    5     -0.28      0.00
   11   13    5     -0.01      0.00
  -14   14    5     -1.02      0.00
  -13   14    5     -0.14      0.00
    9   14    5      1.80      0.00
   10   14    5     -0.90      0.00
  -13   15    5     -0.37      0.00
  -12   15    5      0.91      0.00
    8   15    5     -1.61      0.00
    9   15    5      0.58      0.00
  -12   16    5     -0.02      0.00
  -11   16    5      0.00      0.00
    7   16    5      0.30      0.00
    8   16    5      1.12      0.00
  -11   17    5      0.64      0.00
  -10   17    5     -0.41      0.00
    6   17    5     -0.50      0.00
    7   17    5     -0.68      0.00
  -10   18    5      0.38      0.00
   -9   18    5     -0.14      0.00
   -8   18    5      0.81      0.00
    4   18    5      0.37      0.00
    5   18    5      0.93      0.00
    6   18    5      0.44      0.00
   -9   19    5     -0.01      0.00
   -8   19    5     -0.22      0.00
   -7   19    5      0.32      0.00
   -6   19    5     -0.34      0.00
    1   19    5      0.12      0.00
    2   19    5      0.44      0.00
    3   19    5     -0.64      0.00
    4   19    5      0.51      0.00
    5   19    5      0.04      0.00
   -6  -19    6      1.76      0.00
   -5  -19    6      0.06      0.00
   -4  -19    6      1.40      0.00
   -3  -19    6     -0.28      0.00
    4  -19    6     -0.58      0.00
    5  -19    6     -0.84      0.00
    6  -19    6     -1.02      0.00
    7  -19    6      0.07      0.00
    8  -19    6      0.34      0.00
   -7  -18    6     -0.76      0.00
   -6  -18    6     -1.93      0.00
   -5  -18    6      1.19      0.00
    7  -18    6     -1.06      0.00
    8  -18    6     -1.11      0.00
    9  -18    6      0.34      0.00
   -9  -17    6      0.06      0.00
   -8  -17    6     -0.83      0.00
   -7  -17    6      2.73      0.00
    8  -17    6      1.15      0.00
    9  -17    6     -0.30      0.00
   10  -17    6     -0.26      0.00
  -10  -16    6      0.14      0.00
   -9  -16    6      0.57      0.00
   -8  -16    6     -0.92      0.00
   10  -16    6      0.54      0.00
   11  -16    6     -0.13      0.00
  -11  -15    6     -0.28      0.00
  -10  -15    6      1.52      0.00
   11  -15    6      0.88      0.00
   12  -15    6     -0.23      0.00
  -11  -14    6     -0.44      0.00
  -10  -14    6     -0.24      0.00
   11  -14    6     -0.43      0.00
   12  -14    6      1.33      0.00
  -12  -13    6      0.19      0.00
  -11  -13    6      0.48      0.00
   12  -13    6     -0.62      0.00
   13  -13    6      0.32      0.00
  -13  -12    6     -1.62      0.00
  -12  -12    6     -0.33      0.00
   13  -12    6      0.63      0.00
  -13  -11    6      0.83      0.00
   13  -11    6     -3.24      0.00
   14  -11    6      0.03      0.00
  -14  -10    6      0.12      0.00
  -13  -10    6     -0.15      0.00
   13  -10    6      2.45      0.00
   14  -10    6     -1.57      0.00
  -14   -9    6      0.91      0.00
   14   -9    6      1.53      0.00
  -15   -8    6      0.64      0.00
  -14   -8    6     -0.78      0.00
   14   -8    6     -1.20      0.00
   15   -8    6     -0.16      0.00
  -15   -7    6     -0.13      0.00
   14   -7    6      0.93      0.00
   15   -7    6     -0.30      0.00
  -15   -6    6      0.52      0.00
   15   -6    6      0.11      0.00
  -15   -5    6     -0.94      0.00
   15   -5    6      0.24      0.00
   15   -4    6      0.71      0.00
   15   -3    6     -0.99      0.00
   15   -2    6      0.44      0.00
   15   -1    6     -0.02      0.00
   15    0    6      0.81      0.00
   15    1    6      0.41      0.00
   15    2    6     -0.43      0.00
   14    3    6      0.31      0.00
   15    3    6      1.51      0.00
   14    4    6     -1.10      0.00
   15    4    6     -0.38      0.00
   14    5    6      1.48      0.00
   13    6    6     -0.05      0.00
   14    6    6     -1.04      0.00
  -10    7    6     -1.82      0.00
   -9    7    6     -4.34      0.00
   13    7    6      1.80      0.00
   14    7    6      0.69      0.00
  -11    8    6     -2.99      0.00
  -10    8    6      3.63      0.00
   -9    8    6      2.28      0.00
   13    8    6     -2.02      0.00
  -15    9    6     -0.44      0.00
  -12    9    6      2.69      0.00
  -11    9    6      2.08      0.00
  -10    9    6     -3.50      0.00
   12    9    6      0.54      0.00
   13    9    6      0.13      0.00
  -15   10    6      1.69      0.00
  -13   10    6     -1.73      0.00
  -12   10    6     -2.04      0.00
  -11   10    6      0.75      0.00
  -10   10    6      1.51      0.00
   12   10    6     -0.85      0.00
  -15   11    6     -0.73      0.00
  -13   11    6      1.35      0.00
  -12   11    6     -1.30      0.00
  -11   11    6     -1.21      0.00
   11   11    6     -0.23      0.00
   12   11    6     -0.06      0.00
  -15   12    6     -1.55      0.00
  -14   12    6     -2.06      0.00
  -13   12    6      3.05      0.00
  -12   12    6      1.23      0.00
   10   12    6      0.20      0.00
   11   12    6      0.15      0.00
  -14   13    6     -1.03      0.00
  -13   13    6     -0.67      0.00
   10   13    6     -0.97      0.00
   11   13    6     -0.24      0.00
  -14   14    6      0.76      0.00
  -13   14    6     -1.72      0.00
    9   14    6      0.67      0.00
   10   14    6      1.43      0.00
  -13   15    6      1.26      0.00
  -12   15    6     -1.01      0.00
    8   15    6      1.39      0.00
    9   15    6     -2.13      0.00
  -12   16    6      0.59      0.00
  -11   16    6      0.72      0.00
    7   16    6     -1.86      0.00
    8   16    6      0.66      0.00
  -11   17    6     -0.48      0.00
  -10   17    6      0.07      0.00
    5   17    6      0.64      0.00
    6   17    6      1.38      0.00
    7   17    6      0.92      0.00
  -10   18    6      0.52      0.00
   -9   18    6      0.25      0.00
   -8   18    6      0.99      0.00
    4   18    6      0.95      0.00
    5   18    6     -0.41      0.00
    6   18    6     -1.03      0.00
   -9   19    6      0.05      0.00
   -8   19    6     -0.98      0.00
   -7   19    6      0.19      0.00
   -6   19    6      0.33      0.00
    1   19    6     -1.07      0.00
    2   19    6      0.02      0.00
    3   19    6     -0.29      0.00
    4   19    6     -1.23      0.00
   -6  -19    7     -0.56      0.00
   -5  -19    7      0.19      0.00
   -4  -19    7      0.11      0.00
   -3  -19    7      2.68      0.00
   -2  -19    7      1.08      0.00
    4  -19    7      0.30      0.00
    5  -19    7      0.72      0.00
    6  -19    7      0.66      0.00
    7  -19    7     -0.53      0.00
   -7  -18    7      1.40      0.00
   -6  -18    7      0.16      0.00
   -5  -18    7     -1.54      0.00
    6  -18    7     -0.12      0.00
    7  -18    7      2.11      0.00
    8  -18    7      1.22      0.00
    9  -18    7     -0.16      0.00
   -9  -17    7      1.56      0.00
   -8  -17    7      0.05      0.00
   -7  -17    7     -1.25      0.00
    8  -17    7      0.27      0.00
    9  -17    7      0.76      0.00
   10  -17    7     -0.19      0.00
  -10  -16    7     -0.16      0.00
   -9  -16    7     -0.58      0.00
   -8  -16    7      1.36      0.00
    9  -16    7     -0.57      0.00
   10  -16    7      0.90      0.00
   11  -16    7      0.64      0.00
  -11  -15    7      0.12      0.00
  -10  -15    7      0.56      0.00
   -9  -15    7      0.80      0.00
   10  -15    7     -1.48      0.00
   11  -15    7     -0.50      0.00
  -11  -14    7      0.49      0.00
  -10  -14    7     -1.35      0.00
   11  -14    7     -0.33      0.00
   12  -14    7     -0.92      0.00
  -12  -13    7     -0.54      0.00
  -11  -13    7      1.46      0.00
   12  -13    7     -1.19      0.00
   13  -13    7     -0.42      0.00
  -13  -12    7      1.06      0.00
  -12  -12    7     -1.20      0.00
   12  -12    7      0.84      0.00
   13  -12    7     -1.70      0.00
  -13  -11    7      0.15      0.00
   13  -11    7      1.72      0.00
  -14  -10    7      0.18      0.00
  -13  -10    7     -0.69      0.00
   13  -10    7      0.19      0.00
   14  -10    7      0.80      0.00
  -14   -9    7     -0.83      0.00
   14   -9    7     -0.25      0.00
  -15   -8    7      0.74      0.00
  -14   -8    7      0.54      0.00
   14   -8    7      0.03      0.00
  -15   -7    7     -0.39      0.00
   14   -7    7      0.27      0.00
   15   -7    7      1.07      0.00
  -15   -6    7      0.21      0.00
   14   -6    7     -1.10      0.00
   15   -6    7     -0.90      0.00
  -15   -5    7      0.58      0.00
   14   -5    7     -0.20      0.00
   15   -5    7      0.92      0.00
   15   -4    7     -1.55      0.00
   15   -3    7      1.11      0.00
   15   -2    7     -0.22      0.00
   15   -1    7      0.75      0.00
   15    0    7     -0.08      0.00
   14    1    7      2.70      0.00
   15    1    7      0.18      0.00
   14    2    7     -0.76      0.00
   15    2    7      0.85      0.00
   14    3    7     -0.70      0.00
   14    4    7      1.36      0.00
   14    5    7      0.17      0.00
   -9    6    7     -3.27      0.00
   -8    6    7      0.35      0.00
   13    6    7      0.84      0.00
   14    6    7      0.35      0.00
  -10    7    7      4.27      0.00
   -9    7    7      1.22      0.00
   -8    7    7     -2.24      0.00
   13    7    7     -1.10      0.00
  -11    8    7      2.20      0.00
  -10    8    7     -3.05      0.00
   -9    8    7      1.64      0.00
   12    8    7      0.73      0.00
   13    8    7     -0.46      0.00
  -15    9    7      0.96      0.00
  -12    9    7     -4.01      0.00
  -11    9    7     -1.63      0.00
  -10    9    7      0.60      0.00
   -9    9    7     -2.54      0.00
   12    9    7     -0.48      0.00
   13    9    7      0.51      0.00
  -15   10    7     -0.29      0.00
  -12   10    7      1.91      0.00
  -11   10    7     -0.04      0.00
  -10   10    7     -0.86      0.00
   11   10    7     -0.13      0.00
   12   10    7     -0.42      0.00
  -15   11    7     -1.61      0.00
  -13   11    7      1.50      0.00
  -12   11    7     -0.16      0.00
  -11   11    7     -0.02      0.00
   11   11    7      0.08      0.00
   12   11    7      0.17      0.00
  -15   12    7      1.94      0.00
  -14   12    7     -0.91      0.00
  -13   12    7     -0.95      0.00
  -12   12    7      1.72      0.00
   10   12    7     -1.08      0.00
   11   12    7     -0.14      0.00
  -14   13    7      1.69      0.00
  -13   13    7     -1.28      0.00
  -12   13    7      0.69      0.00
    9   13    7      1.47      0.00
   10   13    7      0.88      0.00
  -14   14    7      0.90      0.00
  -13   14    7      1.09      0.00
    9   14    7     -3.00      0.00
   10   14    7     -0.04      0.00
  -13   15    7      1.64      0.00
  -12   15    7      1.83      0.00
    8   15    7      2.57      0.00
    9   15    7      1.24      0.00
  -12   16    7      0.32      0.00
  -11   16    7      0.57      0.00
    6   16    7      1.27      0.00
    7   16    7      0.22      0.00
    8   16    7     -2.17      0.00
  -11   17    7      0.04      0.00
  -10   17    7     -1.19      0.00
    5   17    7     -1.08      0.00
    6   17    7     -1.42      0.00
    7   17    7      1.80      0.00
  -10   18    7      0.87      0.00
   -9   18    7     -0.05      0.00
   -8   18    7     -0.80      0.00
    3   18    7     -0.06      0.00
    4   18    7     -0.16      0.00
    5   18    7      1.43      0.00
   -9   19    7      0.23      0.00
   -8   19    7      0.13      0.00
   -7   19    7     -0.89      0.00
   -6   19    7     -0.16      0.00
   -5   19    7      0.07      0.00
    0   19    7      1.62      0.00
    1   19    7      0.72      0.00
    2   19    7     -2.04      0.00
    3   19    7      0.36      0.00
    4   19    7     -0.08      0.00
   -6  -19    8      0.34      0.00
   -5  -19    8     -0.96      0.00
   -4  -19    8     -1.79      0.00
   -3  -19    8     -0.43      0.00
   -2  -19    8      0.46      0.00
   -1  -19    8      0.57      0.00
    3  -19    8     -0.68      0.00
    4  -19    8     -0.30      0.00
    5  -19    8     -1.11      0.00
    6  -19    8     -0.41      0.00
    7  -19    8      1.42      0.00
   -7  -18    8     -1.12      0.00
   -6  -18    8      1.33      0.00
   -5  -18    8      2.33      0.00
    6  -18    8     -1.50      0.00
    7  -18    8     -2.51      0.00
    8  -18    8      0.28      0.00
   -8  -17    8      1.32      0.00
   -7  -17    8     -0.18      0.00
    8  -17    8     -1.56      0.00
    9  -17    8     -0.38      0.00
  -10  -16    8      0.54      0.00
   -9  -16    8      0.36      0.00
   -8  -16    8     -1.18      0.00
    9  -16    8     -0.03      0.00
   10  -16    8      0.00      0.00
  -11  -15    8      0.31      0.00
  -10  -15    8     -0.79      0.00
   -9  -15    8      0.49      0.00
   10  -15    8      0.05      0.00
   11  -15    8     -0.62      0.00
  -11  -14    8      1.55      0.00
  -10  -14    8      1.50      0.00
   11  -14    8      0.55      0.00
   12  -14    8      0.10      0.00
  -12  -13    8     -0.98      0.00
  -11  -13    8     -1.39      0.00
   11  -13    8      0.64      0.00
   12  -13    8      0.10      0.00
  -13  -12    8      0.11      0.00
  -12  -12    8      2.14      0.00
   12  -12    8      1.71      0.00
   13  -12    8      1.36      0.00
  -13  -11    8     -1.64      0.00
   13  -11    8     -0.30      0.00
  -14  -10    8      0.35      0.00
  -13  -10    8      0.29      0.00
   13  -10    8     -1.18      0.00
   14  -10    8     -0.13      0.00
  -14   -9    8      0.08      0.00
   13   -9    8      0.45      0.00
   14   -9    8      0.16      0.00
  -15   -8    8     -0.01      0.00
  -14   -8    8      1.00      0.00
   14   -8    8     -0.43      0.00
  -15   -7    8     -0.15      0.00
   14   -7    8     -0.93      0.00
  -15   -6    8      1.30      0.00
   14   -6    8      0.33      0.00
   15   -6    8     -0.18      0.00
  -15   -5    8     -1.29      0.00
   14   -5    8      1.09      0.00
   15   -5    8     -0.22      0.00
   14   -4    8      0.34      0.00
   15   -4    8      0.36      0.00
   14   -3    8     -0.50      0.00
   15   -3    8      0.36      0.00
   14   -2    8     -0.65      0.00
   15   -2    8     -0.23      0.00
   14   -1    8      0.82      0.00
   15   -1    8      0.39      0.00
   14    0    8      1.48      0.00
   15    0    8     -0.23      0.00
   14    1    8     -0.27      0.00
   15    1    8      1.21      0.00
   14    2    8     -1.55      0.00
   14    3    8      2.85      0.00
   14    4    8     -0.30      0.00
   13    5    8      0.76      0.00
   14    5    8      0.75      0.00
   -8    6    8     -1.44      0.00
   13    6    8     -0.53      0.00
   -9    7    8      1.43      0.00
   -8    7    8      2.25      0.00
   13    7    8      0.07      0.00
  -10    8    8      1.12      0.00
   -9    8    8     -2.01      0.00
   12    8    8      0.24      0.00
   13    8    8      0.47      0.00
  -15    9    8     -0.08      0.00
  -11    9    8     -0.88      0.00
  -10    9    8     -1.44      0.00
   12    9    8     -0.64      0.00
  -15   10    8     -0.66      0.00
  -12   10    8     -0.52      0.00
  -11   10    8      1.19      0.00
  -10   10    8      1.48      0.00
   11   10    8      0.51      0.00
   12   10    8     -0.39      0.00
  -15   11    8      1.71      0.00
  -14   11    8     -0.01      0.00
  -13   11    8     -0.67      0.00
  -12   11    8     -0.45      0.00
  -11   11    8     -1.94      0.00
   11   11    8     -0.25      0.00
  -15   12    8     -0.17      0.00
  -14   12    8      1.43      0.00
  -13   12    8      0.21      0.00
  -12   12    8      1.66      0.00
   10   12    8      0.13      0.00
   11   12    8     -0.19      0.00
  -14   13    8      1.13      0.00
  -13   13    8      0.13      0.00
  -12   13    8     -2.87      0.00
    9   13    8     -1.90      0.00
   10   13    8      0.62      0.00
  -14   14    8     -1.24      0.00
  -13   14    8      2.86      0.00
    8   14    8      2.64      0.00
    9   14    8      0.26      0.00
  -13   15    8     -1.86      0.00
  -12   15    8      0.90      0.00
    7   15    8      0.18      0.00
    8   15    8     -1.80      0.00
  -12   16    8     -0.43      0.00
  -11   16    8     -0.09      0.00
    6   16    8     -2.06      0.00
    7   16    8      1.51      0.00
  -11   17    8      0.35      0.00
  -10   17    8      0.08      0.00
    5   17    8      2.43      0.00
    6   17    8      0.34      0.00
  -10   18    8      0.42      0.00
   -9   18    8      1.37      0.00
   -8   18    8      0.65      0.00
    3   18    8      1.05      0.00
    4   18    8     -0.54      0.00
    5   18    8     -0.80      0.00
   -9   19    8     -0.62      0.00
   -8   19    8      0.13      0.00
   -7   19    8      0.87      0.00
   -6   19    8      0.41      0.00
   -5   19    8     -0.42      0.00
   -4   19    8     -0.92      0.00
   -3   19    8      0.23      0.00
   -2   19    8      0.32      0.00
   -1   19    8     -0.71      0.00
    0   19    8     -0.90      0.00
    1   19    8      2.64      0.00
    2   19    8      0.85      0.00
    3   19    8     -0.81      0.00
   -5  -19    9      1.66      0.00
   -4  -19    9      0.24      0.00
   -3  -19    9     -0.75      0.00
   -2  -19    9      0.90      0.00
   -1  -19    9     -0.09      0.00
    0  -19    9      0.21      0.00
    1  -19    9      0.03      0.00
    2  -19    9      0.61      0.00
    3  -19    9      0.22      0.00
    4  -19    9      1.68      0.00
    5  -19    9      1.07      0.00
    6  -19    9     -0.98      0.00
   -7  -18    9     -0.16      0.00
   -6  -18    9     -1.50      0.00
   -5  -18    9     -0.67      0.00
    5  -18    9      1.04      0.00
    6  -18    9      2.04      0.00
    7  -18    9      0.78      0.00
    8  -18    9     -0.22      0.00
   -8  -17    9     -1.02      0.00
   -7  -17    9      1.22      0.00
    7  -17    9      1.63      0.00
    8  -17    9      0.84      0.00
    9  -17    9      0.31      0.00
   -9  -16    9      0.64      0.00
   -8  -16    9      1.13      0.00
    9  -16    9      0.15      0.00
   10  -16    9     -0.17      0.00
  -10  -15    9      1.63      0.00
   -9  -15    9     -1.77      0.00
   10  -15    9     -0.15      0.00
   11  -15    9      0.26      0.00
  -11  -14    9     -1.29      0.00
  -10  -14    9      1.20      0.00
   10  -14    9      1.06      0.00
   11  -14    9      0.37      0.00
  -12  -13    9      1.50      0.00
  -11  -13    9     -0.57      0.00
   11  -13    9     -1.45      0.00
   12  -13    9      0.23      0.00
  -13  -12    9     -0.85      0.00
  -12  -12    9     -0.32      0.00
   12  -12    9     -2.02      0.00
  -13  -11    9     -0.38      0.00
   12  -11    9      0.50      0.00
   13  -11    9     -1.21      0.00
  -14  -10    9      0.80      0.00
  -13  -10    9      1.13      0.00
   13  -10    9      0.55      0.00
  -14   -9    9     -0.43      0.00
   13   -9    9     -0.69      0.00
   14   -9    9      0.29      0.00
  -15   -8    9      0.70      0.00
  -14   -8    9     -0.42      0.00
   13   -8    9      0.86      0.00
   14   -8    9     -1.50      0.00
  -15   -7    9      0.56      0.00
   14   -7    9      1.85      0.00
  -15   -6    9     -1.23      0.00
   14   -6    9      0.10      0.00
  -15   -5    9      0.50      0.00
   14   -5    9     -0.18      0.00
   14   -4    9     -1.10      0.00
   14   -3    9      0.35      0.00
   14   -2    9      0.64      0.00
   15   -2    9     -0.04      0.00
   14   -1    9      1.31      0.00
   14    0    9     -1.29      0.00
   14    1    9     -0.12      0.00
   14    2    9      2.04      0.00
   14    3    9      0.53      0.00
   13    4    9     -0.01      0.00
   14    4    9     -0.45      0.00
   13    5    9      0.73      0.00
   13    6    9      0.61      0.00
   -9    7    9     -1.81      0.00
   12    7    9     -0.18      0.00
   13    7    9      0.08      0.00
  -10    8    9     -0.47      0.00
   -9    8    9      1.10      0.00
   12    8    9      0.37      0.00
  -15    9    9     -0.37      0.00
  -11    9    9      0.50      0.00
  -10    9    9      0.75      0.00
   11    9    9     -0.39      0.00
   12    9    9     -1.43      0.00
  -15   10    9      1.63      0.00
  -12   10    9     -1.06      0.00
  -11   10    9     -1.18      0.00
   11   10    9      0.71      0.00
  -15   11    9     -1.02      0.00
  -14   11    9     -0.29      0.00
  -12   11    9      1.08      0.00
  -11   11    9      0.13      0.00
   10   11    9     -0.53      0.00
   11   11    9     -0.78      0.00
  -15   12    9      0.20      0.00
  -14   12    9      0.79      0.00
  -13   12    9     -1.12      0.00
  -12   12    9     -1.66      0.00
   10   12    9      0.74      0.00
  -14   13    9     -0.52      0.00
  -13   13    9      3.47      0.00
  -12   13    9      1.14      0.00
    9   13    9     -0.63      0.00
   10   13    9     -0.52      0.00
  -14   14    9     -0.29      0.00
  -13   14    9     -2.56      0.00
    8   14    9     -1.55      0.00
    9   14    9      1.23      0.00
  -13   15    9      0.79      0.00
  -12   15    9     -1.47      0.00
    7   15    9      1.71      0.00
    8   15    9     -0.14      0.00
  -12   16    9      0.93      0.00
  -11   16    9      2.14      0.00
    6   16    9     -0.02      0.00
    7   16    9     -1.43      0.00
  -11   17    9     -0.94      0.00
  -10   17    9      0.96      0.00
   -9   17    9      1.35      0.00
    4   17    9     -1.87      0.00
    5   17    9     -0.55      0.00
    6   17    9      1.71      0.00
  -10   18    9      0.07      0.00
   -9   18    9     -0.32      0.00
   -8   18    9      0.35      0.00
   -7   18    9      1.47      0.00
    2   18    9      0.62      0.00
    3   18    9      0.61      0.00
    4   18    9      0.70      0.00
    5   18    9     -0.38      0.00
   -8   19    9     -0.56      0.00
   -7   19    9     -1.00      0.00
   -6   19    9      0.15      0.00
   -5   19    9      0.56      0.00
   -4   19    9      0.65      0.00
   -3   19    9      0.25      0.00
   -2   19    9      0.40      0.00
   -1   19    9      1.17      0.00
    0   19    9     -1.33      0.00
    1   19    9     -2.80      0.00
    2   19    9      0.66      0.00
    3   19    9     -0.37      0.00
   -5  -19   10     -0.63      0.00
   -4  -19   10      1.78      0.00
   -3  -19   10      0.41      0.00
   -2  -19   10     -0.66      0.00
   -1  -19   10     -0.03      0.00
    0  -19   10      0.10      0.00
    1  -19   10     -0.53      0.00
    2  -19   10     -0.61      0.00
    3  -19   10     -0.29      0.00
    4  -19   10     -0.58      0.00
    5  -19   10      1.09      0.00
    6  -19   10      1.42      0.00
   -7  -18   10      0.42      0.00
   -6  -18   10      0.37      0.00
   -5  -18   10     -0.76      0.00
   -4  -18   10     -2.32      0.00
    5  -18   10     -1.84      0.00
    6  -18   10     -0.58      0.00
    7  -18   10      0.89      0.00
   -8  -17   10      0.91      0.00
   -7  -17   10     -0.42      0.00
   -6  -17   10      0.38      0.00
    7  -17   10     -1.28      0.00
    8  -17   10      0.10      0.00
    9  -17   10     -0.45      0.00
   -9  -16   10     -2.12      0.00
   -8  -16   10     -0.50      0.00
    8  -16   10     -0.41      0.00
    9  -16   10      0.81      0.00
   10  -16   10      0.20      0.00
  -10  -15   10      1.77      0.00
   -9  -15   10      3.35      0.00
    9  -15   10     -0.83      0.00
   10  -15   10      0.45      0.00
  -11  -14   10     -0.70      0.00
  -10  -14   10     -3.21      0.00
   10  -14   10     -1.19      0.00
   11  -14   10     -0.46      0.00
  -12  -13   10      0.64      0.00
  -11  -13   10      2.02      0.00
   11  -13   10     -0.30      0.00
   12  -13   10     -1.57      0.00
  -13  -12   10     -0.75      0.00
  -12  -12   10     -1.55      0.00
   11  -12   10      1.40      0.00
   12  -12   10      1.22      0.00
  -13  -11   10      1.47      0.00
   12  -11   10      0.44      0.00
   13  -11   10      0.30      0.00
  -14  -10   10     -0.62      0.00
  -13  -10   10     -1.18      0.00
   12  -10   10     -0.84      0.00
   13  -10   10      0.01      0.00
  -14   -9   10     -0.98      0.00
   13   -9   10      0.42      0.00
  -15   -8   10      1.03      0.00
  -14   -8   10      0.32      0.00
   13   -8   10      0.62      0.00
   14   -8   10      0.65      0.00
  -15   -7   10     -1.41      0.00
   13   -7   10     -1.94      0.00
   14   -7   10      0.54      0.00
  -15   -6   10      0.94      0.00
   13   -6   10     -1.50      0.00
   14   -6   10     -1.39      0.00
  -15   -5   10      0.80      0.00
   14   -5   10     -0.26      0.00
   14   -4   10      0.75      0.00
   14   -3   10      0.51      0.00
   14   -2   10      0.30      0.00
   14   -1   10     -0.74      0.00
   14    0   10     -0.10      0.00
   14    1   10      2.18      0.00
   13    2   10     -2.18      0.00
   14    2   10     -0.20      0.00
   13    3   10      2.01      0.00
   14    3   10     -0.44      0.00
   13    4   10      0.06      0.00
   13    5   10      1.48      0.00
   12    6   10     -1.32      0.00
   13    6   10     -0.60      0.00
   12    7   10      1.27      0.00
   13    7   10     -0.26      0.00
  -15    8   10      0.43      0.00
   12    8   10     -1.13      0.00
  -15    9   10      0.33      0.00
   11    9   10      1.06      0.00
   12    9   10      0.71      0.00
  -15   10   10     -0.42      0.00
  -11   10   10      0.27      0.00
   10   10   10      0.45      0.00
   11   10   10     -0.76      0.00
  -15   11   10      0.20      0.00
  -14   11   10     -0.98      0.00
  -12   11   10     -1.47      0.00
   10   11   10     -0.46      0.00
   11   11   10      0.07      0.00
  -15   12   10      0.23      0.00
  -14   12   10      1.29      0.00
  -13   12   10      4.09      0.00
  -12   12   10      0.75      0.00
    9   12   10     -0.17      0.00
   10   12   10      0.08      0.00
  -14   13   10     -1.26      0.00
  -13   13   10     -3.38      0.00
    8   13   10     -0.72      0.00
    9   13   10      0.61      0.00
  -13   14   10      1.43      0.00
  -12   14   10     -2.49      0.00
    7   14   10      0.46      0.00
    8   14   10     -0.46      0.00
    9   14   10     -0.49      0.00
  -13   15   10      0.35      0.00
  -12   15   10      1.89      0.00
  -11   15   10      2.14      0.00
    6   15   10      0.98      0.00
    7   15   10     -0.25      0.00
    8   15   10      0.46      0.00
  -12   16   10     -0.92      0.00
  -11   16   10     -0.37      0.00
  -10   16   10      2.95      0.00
    5   16   10     -0.78      0.00
    6   16   10      0.71      0.00
    7   16   10      0.03      0.00
  -11   17   10     -0.70      0.00
  -10   17   10     -1.53      0.00
   -9   17   10     -0.91      0.00
    3   17   10      1.42      0.00
    4   17   10      0.74      0.00
    5   17   10     -0.36      0.00
  -10   18   10      0.46      0.00
   -9   18   10      0.71      0.00
   -8   18   10     -1.00      0.00
   -7   18   10     -0.87      0.00
    1   18   10     -2.33      0.00
    2   18   10      0.33      0.00
    3   18   10     -0.59      0.00
    4   18   10      1.19      0.00
   -8   19   10      0.64      0.00
   -7   19   10      0.44      0.00
   -6   19   10     -0.13      0.00
   -5   19   10     -0.19      0.00
   -4   19   10     -0.06      0.00
   -3   19   10      1.19      0.00
   -2   19   10      0.69      0.00
   -1   19   10      0.23      0.00
    0   19   10      2.67      0.00
    1   19   10     -0.09      0.00
    2   19   10     -0.69      0.00
   -5  -19   11     -0.16      0.00
   -4  -19   11     -1.72      0.00
   -3  -19   11      1.17      0.00
   -2  -19   11      1.35      0.00
   -1  -19   11     -0.50      0.00
    0  -19   11     -0.54      0.00
    1  -19   11      0.70      0.00
    2  -19   11     -0.52      0.00
    3  -19   11     -0.10      0.00
    4  -19   11     -0.21      0.00
    5  -19   11     -0.42      0.00
   -7  -18   11     -0.02      0.00
   -6  -18   11     -0.31      0.00
   -5  -18   11      1.65      0.00
   -4  -18   11      1.20      0.00
   -3  -18   11     -1.85      0.00
    4  -18   11      0.64      0.00
    5  -18   11     -0.42      0.00
    6  -18   11     -0.97      0.00
    7  -18   11     -0.41      0.00
   -8  -17   11     -0.13      0.00
   -7  -17   11     -0.37      0.00
   -6  -17   11     -0.20      0.00
    6  -17   11      1.93      0.00
    7  -17   11     -0.03      0.00
    8  -17   11     -0.51      0.00
   -9  -16   11      1.77      0.00
   -8  -16   11      0.16      0.00
    8  -16   11      0.51      0.00
    9  -16   11     -0.34      0.00
  -10  -15   11     -2.31      0.00
   -9  -15   11     -0.90      0.00
    9  -15   11     -0.38      0.00
   10  -15   11     -1.14      0.00
  -11  -14   11      1.35      0.00
  -10  -14   11      2.66      0.00
   10  -14   11      1.24      0.00
   11  -14   11     -0.14      0.00
  -12  -13   11     -0.20      0.00
  -11  -13   11      0.09      0.00
   10  -13   11     -0.76      0.00
   11  -13   11      0.80      0.00
  -13  -12   11      0.95      0.00
  -12  -12   11     -1.10      0.00
   11  -12   11     -0.91      0.00
   12  -12   11      0.69      0.00
  -13  -11   11     -1.02      0.00
  -12  -11   11      2.07      0.00
   12  -11   11     -1.36      0.00
  -14  -10   11     -0.64      0.00
  -13  -10   11     -0.79      0.00
   12  -10   11      0.62      0.00
   13  -10   11     -0.27      0.00
  -14   -9   11      0.64      0.00
   12   -9   11     -1.90      0.00
   13   -9   11      0.22      0.00
  -15   -8   11     -0.59      0.00
  -14   -8   11      0.48      0.00
   13   -8   11     -1.66      0.00
  -15   -7   11      0.07      0.00
  -14   -7   11     -1.41      0.00
   13   -7   11      0.41      0.00
  -15   -6   11      0.72      0.00
   13   -6   11      1.57      0.00
   14   -6   11     -0.89      0.00
  -15   -5   11     -2.72      0.00
   13   -5   11      1.18      0.00
   14   -5   11      1.56      0.00
  -15   -4   11      1.50      0.00
   13   -4   11     -2.61      0.00
   14   -4   11     -0.39      0.00
   13   -3   11      0.40      0.00
   14   -3   11      0.01      0.00
   13   -2   11      0.13      0.00
   14   -2   11     -0.51      0.00
   13   -1   11      2.37      0.00
   14   -1   11      0.53      0.00
   13    0   11     -0.95      0.00
   14    0   11      0.79      0.00
   13    1   11     -1.14      0.00
   14    1   11      0.52      0.00
   13    2   11      1.56      0.00
   14    2   11     -1.44      0.00
   13    3   11      1.22      0.00
   13    4   11     -0.05      0.00
   12    5   11     -0.48      0.00
   13    5   11      0.02      0.00
   12    6   11      0.80      0.00
   13    6   11     -0.45      0.00
   12    7   11      0.16      0.00
  -15    8   11      0.52      0.00
   11    8   11      1.77      0.00
   12    8   11     -0.20      0.00
  -15    9   11     -0.72      0.00
   11    9   11     -1.18      0.00
  -15   10   11      1.15      0.00
   10   10   11     -0.09      0.00
   11   10   11      0.15      0.00
  -15   11   11     -0.68      0.00
  -14   11   11      1.38      0.00
    9   11   11      0.30      0.00
   10   11   11     -0.24      0.00
  -15   12   11      0.99      0.00
  -14   12   11     -1.48      0.00
  -12   12   11      2.94      0.00
    9   12   11      0.38      0.00
   10   12   11      0.64      0.00
  -14   13   11      2.16      0.00
  -13   13   11      0.63      0.00
    8   13   11     -0.15      0.00
    9   13   11     -0.92      0.00
  -13   14   11      1.58      0.00
  -12   14   11      3.98      0.00
    7   14   11     -0.01      0.00
    8   14   11      0.34      0.00
  -13   15   11     -0.97      0.00
  -12   15   11     -2.25      0.00
  -11   15   11     -0.50      0.00
    6   15   11     -0.07      0.00
    7   15   11      0.04      0.00
  -12   16   11      1.56      0.00
  -11   16   11     -1.12      0.00
  -10   16   11     -2.28      0.00
    5   16   11     -0.05      0.00
    6   16   11     -0.76      0.00
  -11   17   11      1.08      0.00
  -10   17   11      0.00      0.00
   -9   17   11     -0.26      0.00
   -8   17   11     -1.56      0.00
    3   17   11     -1.50      0.00
    4   17   11      1.05      0.00
    5   17   11      0.62      0.00
   -9   18   11      0.35      0.00
   -8   18   11      0.92      0.00
   -7   18   11      0.27      0.00
   -6   18   11      0.19      0.00
    0   18   11      2.54      0.00
    1   18   11      0.55      0.00
    2   18   11      0.66      0.00
    3   18   11     -0.20      0.00
    4   18   11     -0.45      0.00
   -8   19   11     -0.17      0.00
   -7   19   11     -0.50      0.00
   -6   19   11     -0.09      0.00
   -5   19   11     -0.06      0.00
   -4   19   11     -0.77      0.00
   -3   19   11     -0.56      0.00
   -2   19   11      0.99      0.00
   -1   19   11     -0.34      0.00
    0   19   11     -1.49      0.00
    1   19   11      1.06      0.00
    2   19   11     -0.14      0.00
   -4  -19   12      1.36      0.00
   -3  -19   12     -1.28      0.00
   -2  -19   12      0.48      0.00
   -1  -19   12      1.74      0.00
    0  -19   12     -0.45      0.00
    1  -19   12      0.17      0.00
    2  -19   12      1.00      0.00
    3  -19   12      0.51      0.00
    4  -19   12      0.47      0.00
    5  -19   12      0.38      0.00
   -6  -18   12      0.05      0.00
   -5  -18   12     -1.48      0.00
   -4  -18   12      0.94      0.00
   -3  -18   12      1.78      0.00
   -2  -18   12     -1.66      0.00
    2  -18   12     -0.29      0.00
    3  -18   12     -0.59      0.00
    4  -18   12      0.11      0.00
    5  -18   12      0.42      0.00
    6  -18   12      0.90      0.00
   -8  -17   12      0.11      0.00
   -7  -17   12      0.11      0.00
   -6  -17   12      0.18      0.00
   -5  -17   12      0.60      0.00
    5  -17   12     -0.03      0.00
    6  -17   12     -0.15      0.00
    7  -17   12      1.46      0.00
    8  -17   12      0.35      0.00
   -9  -16   12     -0.28      0.00
   -8  -16   12      0.01      0.00
   -7  -16   12      0.35      0.00
    7  -16   12     -1.06      0.00
    8  -16   12      0.85      0.00
    9  -16   12      0.01      0.00
  -10  -15   12      2.67      0.00
   -9  -15   12     -0.96      0.00
    8  -15   12     -0.79      0.00
    9  -15   12      1.26      0.00
   10  -15   12      0.33      0.00
  -11  -14   12     -1.40      0.00
  -10  -14   12     -0.34      0.00
    9  -14   12     -1.02      0.00
   10  -14   12      0.39      0.00
  -12  -13   12     -0.71      0.00
  -11  -13   12      0.05      0.00
   10  -13   12     -1.06      0.00
   11  -13   12     -1.20      0.00
  -12  -12   12      1.66      0.00
   11  -12   12     -0.03      0.00
  -13  -11   12     -0.43      0.00
  -12  -11   12     -1.36      0.00
   11  -11   12      0.42      0.00
   12  -11   12     -0.54      0.00
  -14  -10   12      0.52      0.00
  -13  -10   12     -0.09      0.00
   12  -10   12     -0.13      0.00
  -14   -9   12     -0.04      0.00
  -13   -9   12      0.80      0.00
   12   -9   12      1.46      0.00
   13   -9   12     -0.31      0.00
  -15   -8   12      0.14      0.00
  -14   -8   12     -1.28      0.00
   12   -8   12      0.08      0.00
   13   -8   12      0.73      0.00
  -15   -7   12     -0.20      0.00
  -14   -7   12      1.09      0.00
   13   -7   12      0.40      0.00
  -15   -6   12     -1.39      0.00
   13   -6   12      0.62      0.00
  -15   -5   12      1.55      0.00
   13   -5   12     -2.61      0.00
  -15   -4   12     -0.11      0.00
   13   -4   12      0.98      0.00
   14   -4   12     -0.68      0.00
   13   -3   12      0.70      0.00
   14   -3   12      0.22      0.00
   13   -2   12      1.14      0.00
   14   -2   12      0.17      0.00
   13   -1   12     -0.98      0.00
   14   -1   12      0.44      0.00
   13    0   12     -0.67      0.00
   13    1   12      1.70      0.00
   13    2   12      0.66      0.00
   13    3   12     -0.11      0.00
   12    4   12      0.00      0.00
   13    4   12     -0.46      0.00
   12    5   12      0.43      0.00
   13    5   12      0.58      0.00
   12    6   12      1.05      0.00
   11    7   12      0.73      0.00
   12    7   12     -0.97      0.00
  -15    8   12      0.38      0.00
   11    8   12     -0.22      0.00
  -15    9   12      0.06      0.00
   10    9   12     -0.24      0.00
   11    9   12     -0.74      0.00
  -15   10   12      0.00      0.00
  -14   10   12      3.19      0.00
   10   10   12      0.58      0.00
  -15   11   12      0.02      0.00
  -14   11   12     -3.19      0.00
    9   11   12     -0.46      0.00
   10   11   12      0.38      0.00
  -14   12   12      3.22      0.00
  -13   12   12      0.11      0.00
    8   12   12      0.74      0.00
    9   12   12     -1.17      0.00
  -14   13   12     -1.70      0.00
  -13   13   12      2.48      0.00
    7   13   12     -0.19      0.00
    8   13   12      0.34      0.00
    9   13   12      0.93      0.00
  -13   14   12     -2.12      0.00
  -12   14   12     -1.77      0.00
    6   14   12     -1.15      0.00
    7   14   12     -0.13      0.00
    8   14   12     -0.25      0.00
  -12   15   12      0.78      0.00
  -11   15   12     -2.48      0.00
    5   15   12      0.71      0.00
    6   15   12     -0.16      0.00
    7   15   12      0.15      0.00
  -12   16   12      0.35      0.00
  -11   16   12      2.65      0.00
  -10   16   12     -0.07      0.00
    4   16   12      0.94      0.00
    5   16   12      0.73      0.00
    6   16   12      0.37      0.00
  -10   17   12      1.08      0.00
   -9   17   12      0.31      0.00
   -8   17   12      0.63      0.00
    2   17   12      0.88      0.00
    3   17   12     -0.52      0.00
    4   17   12     -0.70      0.00
   -9   18   12      0.29      0.00
   -8   18   12     -0.06      0.00
   -7   18   12     -0.57      0.00
   -6   18   12      0.10      0.00
   -5   18   12     -0.33      0.00
   -4   18   12     -1.47      0.00
   -3   18   12     -0.22      0.00
   -2   18   12      1.16      0.00
   -1   18   12     -1.49      0.00
    0   18   12     -2.80      0.00
    1   18   12      0.81      0.00
    2   18   12      0.42      0.00
    3   18   12      1.16      0.00
   -7   19   12      0.38      0.00
   -6   19   12     -0.38      0.00
   -5   19   12      0.17      0.00
   -4   19   12      0.18      0.00
   -3   19   12     -0.30      0.00
   -2   19   12     -0.17      0.00
   -1   19   12      1.84      0.00
    0   19   12      0.43      0.00
    1   19   12     -1.30      0.00
   -4  -19   13      0.62      0.00
   -3  -19   13      1.26      0.00
   -2  -19   13     -1.44      0.00
   -1  -19   13     -0.54      0.00
    0  -19   13      0.35      0.00
    1  -19   13     -0.68      0.00
    2  -19   13      0.26      0.00
    3  -19   13     -0.11      0.00
    4  -19   13      0.01      0.00
   -6  -18   13      0.15      0.00
   -5  -18   13      0.31      0.00
   -4  -18   13     -0.96      0.00
   -3  -18   13      0.33      0.00
   -2  -18   13      2.22      0.00
   -1  -18   13     -0.38      0.00
    0  -18   13     -0.29      0.00
    1  -18   13     -0.05      0.00
    2  -18   13     -0.63      0.00
    3  -18   13      0.37      0.00
    4  -18   13     -0.29      0.00
    5  -18   13     -0.60      0.00
    6  -18   13      0.07      0.00
   -8  -17   13     -0.51      0.00
   -7  -17   13     -0.32      0.00
   -6  -17   13     -0.12      0.00
   -5  -17   13      0.01      0.00
    5  -17   13      0.84      0.00
    6  -17   13     -0.41      0.00
    7  -17   13     -0.40      0.00
   -9  -16   13     -0.56      0.00
   -8  -16   13      0.39      0.00
   -7  -16   13     -0.57      0.00
    6  -16   13      0.72      0.00
    7  -16   13     -0.39      0.00
    8  -16   13     -0.29      0.00
  -10  -15   13      0.12      0.00
   -9  -15   13      1.93      0.00
   -8  -15   13      1.12      0.00
    8  -15   13     -1.03      0.00
    9  -15   13     -1.20      0.00
  -11  -14   13      0.75      0.00
  -10  -14   13     -2.00      0.00
    9  -14   13     -0.44      0.00
   10  -14   13     -0.90      0.00
  -12  -13   13      1.22      0.00
  -11  -13   13      0.68      0.00
  -10  -13   13      1.95      0.00
    9  -13   13      0.79      0.00
   10  -13   13     -0.15      0.00
   11  -13   13     -0.16      0.00
  -12  -12   13     -1.41      0.00
  -11  -12   13      0.25      0.00
   10  -12   13      1.28      0.00
   11  -12   13      0.83      0.00
  -13  -11   13      0.31      0.00
  -12  -11   13     -0.17      0.00
   11  -11   13     -0.10      0.00
   12  -11   13      0.01      0.00
  -13  -10   13      0.12      0.00
   11  -10   13      0.11      0.00
   12  -10   13      1.14      0.00
  -14   -9   13     -0.77      0.00
  -13   -9   13     -1.06      0.00
   12   -9   13     -0.75      0.00
  -14   -8   13      0.59      0.00
   12   -8   13     -0.96      0.00
   13   -8   13     -1.11      0.00
  -15   -7   13     -0.11      0.00
  -14   -7   13     -1.26      0.00
   12   -7   13     -0.43      0.00
   13   -7   13      0.83      0.00
  -15   -6   13      0.89      0.00
   12   -6   13      0.46      0.00
   13   -6   13     -1.85      0.00
  -15   -5   13     -0.24      0.00
   13   -5   13      1.19      0.00
  -15   -4   13     -2.57      0.00
   13   -4   13      0.48      0.00
  -15   -3   13      1.78      0.00
   13   -3   13      0.47      0.00
   13   -2   13     -1.25      0.00
   13   -1   13      0.46      0.00
   13    0   13      0.59      0.00
   12    1   13     -0.06      0.00
   13    1   13      0.97      0.00
   12    2   13     -0.41      0.00
   13    2   13     -0.88      0.00
   12    3   13      1.71      0.00
   13    3   13      0.23      0.00
   12    4   13     -0.86      0.00
   12    5   13      1.74      0.00
   11    6   13     -0.44      0.00
   12    6   13     -1.32      0.00
  -15    7   13      0.11      0.00
   11    7   13      0.39      0.00
  -15    8   13      0.51      0.00
   10    8   13      1.42      0.00
   11    8   13     -0.65      0.00
  -15    9   13     -1.12      0.00
   10    9   13      0.06      0.00
   11    9   13      0.24      0.00
  -15   10   13      0.43      0.00
  -14   10   13     -1.85      0.00
    9   10   13      0.37      0.00
   10   10   13      0.27      0.00
  -15   11   13      0.23      0.00
  -14   11   13      0.75      0.00
    9   11   13     -1.72      0.00
  -14   12   13     -0.26      0.00
  -13   12   13      3.51      0.00
    8   12   13      1.11      0.00
    9   12   13      1.52      0.00
  -14   13   13     -0.58      0.00
  -13   13   13     -3.60      0.00
    7   13   13      0.18      0.00
    8   13   13     -1.01      0.00
  -13   14   13      1.61      0.00
  -12   14   13     -0.17      0.00
    6   14   13     -0.04      0.00
    7   14   13     -0.02      0.00
  -12   15   13      0.74      0.00
  -11   15   13      2.67      0.00
    5   15   13      0.45      0.00
    6   15   13      0.40      0.00
  -11   16   13     -0.04      0.00
  -10   16   13      2.12      0.00
   -9   16   13     -0.28      0.00
    3   16   13     -0.30      0.00
    4   16   13     -0.73      0.00
    5   16   13     -0.73      0.00
  -10   17   13     -0.48      0.00
   -9   17   13      0.60      0.00
   -8   17   13     -0.10      0.00
   -7   17   13     -0.65      0.00
    1   17   13      1.10      0.00
    2   17   13      0.17      0.00
    3   17   13      0.87      0.00
    4   17   13      0.48      0.00
   -9   18   13     -0.10      0.00
   -8   18   13      0.39      0.00
   -7   18   13      0.76      0.00
   -6   18   13      0.24      0.00
   -5   18   13      0.82      0.00
   -4   18   13      0.12      0.00
   -3   18   13     -0.94      0.00
   -2   18   13     -1.49      0.00
   -1   18   13      1.53      0.00
    0   18   13      0.20      0.00
    1   18   13     -1.83      0.00
    2   18   13      0.00      0.00
   -6   19   13      0.14      0.00
   -5   19   13      0.26      0.00
   -4   19   13      0.62      0.00
   -3   19   13      0.53      0.00
   -2   19   13      0.40      0.00
   -1   19   13     -0.89      0.00
    0   19   13      1.34      0.00
   -3  -19   14      0.42      0.00
   -2  -19   14      1.26      0.00
   -1  -19   14     -0.35      0.00
    0  -19   14     -0.23      0.00
    1  -19   14     -0.22      0.00
    2  -19   14      0.12      0.00
    3  -19   14      1.21      0.00
   -5  -18   14     -0.11      0.00
   -4  -18   14      0.69      0.00
   -3  -18   14      0.04      0.00
   -2  -18   14      0.19      0.00
   -1  -18   14      1.49      0.00
    0  -18   14      0.82      0.00
    1  -18   14      0.88      0.00
    2  -18   14     -0.67      0.00
    3  -18   14     -0.82      0.00
    4  -18   14      0.49      0.00
    5  -18   14      0.60      0.00
   -7  -17   14     -0.85      0.00
   -6  -17   14      0.07      0.00
   -5  -17   14      0.63      0.00
   -4  -17   14      0.02      0.00
    3  -17   14      0.44      0.00
    4  -17   14      0.30      0.00
    5  -17   14      0.66      0.00
    6  -17   14      0.29      0.00
    7  -17   14     -0.62      0.00
   -8  -16   14      0.78      0.00
   -7  -16   14      1.24      0.00
   -6  -16   14     -0.49      0.00
    6  -16   14      1.05      0.00
    7  -16   14      0.84      0.00
    8  -16   14     -0.45      0.00
  -10  -15   14     -1.26      0.00
   -9  -15   14     -1.40      0.00
   -8  -15   14     -1.35      0.00
    7  -15   14      0.19      0.00
    8  -15   14      0.77      0.00
    9  -15   14     -0.35      0.00
  -11  -14   14      0.38      0.00
  -10  -14   14      2.19      0.00
   -9  -14   14      1.23      0.00
    8  -14   14      1.29      0.00
    9  -14   14      1.05      0.00
  -11  -13   14     -0.24      0.00
  -10  -13   14     -0.63      0.00
    9  -13   14      0.37      0.00
   10  -13   14      0.39      0.00
  -12  -12   14     -0.17      0.00
  -11  -12   14     -1.12      0.00
   10  -12   14     -0.53      0.00
   11  -12   14      0.50      0.00
  -13  -11   14      0.00      0.00
  -12  -11   14      0.58      0.00
   10  -11   14     -0.66      0.00
   11  -11   14     -1.06      0.00
  -13  -10   14     -1.36      0.00
   11  -10   14     -0.31      0.00
   12  -10   14     -0.42      0.00
  -14   -9   14      0.84      0.00
  -13   -9   14      0.73      0.00
   11   -9   14      0.87      0.00
   12   -9   14     -0.86      0.00
  -14   -8   14     -1.33      0.00
   11   -8   14      0.80      0.00
   12   -8   14      0.66      0.00
  -15   -7   14      0.23      0.00
  -14   -7   14      1.30      0.00
   12   -7   14      0.67      0.00
  -15   -6   14     -0.73      0.00
  -14   -6   14      0.08      0.00
   12   -6   14      0.43      0.00
   13   -6   14      0.17      0.00
  -15   -5   14     -1.66      0.00
   12   -5   14     -0.84      0.00
   13   -5   14      0.32      0.00
  -15   -4   14      1.65      0.00
   12   -4   14     -1.13      0.00
   13   -4   14      0.01      0.00
  -15   -3   14     -0.50      0.00
   12   -3   14      0.69      0.00
   13   -3   14     -1.00      0.00
   12   -2   14      1.49      0.00
   13   -2   14      0.82      0.00
   12   -1   14     -0.58      0.00
   13   -1   14      0.16      0.00
   12    0   14     -0.03      0.00
   13    0   14      0.42      0.00
   12    1   14     -0.04      0.00
   13    1   14     -0.39      0.00
   12    2   14      1.12      0.00
   12    3   14     -0.38      0.00
   11    4   14      0.61      0.00
   12    4   14      0.98      0.00
   11    5   14     -0.52      0.00
   12    5   14     -0.78      0.00
  -15    6   14     -0.42      0.00
   11    6   14      0.95      0.00
  -15    7   14      0.42      0.00
   10    7   14      1.42      0.00
   11    7   14     -0.74      0.00
  -15    8   14     -0.86      0.00
   10    8   14      0.34      0.00
   11    8   14      0.86      0.00
  -15    9   14     -0.92      0.00
    9    9   14     -0.19      0.00
   10    9   14     -1.07      0.00
  -15   10   14      1.28      0.00
  -14   10   14     -0.45      0.00
    9   10   14     -0.06      0.00
   10   10   14      0.04      0.00
  -15   11   14     -1.26      0.00
  -14   11   14     -0.07      0.00
    8   11   14      0.65      0.00
    9   11   14      0.90      0.00
  -14   12   14     -0.22      0.00
  -13   12   14     -2.38      0.00
    7   12   14      1.18      0.00
    8   12   14     -1.30      0.00
  -13   13   14      1.12      0.00
  -12   13   14     -1.84      0.00
    6   13   14     -0.91      0.00
    7   13   14     -0.14      0.00
    8   13   14      0.29      0.00
  -13   14   14      0.21      0.00
  -12   14   14      1.48      0.00
  -11   14   14      1.31      0.00
    5   14   14     -0.15      0.00
    6   14   14      0.94      0.00
    7   14   14     -0.10      0.00
  -12   15   14     -0.96      0.00
  -11   15   14      0.32      0.00
  -10   15   14      2.19      0.00
    4   15   14     -0.41      0.00
    5   15   14     -0.99      0.00
    6   15   14     -0.20      0.00
  -11   16   14     -1.29      0.00
  -10   16   14     -0.34      0.00
   -9   16   14      0.74      0.00
    2   16   14      0.16      0.00
    3   16   14      1.09      0.00
    4   16   14      0.38      0.00
    5   16   14      0.37      0.00
  -10   17   14     -0.45      0.00
   -9   17   14     -0.27      0.00
   -8   17   14      0.04      0.00
   -7   17   14      0.50      0.00
   -6   17   14      0.21      0.00
   -1   17   14      1.60      0.00
    0   17   14      0.16      0.00
    1   17   14     -1.47      0.00
    2   17   14      0.11      0.00
    3   17   14     -0.09      0.00
   -8   18   14     -0.04      0.00
   -7   18   14     -0.13      0.00
   -6   18   14      0.28      0.00
   -5   18   14      0.64      0.00
   -4   18   14      0.18      0.00
   -3   18   14      0.41      0.00
   -2   18   14      0.47      0.00
   -1   18   14     -2.15      0.00
    0   18   14      1.05      0.00
    1   18   14      0.76      0.00
   -5   19   14     -0.87      0.00
   -4   19   14     -0.09      0.00
   -3   19   14     -0.22      0.00
   -2   19   14      0.31      0.00
   -2  -19   15     -0.15      0.00
   -1  -19   15      0.36      0.00
    0  -19   15      0.20      0.00
    1  -19   15      0.13      0.00
   -5  -18   15      0.39      0.00
   -4  -18   15     -0.34      0.00
   -3  -18   15      0.33      0.00
   -2  -18   15      0.53      0.00
   -1  -18   15      0.06      0.00
    0  -18   15     -0.10      0.00
    1  -18   15      0.00      0.00
    2  -18   15      0.46      0.00
    3  -18   15     -0.39      0.00
    4  -18   15     -0.63      0.00
   -7  -17   15      0.18      0.00
   -6  -17   15     -0.92      0.00
   -5  -17   15      0.36      0.00
   -4  -17   15      0.71      0.00
   -3  -17   15      0.72      0.00
    2  -17   15      0.00      0.00
    3  -17   15      0.85      0.00
    4  -17   15     -0.12      0.00
    5  -17   15     -0.20      0.00
    6  -17   15      1.16      0.00
   -8  -16   15     -0.37      0.00
   -7  -16   15      0.74      0.00
   -6  -16   15      0.05      0.00
    5  -16   15     -0.61      0.00
    6  -16   15     -1.14      0.00
    7  -16   15      0.55      0.00
   -9  -15   15      0.29      0.00
   -8  -15   15     -0.82      0.00
    6  -15   15      0.10      0.00
    7  -15   15     -0.76      0.00
    8  -15   15     -0.14      0.00
  -10  -14   15     -0.50      0.00
   -9  -14   15      0.83      0.00
    7  -14   15     -1.40      0.00
    8  -14   15     -1.13      0.00
    9  -14   15      0.69      0.00
  -11  -13   15     -0.52      0.00
  -10  -13   15     -0.07      0.00
    8  -13   15     -1.00      0.00
    9  -13   15     -2.39      0.00
   10  -13   15     -0.34      0.00
  -12  -12   15      0.67      0.00
  -11  -12   15      0.61      0.00
    9  -12   15      1.81      0.00
   10  -12   15     -0.07      0.00
  -13  -11   15     -0.71      0.00
  -12  -11   15     -0.85      0.00
   10  -11   15      0.82      0.00
   11  -11   15      0.01      0.00
  -13  -10   15      0.71      0.00
  -12  -10   15     -0.61      0.00
   10  -10   15     -0.26      0.00
   11  -10   15      0.97      0.00
  -14   -9   15     -0.87      0.00
  -13   -9   15     -0.42      0.00
   11   -9   15      0.02      0.00
  -14   -8   15      0.98      0.00
  -13   -8   15     -0.31      0.00
   11   -8   15     -0.62      0.00
   12   -8   15      0.43      0.00
  -15   -7   15     -0.62      0.00
  -14   -7   15     -0.59      0.00
   11   -7   15     -1.11      0.00
   12   -7   15     -0.47      0.00
  -15   -6   15     -0.52      0.00
  -14   -6   15     -0.12      0.00
   11   -6   15      0.42      0.00
   12   -6   15     -0.81      0.00
  -15   -5   15      1.11      0.00
   12   -5   15     -0.25      0.00
  -15   -4   15     -0.12      0.00
   12   -4   15      0.83      0.00
  -15   -3   15     -2.42      0.00
   12   -3   15      0.80      0.00
  -15   -2   15      2.55      0.00
   12   -2   15     -0.67      0.00
   12   -1   15     -0.33      0.00
   12    0   15      0.28      0.00
   12    1   15      1.07      0.00
   12    2   15     -0.91      0.00
   11    3   15      0.76      0.00
   12    3   15      1.29      0.00
   11    4   15     -0.71      0.00
   12    4   15     -0.93      0.00
  -15    5   15     -0.31      0.00
   11    5   15      1.54      0.00
  -15    6   15      0.24      0.00
   10    6   15      1.37      0.00
   11    6   15     -0.87      0.00
  -15    7   15     -1.21      0.00
   10    7   15     -0.37      0.00
   11    7   15      0.88      0.00
  -15    8   15     -0.62      0.00
    9    8   15      1.53      0.00
   10    8   15     -0.99      0.00
  -15    9   15      0.43      0.00
  -14    9   15     -2.26      0.00
    9    9   15      0.21      0.00
   10    9   15      0.38      0.00
  -15   10   15     -0.13      0.00
  -14   10   15      1.08      0.00
    8   10   15      1.09      0.00
    9   10   15      0.73      0.00
  -14   11   15     -0.51      0.00
  -13   11   15     -1.85      0.00
    8   11   15     -1.94      0.00
    9   11   15     -0.39      0.00
  -14   12   15      0.72      0.00
  -13   12   15      1.47      0.00
    7   12   15      0.73      0.00
    8   12   15      1.25      0.00
  -13   13   15      0.34      0.00
  -12   13   15      1.92      0.00
    6   13   15      1.46      0.00
    7   13   15     -1.22      0.00
  -12   14   15     -0.89      0.00
  -11   14   15      0.45      0.00
    5   14   15     -1.72      0.00
    6   14   15      0.03      0.00
  -12   15   15      0.65      0.00
  -11   15   15     -1.31      0.00
  -10   15   15      0.24      0.00
    3   15   15      0.69      0.00
    4   15   15      0.07      0.00
    5   15   15      0.89      0.00
  -11   16   15      1.04      0.00
  -10   16   15     -0.84      0.00
   -9   16   15     -0.44      0.00
   -8   16   15     -0.17      0.00
    1   16   15     -0.57      0.00
    2   16   15      0.18      0.00
    3   16   15      0.36      0.00
    4   16   15      0.36      0.00
   -9   17   15      0.59      0.00
   -8   17   15      0.00      0.00
   -7   17   15     -0.60      0.00
   -6   17   15     -0.61      0.00
   -5   17   15      0.66      0.00
   -4   17   15     -0.10      0.00
   -3   17   15      0.98      0.00
   -2   17   15      2.22      0.00
   -1   17   15     -1.04      0.00
    0   17   15      1.15      0.00
    1   17   15      0.41      0.00
    2   17   15     -0.35      0.00
   -7   18   15      0.02      0.00
   -6   18   15     -0.40      0.00
   -5   18   15     -0.99      0.00
   -4   18   15     -0.17      0.00
   -3   18   15     -1.82      0.00
   -2   18   15     -0.58      0.00
   -1   18   15      0.97      0.00
    0   18   15     -0.94      0.00
   -4  -18   16      0.46      0.00
   -3  -18   16      0.50      0.00
   -2  -18   16      0.01      0.00
   -1  -18   16      0.72      0.00
    0  -18   16      0.79      0.00
    1  -18   16      0.48      0.00
    2  -18   16      0.17      0.00
    3  -18   16      0.18      0.00
   -6  -17   16     -0.52      0.00
   -5  -17   16     -0.30      0.00
   -4  -17   16     -0.07      0.00
   -3  -17   16     -0.10      0.00
   -2  -17   16      1.41      0.00
   -1  -17   16     -0.62      0.00
    0  -17   16     -1.48      0.00
    1  -17   16      0.26      0.00
    2  -17   16     -0.16      0.00
    3  -17   16      0.79      0.00
    4  -17   16      1.51      0.00
    5  -17   16     -0.49      0.00
   -8  -16   16      0.48      0.00
   -7  -16   16      0.51      0.00
   -6  -16   16      1.83      0.00
   -5  -16   16      0.25      0.00
    4  -16   16     -0.13      0.00
    5  -16   16      1.70      0.00
    6  -16   16      0.09      0.00
   -9  -15   16     -0.03      0.00
   -8  -15   16      0.56      0.00
   -7  -15   16     -2.00      0.00
    5  -15   16     -0.15      0.00
    6  -15   16      0.39      0.00
    7  -15   16     -0.94      0.00
    8  -15   16      0.03      0.00
  -10  -14   16      0.34      0.00
   -9  -14   16     -0.58      0.00
   -8  -14   16      0.38      0.00
    7  -14   16      1.95      0.00
    8  -14   16     -0.79      0.00
  -11  -13   16      0.30      0.00
  -10  -13   16     -0.78      0.00
    8  -13   16      2.22      0.00
    9  -13   16      0.53      0.00
  -12  -12   16     -0.83      0.00
  -11  -12   16      0.74      0.00
  -10  -12   16      1.19      0.00
    9  -12   16      0.56      0.00
   10  -12   16      1.03      0.00
  -12  -11   16     -0.38      0.00
  -11  -11   16     -1.61      0.00
    9  -11   16     -0.94      0.00
   10  -11   16     -1.03      0.00
  -13  -10   16     -0.63      0.00
  -12  -10   16      0.27      0.00
   10  -10   16      0.37      0.00
   11  -10   16     -0.23      0.00
  -13   -9   16     -0.30      0.00
   10   -9   16     -0.33      0.00
   11   -9   16     -0.39      0.00
  -14   -8   16     -0.74      0.00
  -13   -8   16      0.38      0.00
   10   -8   16      0.45      0.00
   11   -8   16     -0.55      0.00
  -14   -7   16      0.42      0.00
   11   -7   16      0.60      0.00
   12   -7   16     -0.33      0.00
  -15   -6   16      0.26      0.00
  -14   -6   16     -1.06      0.00
   11   -6   16      1.00      0.00
   12   -6   16      0.22      0.00
  -15   -5   16      0.40      0.00
  -14   -5   16      2.68      0.00
   11   -5   16     -0.74      0.00
   12   -5   16      0.65      0.00
  -15   -4   16     -2.13      0.00
   11   -4   16     -1.36      0.00
   12   -4   16      0.05      0.00
  -15   -3   16      2.44      0.00
   11   -3   16      0.24      0.00
   12   -3   16     -0.90      0.00
  -15   -2   16     -1.78      0.00
   11   -2   16      1.07      0.00
   12   -2   16      0.04      0.00
  -15   -1   16     -0.32      0.00
   11   -1   16      0.40      0.00
   12   -1   16      0.30      0.00
  -15    0   16      0.76      0.00
   11    0   16     -0.53      0.00
   12    0   16      0.91      0.00
  -15    1   16     -0.92      0.00
   11    1   16      0.29      0.00
   12    1   16     -0.96      0.00
  -15    2   16     -1.41      0.00
   11    2   16      0.22      0.00
   12    2   16      0.94      0.00
  -15    3   16      1.32      0.00
   11    3   16      0.06      0.00
  -15    4   16     -0.37      0.00
   11    4   16      0.89      0.00
  -15    5   16     -0.06      0.00
   10    5   16      0.88      0.00
   11    5   16     -0.51      0.00
  -15    6   16     -1.23      0.00
   10    6   16      0.03      0.00
   11    6   16      0.32      0.00
  -15    7   16     -0.59      0.00
    9    7   16      1.38      0.00
   10    7   16     -1.13      0.00
  -15    8   16      0.68      0.00
  -14    8   16     -1.07      0.00
    9    8   16      1.27      0.00
   10    8   16      1.26      0.00
  -15    9   16     -0.70      0.00
  -14    9   16     -0.23      0.00
    8    9   16     -0.49      0.00
    9    9   16     -0.89      0.00
  -15   10   16     -0.03      0.00
  -14   10   16      0.90      0.00
    8   10   16     -0.47      0.00
    9   10   16     -0.03      0.00
  -14   11   16     -0.28      0.00
  -13   11   16      0.89      0.00
    7   11   16      0.71      0.00
    8   11   16      1.30      0.00
  -14   12   16     -0.54      0.00
  -13   12   16      1.27      0.00
  -12   12   16      2.14      0.00
    6   12   16      1.78      0.00
    7   12   16     -1.70      0.00
  -13   13   16     -1.42      0.00
  -12   13   16     -0.02      0.00
  -11   13   16      1.29      0.00
    5   13   16     -2.61      0.00
    6   13   16      0.68      0.00
    7   13   16      1.13      0.00
  -12   14   16     -0.18      0.00
  -11   14   16     -1.54      0.00
  -10   14   16     -0.70      0.00
    4   14   16      0.30      0.00
    5   14   16      1.44      0.00
    6   14   16     -1.52      0.00
  -11   15   16      1.48      0.00
  -10   15   16     -0.44      0.00
   -9   15   16     -0.15      0.00
    2   15   16     -0.51      0.00
    3   15   16      0.29      0.00
    4   15   16     -0.36      0.00
    5   15   16      0.20      0.00
  -10   16   16      0.25      0.00
   -9   16   16      0.23      0.00
   -8   16   16      0.28      0.00
   -7   16   16     -0.80      0.00
    0   16   16      0.32      0.00
    1   16   16     -0.01      0.00
    2   16   16      0.13      0.00
    3   16   16     -0.84      0.00
   -9   17   16     -0.96      0.00
   -8   17   16     -0.29      0.00
   -7   17   16      0.24      0.00
   -6   17   16     -0.43      0.00
   -5   17   16     -1.58      0.00
   -4   17   16      0.90      0.00
   -3   17   16     -1.41      0.00
   -2   17   16     -0.01      0.00
   -1   17   16      2.13      0.00
    0   17   16     -0.27      0.00
    1   17   16      0.17      0.00
    2   17   16      0.53      0.00
   -6   18   16      0.79      0.00
   -5   18   16      0.52      0.00
   -4   18   16     -0.28      0.00
   -3   18   16      0.70      0.00
   -2   18   16     -1.50      0.00
   -1   18   16     -1.08      0.00
   -3  -18   17      0.72      0.00
   -2  -18   17      1.36      0.00
   -1  -18   17     -0.02      0.00
    0  -18   17     -0.41      0.00
    1  -18   17      0.03      0.00
    2  -18   17      0.06      0.00
   -6  -17   17      0.58      0.00
   -5  -17   17      0.03      0.00
   -4  -17   17      1.41      0.00
   -3  -17   17     -0.50      0.00
   -2  -17   17     -1.20      0.00
   -1  -17   17      1.25      0.00
    0  -17   17     -0.37      0.00
    1  -17   17     -0.92      0.00
    2  -17   17      0.62      0.00
    3  -17   17     -0.53      0.00
    4  -17   17     -0.12      0.00
   -7  -16   17     -0.60      0.00
   -6  -16   17      0.12      0.00
   -5  -16   17     -0.12      0.00
   -4  -16   17     -0.97      0.00
    2  -16   17     -0.69      0.00
    3  -16   17      0.42      0.00
    4  -16   17     -0.28      0.00
    5  -16   17     -0.06      0.00
    6  -16   17      0.68      0.00
   -9  -15   17     -1.05      0.00
   -8  -15   17     -0.61      0.00
   -7  -15   17      0.83      0.00
   -6  -15   17     -2.05      0.00
    5  -15   17     -1.14      0.00
    6  -15   17      0.20      0.00
    7  -15   17      0.17      0.00
  -10  -14   17      0.18      0.00
   -9  -14   17      1.81      0.00
   -8  -14   17     -0.80      0.00
    6  -14   17     -1.37      0.00
    7  -14   17     -0.10      0.00
    8  -14   17      1.50      0.00
  -11  -13   17      0.47      0.00
  -10  -13   17     -0.05      0.00
   -9  -13   17     -1.77      0.00
    7  -13   17     -1.29      0.00
    8  -13   17     -1.82      0.00
    9  -13   17      0.14      0.00
  -11  -12   17     -1.14      0.00
  -10  -12   17      0.91      0.00
    8  -12   17      0.59      0.00
    9  -12   17     -0.08      0.00
  -12  -11   17      0.02      0.00
  -11  -11   17      0.52      0.00
    9  -11   17      0.08      0.00
   10  -11   17      0.09      0.00
  -13  -10   17     -0.17      0.00
  -12  -10   17      0.47      0.00
    9  -10   17     -0.43      0.00
   10  -10   17      0.28      0.00
  -13   -9   17     -0.27      0.00
  -12   -9   17     -1.14      0.00
   10   -9   17     -0.19      0.00
  -14   -8   17      0.17      0.00
  -13   -8   17      0.83      0.00
   10   -8   17      0.45      0.00
   11   -8   17      0.11      0.00
  -14   -7   17     -0.31      0.00
  -13   -7   17     -1.03      0.00
   10   -7   17     -1.01      0.00
   11   -7   17      0.88      0.00
  -15   -6   17      0.21      0.00
  -14   -6   17      1.61      0.00
   11   -6   17     -1.33      0.00
  -15   -5   17     -0.95      0.00
  -14   -5   17     -0.50      0.00
   11   -5   17     -1.07      0.00
  -15   -4   17      1.13      0.00
  -14   -4   17     -0.62      0.00
   11   -4   17      1.02      0.00
   12   -4   17     -0.24      0.00
  -15   -3   17     -0.75      0.00
   11   -3   17      0.51      0.00
   12   -3   17     -0.06      0.00
  -15   -2   17     -0.74      0.00
   11   -2   17      0.58      0.00
   12   -2   17      0.71      0.00
  -15   -1   17      0.88      0.00
   11   -1   17     -1.52      0.00
   12   -1   17      0.17      0.00
  -15    0   17     -0.65      0.00
   11    0   17      0.73      0.00
  -15    1   17     -1.34      0.00
   11    1   17      0.20      0.00
  -15    2   17      1.37      0.00
   11    2   17      0.20      0.00
  -15    3   17     -0.07      0.00
   10    3   17     -0.52      0.00
   11    3   17      0.38      0.00
  -15    4   17     -1.18      0.00
   10    4   17      0.75      0.00
   11    4   17     -0.35      0.00
  -15    5   17     -0.42      0.00
   10    5   17      0.38      0.00
  -15    6   17     -0.74      0.00
    9    6   17      1.38      0.00
   10    6   17     -0.55      0.00
  -15    7   17      0.68      0.00
  -14    7   17     -0.68      0.00
    9    7   17      0.36      0.00
   10    7   17      0.69      0.00
  -15    8   17     -0.74      0.00
  -14    8   17      0.03      0.00
    8    8   17      0.23      0.00
    9    8   17     -0.76      0.00
  -15    9   17     -0.69      0.00
  -14    9   17      0.54      0.00
    8    9   17     -0.12      0.00
    9    9   17     -0.38      0.00
  -14   10   17     -0.23      0.00
  -13   10   17      1.32      0.00
    7   10   17      1.15      0.00
    8   10   17      1.82      0.00
  -14   11   17     -0.81      0.00
  -13   11   17      1.38      0.00
    6   11   17      1.12      0.00
    7   11   17     -2.04      0.00
    8   11   17     -0.87      0.00
  -13   12   17     -2.04      0.00
  -12   12   17      1.00      0.00
    6   12   17      1.23      0.00
    7   12   17      1.49      0.00
  -13   13   17      0.59      0.00
  -12   13   17     -0.99      0.00
  -11   13   17     -0.74      0.00
    4   13   17      0.29      0.00
    5   13   17      1.32      0.00
    6   13   17     -1.84      0.00
  -12   14   17      0.88      0.00
  -11   14   17      0.79      0.00
  -10   14   17     -0.86      0.00
    3   14   17      0.48      0.00
    4   14   17     -1.15      0.00
    5   14   17      0.57      0.00
  -11   15   17      0.38      0.00
  -10   15   17      0.91      0.00
   -9   15   17      0.84      0.00
   -8   15   17      1.32      0.00
    1   15   17     -0.15      0.00
    2   15   17      0.54      0.00
    3   15   17     -0.85      0.00
    4   15   17     -0.05      0.00
  -10   16   17     -0.30      0.00
   -9   16   17     -1.27      0.00
   -8   16   17     -0.97      0.00
   -7   16   17      1.43      0.00
   -6   16   17     -0.69      0.00
   -5   16   17     -2.49      0.00
   -4   16   17      1.36      0.00
   -3   16   17     -1.93      0.00
   -2   16   17     -1.41      0.00
   -1   16   17      0.82      0.00
    0   16   17     -0.30      0.00
    1   16   17     -0.15      0.00
    2   16   17      0.45      0.00
   -8   17   17     -0.17      0.00
   -7   17   17     -1.22      0.00
   -6   17   17      1.18      0.00
   -5   17   17      0.37      0.00
   -4   17   17     -0.29      0.00
   -3   17   17      2.20      0.00
   -2   17   17     -0.89      0.00
   -1   17   17     -0.55      0.00
    0   17   17      0.87      0.00
    1   17   17      0.19      0.00
   -4   18   17     -0.43      0.00
   -3   18   17     -0.73      0.00
   -5  -17   18     -1.02      0.00
   -4  -17   18     -0.43      0.00
   -3  -17   18      1.87      0.00
   -2  -17   18      0.06      0.00
   -1  -17   18     -0.63      0.00
    0  -17   18      1.38      0.00
    1  -17   18     -0.88      0.00
    2  -17   18     -0.76      0.00
    3  -17   18      0.88      0.00
   -7  -16   18      1.09      0.00
   -6  -16   18      0.03      0.00
   -5  -16   18      1.67      0.00
   -4  -16   18     -0.92      0.00
   -3  -16   18     -1.72      0.00
   -2  -16   18      1.21      0.00
   -1  -16   18     -0.93      0.00
    0  -16   18     -0.33      0.00
    1  -16   18      2.54      0.00
    2  -16   18      0.47      0.00
    3  -16   18     -0.10      0.00
    4  -16   18      0.01      0.00
    5  -16   18     -0.42      0.00
   -8  -15   18     -1.56      0.00
   -7  -15   18     -0.08      0.00
   -6  -15   18      0.14      0.00
   -5  -15   18     -1.06      0.00
    3  -15   18      1.11      0.00
    4  -15   18      2.07      0.00
    5  -15   18      0.31      0.00
    6  -15   18     -1.53      0.00
   -9  -14   18     -0.27      0.00
   -8  -14   18      2.56      0.00
   -7  -14   18     -0.65      0.00
    5  -14   18      0.79      0.00
    6  -14   18      1.39      0.00
    7  -14   18     -0.24      0.00
  -10  -13   18      0.78      0.00
   -9  -13   18     -0.30      0.00
    6  -13   18     -0.94      0.00
    7  -13   18     -0.07      0.00
    8  -13   18      0.36      0.00
  -11  -12   18      0.74      0.00
  -10  -12   18     -1.21      0.00
    7  -12   18      0.93      0.00
    8  -12   18     -0.51      0.00
    9  -12   18      0.51      0.00
  -12  -11   18      0.30      0.00
  -11  -11   18     -1.10      0.00
    8  -11   18      1.32      0.00
    9  -11   18     -1.15      0.00
  -12  -10   18     -0.54      0.00
  -11  -10   18      1.47      0.00
    8  -10   18     -0.97      0.00
    9  -10   18      1.51      0.00
   10  -10   18     -0.04      0.00
  -13   -9   18      1.04      0.00
  -12   -9   18     -0.02      0.00
    9   -9   18     -1.02      0.00
   10   -9   18      0.02      0.00
  -13   -8   18     -1.23      0.00
    9   -8   18     -0.15      0.00
   10   -8   18     -0.30      0.00
  -14   -7   18      0.89      0.00
  -13   -7   18      0.86      0.00
   10   -7   18     -0.74      0.00
   11   -7   18     -1.16      0.00
  -14   -6   18     -0.14      0.00
   10   -6   18      1.09      0.00
   11   -6   18     -0.41      0.00
  -15   -5   18      0.01      0.00
  -14   -5   18     -0.23      0.00
   10   -5   18      0.36      0.00
   11   -5   18      0.87      0.00
  -15   -4   18      0.35      0.00
  -14   -4   18      1.72      0.00
   10   -4   18     -1.35      0.00
   11   -4   18      0.61      0.00
  -15   -3   18     -0.61      0.00
  -14   -3   18     -1.30      0.00
   10   -3   18     -1.69      0.00
   11   -3   18     -0.65      0.00
  -15   -2   18      1.07      0.00
   10   -2   18      1.93      0.00
   11   -2   18     -0.99      0.00
  -15   -1   18     -0.67      0.00
   10   -1   18      0.43      0.00
   11   -1   18      0.52      0.00
  -15    0   18     -0.92      0.00
   10    0   18     -0.04      0.00
   11    0   18      0.47      0.00
  -15    1   18      1.21      0.00
   10    1   18     -0.36      0.00
   11    1   18      0.17      0.00
  -15    2   18     -0.34      0.00
   10    2   18     -0.52      0.00
   11    2   18     -0.16      0.00
  -15    3   18     -1.62      0.00
   10    3   18      1.35      0.00
   11    3   18      0.01      0.00
  -15    4   18      0.21      0.00
   10    4   18      0.06      0.00
  -15    5   18     -0.57      0.00
    9    5   18      0.25      0.00
   10    5   18     -0.12      0.00
  -15    6   18      0.26      0.00
  -14    6   18     -1.36      0.00
    9    6   18      0.42      0.00
   10    6   18     -0.14      0.00
  -15    7   18     -0.44      0.00
  -14    7   18      0.64      0.00
    8    7   18     -0.13      0.00
    9    7   18     -0.71      0.00
  -15    8   18     -0.83      0.00
  -14    8   18      1.06      0.00
    8    8   18      1.13      0.00
    9    8   18      0.06      0.00
  -14    9   18     -1.58      0.00
  -13    9   18      0.39      0.00
    7    9   18     -0.28      0.00
    8    9   18      0.69      0.00
  -14   10   18      0.42      0.00
  -13   10   18      1.42      0.00
    7   10   18     -1.04      0.00
    8   10   18     -0.71      0.00
  -13   11   18     -1.86      0.00
  -12   11   18      1.60      0.00
    6   11   18      0.52      0.00
    7   11   18      1.43      0.00
  -13   12   18      0.11      0.00
  -12   12   18     -1.77      0.00
  -11   12   18     -0.72      0.00
    5   12   18      1.42      0.00
    6   12   18     -1.20      0.00
  -12   13   18      1.28      0.00
  -11   13   18      1.00      0.00
  -10   13   18      0.26      0.00
    4   13   18     -1.58      0.00
    5   13   18      0.34      0.00
  -11   14   18      0.14      0.00
  -10   14   18      0.28      0.00
   -9   14   18      1.10      0.00
    2   14   18      1.15      0.00
    3   14   18     -0.29      0.00
    4   14   18      0.30      0.00
  -10   15   18      0.26      0.00
   -9   15   18     -1.20      0.00
   -8   15   18     -0.18      0.00
   -7   15   18      3.56      0.00
    0   15   18      0.14      0.00
    1   15   18     -0.64      0.00
    2   15   18     -0.33      0.00
    3   15   18      0.45      0.00
   -9   16   18      0.83      0.00
   -8   16   18     -0.75      0.00
   -7   16   18     -1.96      0.00
   -6   16   18      1.94      0.00
   -5   16   18     -0.52      0.00
   -4   16   18     -1.28      0.00
   -3   16   18      1.72      0.00
   -2   16   18     -1.15      0.00
   -1   16   18     -0.55      0.00
    0   16   18      0.51      0.00
    1   16   18      0.63      0.00
    2   16   18     -0.19      0.00
   -7   17   18      0.30      0.00
   -6   17   18     -1.19      0.00
   -5   17   18      0.79      0.00
   -4   17   18     -0.54      0.00
   -3   17   18     -0.25      0.00
   -2   17   18      1.62      0.00
   -1   17   18     -0.16      0.00
   -4  -17   19     -1.30      0.00
   -3  -17   19     -1.17      0.00
   -2  -17   19     -0.16      0.00
   -1  -17   19     -1.53      0.00
    0  -17   19     -0.61      0.00
    1  -17   19      1.68      0.00
    2  -17   19     -0.15      0.00
   -6  -16   19      0.01      0.00
   -5  -16   19      0.36      0.00
   -4  -16   19      2.99      0.00
   -3  -16   19      0.82      0.00
   -2  -16   19      1.08      0.00
   -1  -16   19      2.00      0.00
    0  -16   19     -1.98      0.00
    1  -16   19     -0.87      0.00
    2  -16   19      0.63      0.00
    3  -16   19      0.71      0.00
    4  -16   19      1.11      0.00
   -8  -15   19      1.06      0.00
   -7  -15   19     -1.41      0.00
   -6  -15   19      1.23      0.00
   -5  -15   19     -1.10      0.00
   -4  -15   19     -2.06      0.00
    1  -15   19     -0.73      0.00
    2  -15   19      0.21      0.00
    3  -15   19     -1.50      0.00
    4  -15   19     -1.43      0.00
    5  -15   19      0.42      0.00
   -9  -14   19     -0.62      0.00
   -8  -14   19     -0.44      0.00
   -7  -14   19      0.52      0.00
   -6  -14   19     -1.65      0.00
    4  -14   19      0.45      0.00
    5  -14   19     -0.55      0.00
    6  -14   19     -0.47      0.00
  -10  -13   19     -1.33      0.00
   -9  -13   19      0.77      0.00
   -8  -13   19     -0.16      0.00
    5  -13   19     -0.07      0.00
    6  -13   19      0.47      0.00
    7  -13   19     -0.75      0.00
  -11  -12   19     -0.34      0.00
  -10  -12   19      0.98      0.00
   -9  -12   19     -0.62      0.00
    6  -12   19     -1.21      0.00
    7  -12   19      0.59      0.00
    8  -12   19      0.88      0.00
  -11  -11   19      0.92      0.00
  -10  -11   19     -1.01      0.00
    7  -11   19     -1.57      0.00
    8  -11   19     -0.56      0.00
    9  -11   19      1.01      0.00
  -12  -10   19     -0.62      0.00
  -11  -10   19     -0.73      0.00
    8  -10   19     -0.57      0.00
    9  -10   19     -0.64      0.00
  -13   -9   19     -1.54      0.00
  -12   -9   19      0.45      0.00
    8   -9   19      0.62      0.00
    9   -9   19     -0.07      0.00
  -13   -8   19      1.28      0.00
  -12   -8   19     -0.97      0.00
    9   -8   19     -0.10      0.00
   10   -8   19     -0.46      0.00
  -14   -7   19     -0.78      0.00
  -13   -7   19      0.70      0.00
    9   -7   19      0.24      0.00
   10   -7   19      0.47      0.00
  -14   -6   19      0.63      0.00
  -13   -6   19     -1.15      0.00
    9   -6   19     -1.27      0.00
   10   -6   19      0.06      0.00
  -14   -5   19      0.63      0.00
   10   -5   19     -1.45      0.00
  -15   -4   19      0.39      0.00
  -14   -4   19      0.05      0.00
   10   -4   19     -0.66      0.00
   11   -4   19     -0.42      0.00
  -15   -3   19      0.27      0.00
  -14   -3   19     -0.15      0.00
   10   -3   19      1.36      0.00
   11   -3   19     -1.29      0.00
  -15   -2   19      0.01      0.00
  -14   -2   19      2.27      0.00
   10   -2   19      0.76      0.00
   11   -2   19      1.40      0.00
  -15   -1   19     -1.22      0.00
   10   -1   19     -1.21      0.00
   11   -1   19     -0.11      0.00
  -15    0   19      1.72      0.00
   10    0   19      0.19      0.00
   11    0   19      0.22      0.00
  -15    1   19     -1.18      0.00
   10    1   19     -0.27      0.00
  -15    2   19     -1.37      0.00
    9    2   19      0.32      0.00
   10    2   19      1.12      0.00
  -15    3   19      0.91      0.00
    9    3   19     -0.80      0.00
   10    3   19     -0.06      0.00
  -15    4   19     -0.44      0.00
    9    4   19     -0.17      0.00
   10    4   19     -0.16      0.00
  -15    5   19     -0.43      0.00
  -14    5   19     -1.96      0.00
    9    5   19      0.59      0.00
  -15    6   19      0.49      0.00
  -14    6   19      1.10      0.00
    8    6   19      0.78      0.00
    9    6   19      0.21      0.00
  -15    7   19     -1.17      0.00
  -14    7   19      1.65      0.00
    8    7   19      0.12      0.00
    9    7   19     -0.46      0.00
  -14    8   19     -2.45      0.00
  -13    8   19      0.81      0.00
    7    8   19      0.24      0.00
    8    8   19      0.52      0.00
  -14    9   19      0.67      0.00
  -13    9   19     -0.56      0.00
    7    9   19     -1.12      0.00
    8    9   19     -0.77      0.00
  -14   10   19      0.13      0.00
  -13   10   19     -0.25      0.00
  -12   10   19      2.17      0.00
    6   10   19      0.66      0.00
    7   10   19      1.87      0.00
  -13   11   19     -0.38      0.00
  -12   11   19     -1.74      0.00
    5   11   19      1.55      0.00
    6   11   19     -0.91      0.00
  -13   12   19      1.49      0.00
  -12   12   19      0.42      0.00
  -11   12   19      0.26      0.00
    4   12   19     -1.34      0.00
    5   12   19     -0.12      0.00
    6   12   19      0.51      0.00
  -12   13   19      0.58      0.00
  -11   13   19      0.31      0.00
  -10   13   19      0.43      0.00
    3   13   19     -0.46      0.00
    4   13   19      0.80      0.00
    5   13   19     -0.18      0.00
  -11   14   19     -0.91      0.00
  -10   14   19     -0.44      0.00
   -9   14   19     -2.63      0.00
   -8   14   19      0.16      0.00
    1   14   19     -1.11      0.00
    2   14   19     -0.48      0.00
    3   14   19      0.39      0.00
    4   14   19      0.25      0.00
  -10   15   19      0.05      0.00
   -9   15   19      1.22      0.00
   -8   15   19     -1.45      0.00
   -7   15   19     -1.42      0.00
   -6   15   19      3.36      0.00
   -5   15   19      0.30      0.00
   -4   15   19     -0.35      0.00
   -3   15   19      1.78      0.00
   -2   15   19      0.39      0.00
   -1   15   19      0.63      0.00
    0   15   19      0.05      0.00
    1   15   19      1.01      0.00
    2   15   19     -0.36      0.00
   -8   16   19      0.75      0.00
   -7   16   19     -0.38      0.00
   -6   16   19     -1.78      0.00
   -5   16   19      0.59      0.00
   -4   16   19     -1.39      0.00
   -3   16   19     -0.92      0.00
   -2   16   19      0.82      0.00
   -1   16   19     -0.35      0.00
    0   16   19     -0.38      0.00
   -5   17   19      0.12      0.00
   -4   17   19      0.82      0.00
   -3   17   19     -0.17      0.00
   -5  -16   20     -0.76      0.00
   -4  -16   20     -0.40      0.00
   -3  -16   20      1.39      0.00
   -2  -16   20     -0.04      0.00
   -1  -16   20      1.43      0.00
    0  -16   20      1.88      0.00
    1  -16   20     -0.12      0.00
    2  -16   20      0.73      0.00
    3  -16   20     -0.04      0.00
   -7  -15   20     -0.21      0.00
   -6  -15   20     -1.67      0.00
   -5  -15   20      1.95      0.00
   -4  -15   20      0.27      0.00
   -3  -15   20     -1.41      0.00
   -2  -15   20      0.00      0.00
   -1  -15   20     -1.64      0.00
    0  -15   20     -0.24      0.00
    1  -15   20     -1.73      0.00
    2  -15   20     -0.48      0.00
    3  -15   20      1.10      0.00
    4  -15   20      0.37      0.00
   -8  -14   20     -0.11      0.00
   -7  -14   20      1.51      0.00
   -6  -14   20     -0.20      0.00
   -5  -14   20     -3.54      0.00
    3  -14   20      0.84      0.00
    4  -14   20      0.19      0.00
    5  -14   20      0.93      0.00
    6  -14   20      0.48      0.00
   -9  -13   20     -0.85      0.00
   -8  -13   20      0.10      0.00
   -7  -13   20     -0.07      0.00
    4  -13   20      1.53      0.00
    5  -13   20     -0.64      0.00
    6  -13   20     -0.77      0.00
    7  -13   20      0.28      0.00
  -10  -12   20     -0.12      0.00
   -9  -12   20      0.13      0.00
   -8  -12   20      0.25      0.00
    5  -12   20      0.88      0.00
    6  -12   20      1.03      0.00
    7  -12   20     -0.25      0.00
  -11  -11   20     -0.51      0.00
  -10  -11   20      1.05      0.00
    6  -11   20     -0.72      0.00
    7  -11   20      0.53      0.00
    8  -11   20     -0.84      0.00
  -12  -10   20      1.06      0.00
  -11  -10   20     -0.28      0.00
  -10  -10   20     -2.05      0.00
    7  -10   20      0.30      0.00
    8  -10   20      0.62      0.00
  -12   -9   20     -0.95      0.00
  -11   -9   20     -0.70      0.00
    8   -9   20      0.37      0.00
    9   -9   20     -0.30      0.00
  -13   -8   20      0.78      0.00
  -12   -8   20      1.73      0.00
    8   -8   20     -0.91      0.00
    9   -8   20      0.09      0.00
  -13   -7   20     -1.49      0.00
  -12   -7   20     -1.23      0.00
    8   -7   20     -0.43      0.00
    9   -7   20     -0.27      0.00
  -14   -6   20      0.97      0.00
  -13   -6   20      1.07      0.00
    9   -6   20     -0.69      0.00
   10   -6   20     -0.78      0.00
  -14   -5   20      0.00      0.00
  -13   -5   20      1.26      0.00
    9   -5   20      0.95      0.00
   10   -5   20     -0.42      0.00
  -14   -4   20      0.49      0.00
    9   -4   20     -0.09      0.00
   10   -4   20      1.32      0.00
  -15   -3   20     -0.13      0.00
  -14   -3   20      1.36      0.00
    9   -3   20     -1.90      0.00
   10   -3   20     -0.32      0.00
  -15   -2   20     -0.43      0.00
  -14   -2   20     -0.76      0.00
    9   -2   20      0.15      0.00
   10   -2   20     -0.47      0.00
  -15   -1   20      1.23      0.00
  -14   -1   20     -0.52      0.00
    9   -1   20      1.11      0.00
   10   -1   20     -0.73      0.00
  -15    0   20     -0.96      0.00
  -14    0   20      1.09      0.00
    9    0   20      0.25      0.00
   10    0   20      0.94      0.00
  -15    1   20     -0.99      0.00
  -14    1   20      0.34      0.00
    9    1   20     -0.24      0.00
   10    1   20     -0.01      0.00
  -15    2   20      1.17      0.00
  -14    2   20     -2.14      0.00
    9    2   20     -0.40      0.00
   10    2   20      0.02      0.00
  -15    3   20      0.10      0.00
  -14    3   20      2.41      0.00
    9    3   20     -0.10      0.00
  -15    4   20     -1.51      0.00
  -14    4   20     -1.44      0.00
    8    4   20      0.84      0.00
    9    4   20      0.88      0.00
  -15    5   20      1.47      0.00
  -14    5   20      0.14      0.00
    8    5   20      0.03      0.00
    9    5   20      0.39      0.00
  -15    6   20     -1.33      0.00
  -14    6   20      2.74      0.00
    8    6   20     -0.11      0.00
    9    6   20     -0.66      0.00
  -14    7   20     -3.43      0.00
  -13    7   20      0.23      0.00
    7    7   20     -0.21      0.00
    8    7   20     -0.31      0.00
  -14    8   20      1.02      0.00
  -13    8   20     -1.12      0.00
    7    8   20      0.20      0.00
    8    8   20      0.31      0.00
  -14    9   20      0.45      0.00
  -13    9   20     -0.01      0.00
    6    9   20      0.43      0.00
    7    9   20      0.87      0.00
  -13   10   20      0.22      0.00
  -12   10   20     -0.75      0.00
    5   10   20      1.56      0.00
    6   10   20     -0.59      0.00
  -13   11   20      0.61      0.00
  -12   11   20     -0.44      0.00
  -11   11   20     -0.41      0.00
    4   11   20     -1.01      0.00
    5   11   20     -0.13      0.00
    6   11   20      0.65      0.00
  -12   12   20      0.74      0.00
  -11   12   20     -0.84      0.00
  -10   12   20     -1.01      0.00
    3   12   20     -1.14      0.00
    4   12   20      1.05      0.00
    5   12   20     -0.24      0.00
  -11   13   20      0.36      0.00
  -10   13   20      0.01      0.00
   -9   13   20     -2.54      0.00
    1   13   20     -1.64      0.00
    2   13   20      0.05      0.00
    3   13   20      0.12      0.00
    4   13   20     -0.03      0.00
  -10   14   20     -0.40      0.00
   -9   14   20      0.47      0.00
   -8   14   20     -3.10      0.00
   -7   14   20     -2.09      0.00
   -6   14   20      2.48      0.00
   -1   14   20      1.13      0.00
    0   14   20     -0.36      0.00
    1   14   20      1.05      0.00
    2   14   20     -0.52      0.00
    3   14   20     -0.36      0.00
   -9   15   20      0.23      0.00
   -8   15   20      1.40      0.00
   -7   15   20     -0.48      0.00
   -6   15   20     -1.41      0.00
   -5   15   20      1.38      0.00
   -4   15   20     -0.16      0.00
   -3   15   20     -0.37      0.00
   -2   15   20      0.05      0.00
   -1   15   20      0.23      0.00
    0   15   20     -0.39      0.00
    1   15   20     -0.54      0.00
   -7   16   20      0.27      0.00
   -6   16   20     -0.24      0.00
   -5   16   20     -0.57      0.00
   -4   16   20      0.27      0.00
   -3   16   20     -0.73      0.00
   -2   16   20     -0.71      0.00
   -1   16   20      0.14      0.00
   -4  -16   21      0.32      0.00
   -3  -16   21      0.16      0.00
   -2  -16   21      0.70      0.00
   -1  -16   21     -0.34      0.00
    0  -16   21      0.42      0.00
    1  -16   21     -0.76      0.00
   -6  -15   21      0.11      0.00
   -5  -15   21     -2.07      0.00
   -4  -15   21      0.10      0.00
   -3  -15   21      0.66      0.00
   -2  -15   21     -0.95      0.00
   -1  -15   21     -1.63      0.00
    0  -15   21      0.35      0.00
    1  -15   21      1.74      0.00
    2  -15   21     -1.08      0.00
    3  -15   21     -0.46      0.00
   -8  -14   21      0.77      0.00
   -7  -14   21     -0.16      0.00
   -6  -14   21      2.51      0.00
   -5  -14   21      2.47      0.00
   -4  -14   21     -2.07      0.00
   -3  -14   21     -1.78      0.00
   -2  -14   21      2.05      0.00
   -1  -14   21      1.18      0.00
    0  -14   21     -4.05      0.00
    1  -14   21      1.15      0.00
    2  -14   21      1.27      0.00
    3  -14   21     -0.10      0.00
    4  -14   21      1.42      0.00
    5  -14   21     -0.27      0.00
   -9  -13   21     -0.68      0.00
   -8  -13   21     -0.42      0.00
   -7  -13   21     -1.10      0.00
   -6  -13   21     -1.31      0.00
    3  -13   21     -0.99      0.00
    4  -13   21     -1.59      0.00
    5  -13   21      0.32      0.00
    6  -13   21     -0.48      0.00
  -10  -12   21      0.51      0.00
   -9  -12   21      0.79      0.00
   -8  -12   21      0.17      0.00
    4  -12   21      1.34      0.00
    5  -12   21     -0.22      0.00
    6  -12   21      0.03      0.00
    7  -12   21     -0.20      0.00
  -11  -11   21     -0.40      0.00
  -10  -11   21     -1.97      0.00
   -9  -11   21     -0.45      0.00
    5  -11   21      0.96      0.00
    6  -11   21      0.17      0.00
    7  -11   21     -0.03      0.00
  -11  -10   21      0.37      0.00
  -10  -10   21      1.64      0.00
    6  -10   21     -1.01      0.00
    7  -10   21     -0.32      0.00
    8  -10   21      0.35      0.00
  -12   -9   21      0.63      0.00
  -11   -9   21      0.50      0.00
    7   -9   21     -1.04      0.00
    8   -9   21     -0.74      0.00
  -13   -8   21     -0.35      0.00
  -12   -8   21     -1.24      0.00
  -11   -8   21     -0.44      0.00
    7   -8   21      1.85      0.00
    8   -8   21     -0.28      0.00
    9   -8   21      0.03      0.00
  -13   -7   21      0.25      0.00
  -12   -7   21     -0.15      0.00
    8   -7   21      0.21      0.00
    9   -7   21     -0.70      0.00
  -13   -6   21      1.24      0.00
  -12   -6   21      0.84      0.00
    8   -6   21     -0.62      0.00
    9   -6   21      0.30      0.00
  -14   -5   21      0.04      0.00
  -13   -5   21     -1.17      0.00
    8   -5   21      0.06      0.00
    9   -5   21     -0.47      0.00
  -14   -4   21      0.81      0.00
  -13   -4   21      1.13      0.00
    8   -4   21     -0.80      0.00
    9   -4   21     -0.86      0.00
  -14   -3   21     -0.49      0.00
  -13   -3   21      0.24      0.00
    9   -3   21     -0.20      0.00
  -15   -2   21      0.93      0.00
  -14   -2   21      0.11      0.00
    9   -2   21      1.28      0.00
   10   -2   21     -0.36      0.00
  -15   -1   21     -0.84      0.00
  -14   -1   21      0.59      0.00
    9   -1   21     -0.63      0.00
  -15    0   21      0.08      0.00
  -14    0   21      0.86      0.00
    9    0   21     -0.22      0.00
  -15    1   21      0.51      0.00
  -14    1   21     -1.74      0.00
    8    1   21     -0.50      0.00
    9    1   21      0.16      0.00
  -15    2   21      0.48      0.00
  -14    2   21      1.76      0.00
    8    2   21      0.38      0.00
    9    2   21      0.09      0.00
  -15    3   21     -1.82      0.00
  -14    3   21      0.61      0.00
    8    3   21      0.94      0.00
    9    3   21      0.58      0.00
  -15    4   21      1.39      0.00
  -14    4   21     -1.94      0.00
    8    4   21     -0.57      0.00
    9    4   21      0.15      0.00
  -15    5   21     -0.86      0.00
  -14    5   21      3.28      0.00
    7    5   21     -0.53      0.00
    8    5   21     -0.41      0.00
  -14    6   21     -3.11      0.00
  -13    6   21      0.79      0.00
    7    6   21      0.82      0.00
    8    6   21      0.07      0.00
  -14    7   21      0.77      0.00
  -13    7   21     -1.89      0.00
    6    7   21     -0.49      0.00
    7    7   21      0.24      0.00
    8    7   21      0.46      0.00
  -14    8   21      0.93      0.00
  -13    8   21      0.98      0.00
  -12    8   21      1.73      0.00
    6    8   21      1.24      0.00
    7    8   21      0.34      0.00
  -13    9   21     -0.30      0.00
  -12    9   21     -1.55      0.00
    5    9   21      0.01      0.00
    6    9   21     -1.01      0.00
  -13   10   21      0.63      0.00
  -12   10   21      0.07      0.00
  -11   10   21     -0.37      0.00
    4   10   21     -0.57      0.00
    5   10   21      0.82      0.00
    6   10   21      0.88      0.00
  -12   11   21      0.25      0.00
  -11   11   21     -1.60      0.00
  -10   11   21     -1.80      0.00
    3   11   21     -1.20      0.00
    4   11   21      0.61      0.00
    5   11   21     -0.48      0.00
  -12   12   21      0.08      0.00
  -11   12   21      1.15      0.00
  -10   12   21     -0.23      0.00
   -9   12   21     -3.12      0.00
    2   12   21      0.71      0.00
    3   12   21     -0.02      0.00
    4   12   21     -0.02      0.00
  -11   13   21     -0.52      0.00
  -10   13   21      0.71      0.00
   -9   13   21      1.74      0.00
   -8   13   21     -1.64      0.00
   -7   13   21     -1.18      0.00
    0   13   21     -0.40      0.00
    1   13   21      0.43      0.00
    2   13   21     -0.90      0.00
    3   13   21     -0.06      0.00
   -9   14   21     -0.25      0.00
   -8   14   21      1.03      0.00
   -7   14   21     -1.21      0.00
   -6   14   21     -2.28      0.00
   -5   14   21      0.61      0.00
   -4   14   21      0.13      0.00
   -3   14   21     -0.68      0.00
   -2   14   21     -1.16      0.00
   -1   14   21      0.69      0.00
    0   14   21     -0.03      0.00
    1   14   21     -0.22      0.00
    2   14   21      0.10      0.00
   -8   15   21      0.43      0.00
   -7   15   21      1.41      0.00
   -6   15   21      0.41      0.00
   -5   15   21     -0.57      0.00
   -4   15   21      0.60      0.00
   -3   15   21      0.17      0.00
   -2   15   21     -0.76      0.00
   -1   15   21     -0.29      0.00
    0   15   21      0.56      0.00
   -4   16   21     -0.15      0.00
   -5  -15   22      0.98      0.00
   -4  -15   22     -1.60      0.00
   -3  -15   22     -1.56      0.00
   -2  -15   22      0.56      0.00
   -1  -15   22     -0.19      0.00
    0  -15   22     -3.12      0.00
    1  -15   22      0.22      0.00
    2  -15   22      0.14      0.00
   -7  -14   22     -0.18      0.00
   -6  -14   22     -1.18      0.00
   -5  -14   22      0.66      0.00
   -4  -14   22      4.03      0.00
   -3  -14   22      1.55      0.00
   -2  -14   22     -1.58      0.00
   -1  -14   22      2.26      0.00
    0  -14   22      1.93      0.00
    1  -14   22     -2.87      0.00
    2  -14   22      1.95      0.00
    3  -14   22     -0.30      0.00
    4  -14   22     -0.13      0.00
   -8  -13   22     -0.12      0.00
   -7  -13   22      0.13      0.00
   -6  -13   22     -1.22      0.00
   -5  -13   22     -2.70      0.00
   -4  -13   22     -3.32      0.00
    1  -13   22      1.07      0.00
    2  -13   22     -1.80      0.00
    3  -13   22      2.18      0.00
    4  -13   22      0.19      0.00
    5  -13   22     -0.40      0.00
   -9  -12   22      0.03      0.00
   -8  -12   22      0.72      0.00
   -7  -12   22      2.16      0.00
    3  -12   22     -0.60      0.00
    4  -12   22      0.72      0.00
    5  -12   22      0.76      0.00
    6  -12   22      0.77      0.00
  -10  -11   22      1.52      0.00
   -9  -11   22     -0.80      0.00
   -8  -11   22     -1.01      0.00
    4  -11   22     -0.41      0.00
    5  -11   22     -0.60      0.00
    6  -11   22     -0.85      0.00
  -11  -10   22     -0.51      0.00
  -10  -10   22     -0.73      0.00
   -9  -10   22      1.62      0.00
    5  -10   22      0.77      0.00
    6  -10   22      1.52      0.00
    7  -10   22     -0.81      0.00
  -12   -9   22     -1.19      0.00
  -11   -9   22      0.05      0.00
  -10   -9   22     -0.09      0.00
    6   -9   22     -0.40      0.00
    7   -9   22      1.91      0.00
  -12   -8   22      0.70      0.00
  -11   -8   22     -0.85      0.00
    7   -8   22     -1.69      0.00
    8   -8   22     -0.37      0.00
  -13   -7   22     -0.10      0.00
  -12   -7   22      0.20      0.00
  -11   -7   22      0.27      0.00
    7   -7   22      0.37      0.00
    8   -7   22      0.06      0.00
  -13   -6   22     -0.24      0.00
  -12   -6   22     -0.35      0.00
    7   -6   22     -1.07      0.00
    8   -6   22      0.02      0.00
  -13   -5   22      0.58      0.00
  -12   -5   22     -0.10      0.00
    8   -5   22     -0.99      0.00
    9   -5   22     -0.56      0.00
  -14   -4   22      0.04      0.00
  -13   -4   22     -0.65      0.00
    8   -4   22      0.44      0.00
    9   -4   22      0.37      0.00
  -14   -3   22      0.66      0.00
  -13   -3   22      1.10      0.00
    8   -3   22     -0.27      0.00
    9   -3   22     -0.37      0.00
  -14   -2   22     -0.04      0.00
  -13   -2   22     -1.61      0.00
    8   -2   22     -0.71      0.00
    9   -2   22      0.63      0.00
  -14   -1   22      1.04      0.00
  -13   -1   22      1.43      0.00
    8   -1   22      0.42      0.00
    9   -1   22     -1.13      0.00
  -14    0   22     -0.88      0.00
  -13    0   22      1.40      0.00
    8    0   22      0.46      0.00
    9    0   22      0.86      0.00
  -14    1   22      0.71      0.00
  -13    1   22     -2.93      0.00
    8    1   22     -0.71      0.00
    9    1   22     -0.06      0.00
  -14    2   22      1.42      0.00
  -13    2   22      3.92      0.00
    8    2   22      1.01      0.00
    9    2   22     -0.16      0.00
  -14    3   22     -2.51      0.00
  -13    3   22     -0.80      0.00
    7    3   22     -1.63      0.00
    8    3   22     -0.59      0.00
  -14    4   22      2.72      0.00
  -13    4   22     -0.30      0.00
    7    4   22      0.43      0.00
    8    4   22     -0.19      0.00
  -14    5   22     -1.93      0.00
  -13    5   22      1.30      0.00
    7    5   22      0.80      0.00
    8    5   22      0.32      0.00
  -14    6   22      1.04      0.00
  -13    6   22     -1.06      0.00
    6    6   22     -0.49      0.00
    7    6   22      0.55      0.00
  -14    7   22      0.29      0.00
  -13    7   22      0.75      0.00
  -12    7   22      1.24      0.00
    6    7   22      0.35      0.00
    7    7   22     -0.80      0.00
  -13    8   22     -0.16      0.00
  -12    8   22     -0.82      0.00
    5    8   22     -0.81      0.00
    6    8   22     -0.23      0.00
  -13    9   22      0.46      0.00
  -12    9   22     -0.51      0.00
  -11    9   22     -1.67      0.00
    4    9   22      0.07      0.00
    5    9   22      1.39      0.00
    6    9   22      0.50      0.00
  -12   10   22      0.52      0.00
  -11   10   22     -0.67      0.00
    3   10   22     -0.76      0.00
    4   10   22     -0.46      0.00
    5   10   22     -0.51      0.00
  -12   11   22      0.20      0.00
  -11   11   22      1.07      0.00
  -10   11   22      0.30      0.00
   -9   11   22     -1.53      0.00
    2   11   22      0.88      0.00
    3   11   22      0.56      0.00
    4   11   22      0.66      0.00
  -11   12   22     -0.84      0.00
  -10   12   22      0.78      0.00
   -9   12   22      1.94      0.00
   -8   12   22     -0.76      0.00
    0   12   22     -0.04      0.00
    1   12   22      0.05      0.00
    2   12   22     -1.18      0.00
    3   12   22     -0.24      0.00
  -10   13   22     -0.67      0.00
   -9   13   22      0.20      0.00
   -8   13   22      2.54      0.00
   -7   13   22      0.87      0.00
   -6   13   22     -1.22      0.00
   -5   13   22      0.72      0.00
   -4   13   22      0.45      0.00
   -3   13   22     -0.76      0.00
   -2   13   22     -1.28      0.00
   -1   13   22      0.97      0.00
    0   13   22      0.03      0.00
    1   13   22      0.14      0.00
    2   13   22      0.03      0.00
   -9   14   22     -0.56      0.00
   -8   14   22     -0.54      0.00
   -7   14   22      1.02      0.00
   -6   14   22      0.05      0.00
   -5   14   22     -1.31      0.00
   -4   14   22      0.22      0.00
   -3   14   22      0.94      0.00
   -2   14   22     -0.60      0.00
   -1   14   22     -0.66      0.00
    0   14   22      0.72      0.00
    1   14   22      0.11      0.00
   -6   15   22      1.09      0.00
   -5   15   22      0.49      0.00
   -4   15   22     -0.31      0.00
   -3   15   22      0.51      0.00
   -2   15   22      0.85      0.00
   -3  -15   23     -0.62      0.00
   -2  -15   23     -2.22      0.00
   -1  -15   23     -0.05      0.00
    0  -15   23      0.00      0.00
   -6  -14   23      0.18      0.00
   -5  -14   23     -1.50      0.00
   -4  -14   23     -1.77      0.00
   -3  -14   23      1.41      0.00
   -2  -14   23      2.08      0.00
   -1  -14   23     -0.88      0.00
    0  -14   23      2.75      0.00
    1  -14   23      0.77      0.00
    2  -14   23     -0.78      0.00
   -7  -13   23      1.24      0.00
   -6  -13   23      1.72      0.00
   -5  -13   23      0.82      0.00
   -4  -13   23     -0.77      0.00
   -3  -13   23     -3.00      0.00
   -2  -13   23     -2.42      0.00
   -1  -13   23     -1.82      0.00
    0  -13   23     -3.16      0.00
    1  -13   23      2.15      0.00
    2  -13   23     -0.65      0.00
    3  -13   23     -0.89      0.00
    4  -13   23     -0.13      0.00
   -9  -12   23     -0.10      0.00
   -8  -12   23     -0.40      0.00
   -7  -12   23     -1.85      0.00
   -6  -12   23      0.33      0.00
   -5  -12   23      2.39      0.00
    1  -12   23     -1.98      0.00
    2  -12   23      1.42      0.00
    3  -12   23     -0.26      0.00
    4  -12   23      0.40      0.00
    5  -12   23     -0.12      0.00
   -9  -11   23      0.70      0.00
   -8  -11   23      1.47      0.00
   -7  -11   23      1.38      0.00
    3  -11   23      0.95      0.00
    4  -11   23      0.05      0.00
    5  -11   23      0.53      0.00
    6  -11   23      0.14      0.00
  -10  -10   23     -0.77      0.00
   -9  -10   23     -0.77      0.00
   -8  -10   23     -1.27      0.00
    4  -10   23      0.64      0.00
    5  -10   23     -0.93      0.00
    6  -10   23      0.03      0.00
  -11   -9   23     -0.20      0.00
  -10   -9   23      0.14      0.00
   -9   -9   23      0.22      0.00
    5   -9   23      0.91      0.00
    6   -9   23     -1.74      0.00
    7   -9   23     -1.11      0.00
  -12   -8   23      0.32      0.00
  -11   -8   23      0.07      0.00
  -10   -8   23      0.65      0.00
    6   -8   23      1.32      0.00
    7   -8   23     -0.33      0.00
  -12   -7   23     -0.81      0.00
  -11   -7   23     -0.52      0.00
    6   -7   23     -0.22      0.00
    7   -7   23      0.09      0.00
    8   -7   23      0.18      0.00
  -13   -6   23      0.81      0.00
  -12   -6   23      0.38      0.00
  -11   -6   23      0.30      0.00
    6   -6   23     -0.40      0.00
    7   -6   23     -1.07      0.00
    8   -6   23     -1.22      0.00
  -13   -5   23     -1.34      0.00
  -12   -5   23     -0.83      0.00
    7   -5   23      0.87      0.00
    8   -5   23      0.36      0.00
  -13   -4   23      1.22      0.00
  -12   -4   23     -0.12      0.00
    7   -4   23     -0.12      0.00
    8   -4   23     -0.48      0.00
  -14   -3   23     -0.42      0.00
  -13   -3   23     -1.07      0.00
  -12   -3   23      0.78      0.00
    7   -3   23     -1.73      0.00
    8   -3   23     -0.04      0.00
  -14   -2   23      0.51      0.00
  -13   -2   23      0.44      0.00
    7   -2   23      1.52      0.00
    8   -2   23     -0.27      0.00
  -14   -1   23      0.08      0.00
  -13   -1   23      1.68      0.00
    7   -1   23     -0.93      0.00
    8   -1   23      0.34      0.00
  -14    0   23     -0.46      0.00
  -13    0   23     -2.66      0.00
    7    0   23      0.41      0.00
    8    0   23     -0.51      0.00
  -14    1   23      1.66      0.00
  -13    1   23      2.86      0.00
    7    1   23      1.08      0.00
    8    1   23      0.37      0.00
  -14    2   23     -2.20      0.00
  -13    2   23     -0.15      0.00
    7    2   23     -1.54      0.00
    8    2   23      0.18      0.00
  -14    3   23      2.35      0.00
  -13    3   23     -0.90      0.00
    7    3   23      0.62      0.00
    8    3   23     -0.05      0.00
  -14    4   23     -0.92      0.00
  -13    4   23      1.49      0.00
    6    4   23      1.10      0.00
    7    4   23      0.95      0.00
  -14    5   23      1.04      0.00
  -13    5   23     -0.56      0.00
  -12    5   23     -1.58      0.00
    6    5   23     -1.54      0.00
    7    5   23     -0.02      0.00
  -13    6   23      1.44      0.00
  -12    6   23      2.06      0.00
    5    6   23      2.70      0.00
    6    6   23      0.44      0.00
    7    6   23     -0.88      0.00
  -13    7   23     -1.38      0.00
  -12    7   23     -1.34      0.00
    5    7   23     -1.89      0.00
    6    7   23      0.05      0.00
  -13    8   23      1.55      0.00
  -12    8   23      0.19      0.00
  -11    8   23     -0.96      0.00
    4    8   23      1.46      0.00
    5    8   23      2.02      0.00
    6    8   23      0.52      0.00
  -12    9   23     -0.09      0.00
  -11    9   23     -0.71      0.00
  -10    9   23     -1.40      0.00
    3    9   23      0.02      0.00
    4    9   23     -1.54      0.00
    5    9   23     -0.70      0.00
  -12   10   23      0.40      0.00
  -11   10   23      0.95      0.00
  -10   10   23      0.85      0.00
    2   10   23     -0.41      0.00
    3   10   23      1.12      0.00
    4   10   23      1.15      0.00
  -11   11   23     -0.94      0.00
  -10   11   23      0.48      0.00
   -9   11   23      2.35      0.00
   -8   11   23      1.56      0.00
    0   11   23      1.35      0.00
    1   11   23      1.04      0.00
    2   11   23     -0.91      0.00
    3   11   23     -0.64      0.00
  -10   12   23     -1.34      0.00
   -9   12   23     -0.92      0.00
   -8   12   23      1.83      0.00
   -7   12   23      1.21      0.00
   -6   12   23     -1.50      0.00
   -5   12   23      0.32      0.00
   -3   12   23     -0.89      0.00
   -2   12   23     -0.34      0.00
   -1   12   23      0.69      0.00
    0   12   23     -0.89      0.00
    1   12   23      0.02      0.00
    2   12   23      0.09      0.00
   -9   13   23     -0.16      0.00
   -8   13   23     -0.40      0.00
   -7   13   23      1.86      0.00
   -6   13   23      1.33      0.00
   -5   13   23     -1.00      0.00
   -4   13   23      0.08      0.00
   -3   13   23      1.19      0.00
   -2   13   23     -0.65      0.00
   -1   13   23     -0.63      0.00
    0   13   23      0.68      0.00
    1   13   23     -0.02      0.00
   -7   14   23     -0.77      0.00
   -6   14   23      0.53      0.00
   -5   14   23      0.55      0.00
   -4   14   23     -0.54      0.00
   -3   14   23      0.03      0.00
   -2   14   23      1.29      0.00
   -1   14   23     -0.57      0.00
   -4  -14   24      0.41      0.00
   -3  -14   24     -0.66      0.00
   -2  -14   24     -0.01      0.00
   -1  -14   24      0.13      0.00
    0  -14   24     -1.22      0.00
   -6  -13   24     -0.58      0.00
   -5  -13   24      0.84      0.00
   -4  -13   24      0.78      0.00
   -3  -13   24      0.62      0.00
   -2  -13   24      0.13      0.00
   -1  -13   24      1.29      0.00
    0  -13   24     -1.37      0.00
    1  -13   24     -1.65      0.00
    2  -13   24      0.46      0.00
   -8  -12   24      1.01      0.00
   -7  -12   24      1.02      0.00
   -6  -12   24     -1.70      0.00
   -5  -12   24     -1.98      0.00
   -4  -12   24      0.19      0.00
   -3  -12   24      0.93      0.00
   -2  -12   24      0.13      0.00
   -1  -12   24     -0.11      0.00
    0  -12   24      3.82      0.00
    1  -12   24      0.59      0.00
    2  -12   24      1.31      0.00
    3  -12   24      0.97      0.00
    4  -12   24      0.25      0.00
   -9  -11   24      0.07      0.00
   -8  -11   24     -0.98      0.00
   -7  -11   24      1.24      0.00
   -6  -11   24      2.00      0.00
   -5  -11   24     -0.44      0.00
    1  -11   24      0.26      0.00
    2  -11   24     -0.62      0.00
    3  -11   24      0.32      0.00
    4  -11   24      0.10      0.00
    5  -11   24     -0.45      0.00
  -10  -10   24     -0.18      0.00
   -9  -10   24      0.22      0.00
   -8  -10   24      0.75      0.00
   -7  -10   24     -1.09      0.00
    3  -10   24     -0.11      0.00
    4  -10   24     -0.05      0.00
    5  -10   24      0.27      0.00
  -10   -9   24      0.89      0.00
   -9   -9   24      0.16      0.00
   -8   -9   24      1.24      0.00
    4   -9   24      0.14      0.00
    5   -9   24      1.10      0.00
    6   -9   24      1.15      0.00
  -11   -8   24     -0.57      0.00
  -10   -8   24     -1.37      0.00
   -9   -8   24     -1.05      0.00
    5   -8   24     -2.05      0.00
    6   -8   24      0.06      0.00
  -12   -7   24      0.34      0.00
  -11   -7   24      0.30      0.00
  -10   -7   24      0.59      0.00
    5   -7   24      1.14      0.00
    6   -7   24     -0.82      0.00
    7   -7   24     -0.22      0.00
  -12   -6   24     -0.57      0.00
  -11   -6   24      0.02      0.00
    6   -6   24      0.11      0.00
    7   -6   24      0.14      0.00
  -13   -5   24      0.80      0.00
  -12   -5   24     -0.49      0.00
  -11   -5   24     -1.95      0.00
    6   -5   24     -0.83      0.00
    7   -5   24      0.09      0.00
  -13   -4   24     -0.83      0.00
  -12   -4   24      0.78      0.00
    6   -4   24     -0.69      0.00
    7   -4   24     -1.60      0.00
  -13   -3   24      0.50      0.00
  -12   -3   24     -2.01      0.00
    6   -3   24      1.48      0.00
    7   -3   24      0.80      0.00
    8   -3   24     -1.34      0.00
  -13   -2   24      0.28      0.00
  -12   -2   24      1.79      0.00
    6   -2   24     -1.68      0.00
    7   -2   24      0.02      0.00
    8   -2   24      0.93      0.00
  -13   -1   24     -1.14      0.00
  -12   -1   24     -0.56      0.00
    6   -1   24      1.10      0.00
    7   -1   24     -0.89      0.00
    8   -1   24     -0.62      0.00
  -14    0   24      0.57      0.00
  -13    0   24      0.79      0.00
  -12    0   24     -1.26      0.00
    6    0   24     -0.46      0.00
    7    0   24      1.52      0.00
  -14    1   24     -0.52      0.00
  -13    1   24      1.21      0.00
  -12    1   24      2.14      0.00
    6    1   24     -0.49      0.00
    7    1   24     -1.39      0.00
  -14    2   24      1.13      0.00
  -13    2   24     -1.72      0.00
  -12    2   24     -0.57      0.00
    6    2   24      1.64      0.00
    7    2   24      0.49      0.00
  -14    3   24      0.26      0.00
  -13    3   24      2.28      0.00
  -12    3   24      1.33      0.00
    6    3   24      0.45      0.00
    7    3   24      0.69      0.00
  -13    4   24     -0.82      0.00
  -12    4   24     -1.66      0.00
    5    4   24     -0.99      0.00
    6    4   24     -1.63      0.00
    7    4   24     -0.21      0.00
  -13    5   24      1.77      0.00
  -12    5   24      1.90      0.00
    5    5   24      2.61      0.00
    6    5   24      0.31      0.00
  -13    6   24     -1.42      0.00
  -12    6   24     -0.06      0.00
  -11    6   24      1.94      0.00
    4    6   24     -1.27      0.00
    5    6   24     -1.36      0.00
    6    6   24      0.90      0.00
  -13    7   24      0.88      0.00
  -12    7   24     -1.16      0.00
  -11    7   24     -1.20      0.00
    4    7   24      1.96      0.00
    5    7   24      1.15      0.00
  -12    8   24      1.13      0.00
  -11    8   24      0.03      0.00
  -10    8   24     -0.09      0.00
    3    8   24      0.18      0.00
    4    8   24     -1.72      0.00
    5    8   24     -0.36      0.00
  -12    9   24     -1.00      0.00
  -11    9   24     -0.18      0.00
  -10    9   24     -0.15      0.00
   -9    9   24      0.61      0.00
    2    9   24     -0.87      0.00
    3    9   24      1.74      0.00
    4    9   24      1.24      0.00
  -11   10   24     -0.17      0.00
  -10   10   24      0.18      0.00
   -9   10   24      0.96      0.00
   -8   10   24      1.45      0.00
    0   10   24      1.80      0.00
    1   10   24      1.28      0.00
    2   10   24     -1.34      0.00
    3   10   24     -1.41      0.00
  -10   11   24     -0.84      0.00
   -9   11   24     -0.81      0.00
   -8   11   24      1.58      0.00
   -7   11   24      1.77      0.00
   -6   11   24     -0.85      0.00
   -2   11   24      0.60      0.00
   -1   11   24     -0.03      0.00
    0   11   24     -1.77      0.00
    1   11   24      0.21      0.00
    2   11   24      0.98      0.00
   -9   12   24     -0.26      0.00
   -8   12   24     -1.42      0.00
   -7   12   24      1.11      0.00
   -6   12   24      1.29      0.00
   -5   12   24     -1.25      0.00
   -4   12   24      0.39      0.00
   -3   12   24      1.19      0.00
   -2   12   24     -0.64      0.00
   -1   12   24     -0.02      0.00
    0   12   24      0.41      0.00
    1   12   24     -0.74      0.00
   -8   13   24      0.38      0.00
   -7   13   24     -0.63      0.00
   -6   13   24      0.61      0.00
   -5   13   24      1.01      0.00
   -4   13   24     -0.88      0.00
   -3   13   24     -0.84      0.00
   -2   13   24      0.86      0.00
   -1   13   24     -0.82      0.00
   -5  -13   25     -1.88      0.00
   -4  -13   25     -0.68      0.00
   -3  -13   25     -0.45      0.00
   -2  -13   25     -1.23      0.00
   -1  -13   25     -1.27      0.00
    0  -13   25      1.54      0.00
    1  -13   25     -0.11      0.00
   -7  -12   25      1.00      0.00
   -6  -12   25      1.66      0.00
   -5  -12   25      0.27      0.00
   -4  -12   25     -1.63      0.00
   -3  -12   25     -1.14      0.00
   -2  -12   25      1.60      0.00
   -1  -12   25     -0.22      0.00
    0  -12   25     -1.70      0.00
    1  -12   25      0.29      0.00
    2  -12   25     -0.61      0.00
   -8  -11   25      0.53      0.00
   -7  -11   25     -0.85      0.00
   -6  -11   25      0.36      0.00
   -5  -11   25      0.85      0.00
   -4  -11   25      1.59      0.00
   -3  -11   25      0.23      0.00
   -2  -11   25     -2.70      0.00
   -1  -11   25      1.52      0.00
    0  -11   25      1.47      0.00
    1  -11   25     -0.31      0.00
    2  -11   25     -0.36      0.00
    3  -11   25     -0.33      0.00
   -9  -10   25     -0.29      0.00
   -8  -10   25      1.01      0.00
   -7  -10   25      0.05      0.00
   -6  -10   25     -0.22      0.00
   -5  -10   25      1.45      0.00
    1  -10   25      1.46      0.00
    2  -10   25      0.54      0.00
    3  -10   25      0.27      0.00
    4  -10   25      0.33      0.00
  -10   -9   25     -0.45      0.00
   -9   -9   25     -0.62      0.00
   -8   -9   25     -0.40      0.00
   -7   -9   25      2.48      0.00
    2   -9   25      0.05      0.00
    3   -9   25     -0.09      0.00
    4   -9   25     -0.41      0.00
    5   -9   25     -0.99      0.00
  -10   -8   25      0.46      0.00
   -9   -8   25      1.93      0.00
   -8   -8   25     -1.57      0.00
    3   -8   25     -1.03      0.00
    4   -8   25      0.57      0.00
    5   -8   25     -0.25      0.00
  -11   -7   25      0.54      0.00
  -10   -7   25     -1.08      0.00
   -9   -7   25     -1.20      0.00
    4   -7   25     -1.66      0.00
    5   -7   25      0.52      0.00
    6   -7   25      0.57      0.00
  -12   -6   25     -1.11      0.00
  -11   -6   25     -1.58      0.00
  -10   -6   25      0.94      0.00
    5   -6   25     -1.47      0.00
    6   -6   25     -1.04      0.00
  -12   -5   25      1.33      0.00
  -11   -5   25      0.94      0.00
  -10   -5   25     -1.43      0.00
    5   -5   25      1.12      0.00
    6   -5   25     -0.23      0.00
  -12   -4   25     -2.09      0.00
  -11   -4   25     -0.66      0.00
    5   -4   25     -1.20      0.00
    6   -4   25      1.01      0.00
    7   -4   25      0.01      0.00
  -13   -3   25      0.27      0.00
  -12   -3   25      1.82      0.00
  -11   -3   25     -0.53      0.00
    5   -3   25      1.19      0.00
    6   -3   25     -1.66      0.00
    7   -3   25      0.27      0.00
  -13   -2   25     -1.46      0.00
  -12   -2   25     -1.70      0.00
  -11   -2   25      0.67      0.00
    5   -2   25     -1.12      0.00
    6   -2   25      0.77      0.00
    7   -2   25     -0.72      0.00
  -13   -1   25      1.29      0.00
  -12   -1   25      0.25      0.00
    5   -1   25      0.45      0.00
    6   -1   25     -0.21      0.00
    7   -1   25      0.45      0.00
  -13    0   25      0.06      0.00
  -12    0   25      0.34      0.00
    5    0   25      0.54      0.00
    6    0   25     -0.29      0.00
    7    0   25     -0.40      0.00
  -13    1   25     -0.42      0.00
  -12    1   25      0.66      0.00
    5    1   25      0.12      0.00
    6    1   25      0.63      0.00
    7    1   25     -0.05      0.00
  -13    2   25      1.11      0.00
  -12    2   25      0.12      0.00
    5    2   25     -0.40      0.00
    6    2   25      0.81      0.00
  -13    3   25     -0.07      0.00
  -12    3   25     -0.44      0.00
    5    3   25     -1.10      0.00
    6    3   25     -1.69      0.00
  -13    4   25      1.19      0.00
  -12    4   25      0.64      0.00
  -11    4   25     -2.24      0.00
    4    4   25      0.79      0.00
    5    4   25      3.05      0.00
    6    4   25      0.62      0.00
  -13    5   25     -0.90      0.00
  -12    5   25      1.39      0.00
  -11    5   25      1.86      0.00
    4    5   25     -2.57      0.00
    5    5   25     -1.50      0.00
  -12    6   25     -1.68      0.00
  -11    6   25      0.11      0.00
    3    6   25     -0.60      0.00
    4    6   25      2.74      0.00
    5    6   25      0.45      0.00
  -12    7   25      0.78      0.00
  -11    7   25     -1.13      0.00
  -10    7   25      0.33      0.00
    2    7   25      2.59      0.00
    3    7   25     -0.63      0.00
    4    7   25     -1.77      0.00
  -12    8   25     -0.46      0.00
  -11    8   25      0.47      0.00
  -10    8   25     -0.84      0.00
   -9    8   25      0.74      0.00
    1    8   25     -2.52      0.00
    2    8   25     -0.81      0.00
    3    8   25      1.92      0.00
    4    8   25      1.19      0.00
  -11    9   25     -0.31      0.00
  -10    9   25     -0.18      0.00
   -9    9   25     -0.77      0.00
   -8    9   25      0.77      0.00
    0    9   25      2.53      0.00
    1    9   25      1.39      0.00
    2    9   25     -1.35      0.00
    3    9   25     -1.40      0.00
  -10   10   25      0.52      0.00
   -9   10   25     -0.31      0.00
   -8   10   25      0.21      0.00
   -7   10   25      0.30      0.00
   -6   10   25     -0.86      0.00
   -2   10   25     -0.41      0.00
   -1   10   25     -2.02      0.00
    0   10   25     -2.75      0.00
    1   10   25     -0.10      0.00
    2   10   25      1.27      0.00
   -9   11   25      0.88      0.00
   -8   11   25     -0.61      0.00
   -7   11   25      1.38      0.00
   -6   11   25      0.98      0.00
   -5   11   25     -1.48      0.00
   -4   11   25      0.95      0.00
   -3   11   25      1.28      0.00
   -2   11   25     -0.09      0.00
   -1   11   25      0.88      0.00
    0   11   25      0.38      0.00
    1   11   25     -0.96      0.00
   -8   12   25      0.50      0.00
   -7   12   25     -1.23      0.00
   -6   12   25      0.28      0.00
   -5   12   25      0.96      0.00
   -4   12   25     -1.04      0.00
   -3   12   25     -0.96      0.00
   -2   12   25      0.44      0.00
   -1   12   25     -0.90      0.00
    0   12   25      0.14      0.00
   -5   13   25     -0.28      0.00
   -4   13   25      0.68      0.00
   -3   13   25     -0.15      0.00
   -5  -12   26      1.31      0.00
   -4  -12   26      2.02      0.00
   -3  -12   26      0.53      0.00
   -2  -12   26     -1.06      0.00
   -1  -12   26      1.59      0.00
    0  -12   26      0.82      0.00
    1  -12   26      0.36      0.00
   -7  -11   26     -0.12      0.00
   -6  -11   26     -0.72      0.00
   -5  -11   26     -0.75      0.00
   -4  -11   26     -0.92      0.00
   -3  -11   26      1.72      0.00
   -2  -11   26      1.43      0.00
   -1  -11   26     -1.47      0.00
    0  -11   26      0.40      0.00
    1  -11   26      0.93      0.00
    2  -11   26      0.25      0.00
   -8  -10   26      0.12      0.00
   -7  -10   26      1.56      0.00
   -6  -10   26     -0.67      0.00
   -5  -10   26      0.23      0.00
   -4  -10   26      0.20      0.00
   -3  -10   26     -2.22      0.00
   -2  -10   26      1.11      0.00
   -1  -10   26      0.84      0.00
    0  -10   26     -1.45      0.00
    1  -10   26     -0.50      0.00
    2  -10   26      0.50      0.00
    3  -10   26      0.00      0.00
   -9   -9   26      1.44      0.00
   -8   -9   26     -1.04      0.00
   -7   -9   26      0.09      0.00
   -6   -9   26      2.41      0.00
   -5   -9   26     -2.22      0.00
    0   -9   26      1.01      0.00
    1   -9   26     -0.72      0.00
    2   -9   26     -0.05      0.00
    3   -9   26     -0.17      0.00
    4   -9   26      0.47      0.00
  -10   -8   26     -1.77      0.00
   -9   -8   26     -0.70      0.00
   -8   -8   26      3.22      0.00
   -7   -8   26     -1.49      0.00
    2   -8   26     -0.02      0.00
    3   -8   26      0.55      0.00
    4   -8   26     -1.00      0.00
    5   -8   26      0.32      0.00
  -10   -7   26      1.58      0.00
   -9   -7   26     -1.80      0.00
   -8   -7   26     -2.08      0.00
    3   -7   26      0.25      0.00
    4   -7   26      0.96      0.00
    5   -7   26     -0.24      0.00
  -11   -6   26     -0.41      0.00
  -10   -6   26     -0.99      0.00
   -9   -6   26      2.11      0.00
    3   -6   26     -1.01      0.00
    4   -6   26     -0.29      0.00
    5   -6   26     -0.09      0.00
  -11   -5   26      0.23      0.00
  -10   -5   26     -0.53      0.00
   -9   -5   26     -0.91      0.00
    4   -5   26     -0.22      0.00
    5   -5   26     -0.25      0.00
    6   -5   26      0.64      0.00
  -12   -4   26      0.48      0.00
  -11   -4   26     -0.46      0.00
  -10   -4   26     -0.03      0.00
    4   -4   26     -1.16      0.00
    5   -4   26     -0.04      0.00
    6   -4   26     -1.47      0.00
  -12   -3   26     -0.98      0.00
  -11   -3   26      0.57      0.00
  -10   -3   26      0.47      0.00
    4   -3   26     -0.52      0.00
    5   -3   26     -0.81      0.00
    6   -3   26      0.63      0.00
  -12   -2   26     -0.27      0.00
  -11   -2   26     -1.78      0.00
    4   -2   26      2.13      0.00
    5   -2   26      0.40      0.00
    6   -2   26     -0.38      0.00
  -12   -1   26      1.07      0.00
  -11   -1   26      1.30      0.00
    4   -1   26     -1.80      0.00
    5   -1   26     -0.20      0.00
    6   -1   26     -0.07      0.00
  -13    0   26     -1.10      0.00
  -12    0   26     -0.79      0.00
  -11    0   26     -0.95      0.00
    4    0   26      1.19      0.00
    5    0   26      0.38      0.00
    6    0   26      0.02      0.00
  -13    1   26      1.58      0.00
  -12    1   26      0.81      0.00
  -11    1   26      1.39      0.00
    4    1   26     -0.31      0.00
    5    1   26     -0.26      0.00
    6    1   26      0.73      0.00
  -13    2   26     -0.68      0.00
  -12    2   26     -0.51      0.00
  -11    2   26      0.30      0.00
    4    2   26      1.55      0.00
    5    2   26     -0.62      0.00
    6    2   26     -1.11      0.00
  -12    3   26      0.43      0.00
  -11    3   26     -1.06      0.00
    4    3   26     -0.03      0.00
    5    3   26      2.24      0.00
  -12    4   26      1.62      0.00
  -11    4   26      0.38      0.00
  -10    4   26     -1.10      0.00
    3    4   26      1.63      0.00
    4    4   26     -1.90      0.00
    5    4   26     -1.07      0.00
  -12    5   26     -1.36      0.00
  -11    5   26      1.57      0.00
  -10    5   26      0.36      0.00
    3    5   26      0.15      0.00
    4    5   26      2.01      0.00
    5    5   26     -0.44      0.00
  -12    6   26      0.28      0.00
  -11    6   26     -1.40      0.00
  -10    6   26      1.10      0.00
    2    6   26      2.05      0.00
    3    6   26     -0.80      0.00
    4    6   26     -0.72      0.00
  -11    7   26      0.24      0.00
  -10    7   26     -1.28      0.00
   -9    7   26      0.95      0.00
    1    7   26     -1.55      0.00
    2    7   26     -0.14      0.00
    3    7   26      1.33      0.00
    4    7   26      0.49      0.00
  -11    8   26      0.51      0.00
  -10    8   26      0.27      0.00
   -9    8   26     -1.37      0.00
   -8    8   26      0.12      0.00
    0    8   26      0.89      0.00
    1    8   26     -0.03      0.00
    2    8   26     -1.45      0.00
    3    8   26     -0.76      0.00
  -10    9   26      1.25      0.00
   -9    9   26      0.46      0.00
   -8    9   26     -0.30      0.00
   -7    9   26     -0.43      0.00
   -6    9   26     -0.47      0.00
   -5    9   26      1.96      0.00
   -4    9   26      1.00      0.00
   -3    9   26      0.01      0.00
   -2    9   26     -1.00      0.00
   -1    9   26     -2.03      0.00
    0    9   26     -1.35      0.00
    1    9   26      0.63      0.00
    2    9   26      1.44      0.00
   -9   10   26      1.55      0.00
   -8   10   26      0.06      0.00
   -7   10   26      1.09      0.00
   -6   10   26      0.12      0.00
   -5   10   26     -1.84      0.00
   -4   10   26      0.83      0.00
   -3   10   26      1.21      0.00
   -2   10   26      0.07      0.00
   -1   10   26      0.14      0.00
    0   10   26     -0.66      0.00
    1   10   26     -1.42      0.00
   -8   11   26      1.03      0.00
   -7   11   26     -0.87      0.00
   -6   11   26      0.34      0.00
   -5   11   26      0.52      0.00
   -4   11   26     -1.38      0.00
   -3   11   26     -0.78      0.00
   -2   11   26      0.66      0.00
   -1   11   26     -0.03      0.00
   -6   12   26     -0.06      0.00
   -5   12   26     -0.12      0.00
   -4   12   26      0.79      0.00
   -3   12   26      0.06      0.00
   -5  -11   27     -0.14      0.00
   -4  -11   27     -1.13      0.00
   -3  -11   27     -1.86      0.00
   -2  -11   27      0.23      0.00
   -1  -11   27      0.17      0.00
    0  -11   27     -0.75      0.00
   -7  -10   27      0.45      0.00
   -6  -10   27      0.74      0.00
   -5  -10   27     -0.51      0.00
   -4  -10   27      1.64      0.00
   -3  -10   27      0.50      0.00
   -2  -10   27     -1.21      0.00
   -1  -10   27      1.32      0.00
    0  -10   27      0.38      0.00
    1  -10   27     -0.88      0.00
    2  -10   27     -0.47      0.00
   -8   -9   27      1.38      0.00
   -7   -9   27     -0.77      0.00
   -6   -9   27      1.33      0.00
   -5   -9   27      0.92      0.00
   -4   -9   27     -2.11      0.00
   -3   -9   27      2.59      0.00
   -2   -9   27      0.86      0.00
   -1   -9   27     -1.77      0.00
    0   -9   27      1.41      0.00
    1   -9   27      0.64      0.00
    2   -9   27     -0.11      0.00
    3   -9   27      0.05      0.00
   -9   -8   27     -1.37      0.00
   -8   -8   27     -0.65      0.00
   -7   -8   27      1.24      0.00
   -6   -8   27     -1.75      0.00
   -5   -8   27      2.76      0.00
   -4   -8   27      0.42      0.00
   -3   -8   27     -3.76      0.00
   -2   -8   27      1.97      0.00
   -1   -8   27      0.65      0.00
    0   -8   27     -1.90      0.00
    1   -8   27      0.06      0.00
    2   -8   27     -0.87      0.00
    3   -8   27     -0.23      0.00
  -10   -7   27      0.16      0.00
   -9   -7   27      1.66      0.00
   -8   -7   27     -0.59      0.00
   -7   -7   27      1.68      0.00
   -6   -7   27      0.61      0.00
    1   -7   27     -0.26      0.00
    2   -7   27      0.03      0.00
    3   -7   27     -0.80      0.00
    4   -7   27     -0.33      0.00
  -10   -6   27     -0.97      0.00
   -9   -6   27      0.15      0.00
   -8   -6   27      0.29      0.00
   -7   -6   27     -2.10      0.00
    2   -6   27      0.26      0.00
    3   -6   27     -1.12      0.00
    4   -6   27     -0.75      0.00
  -11   -5   27      0.22      0.00
  -10   -5   27     -0.06      0.00
   -9   -5   27     -2.44      0.00
   -8   -5   27      0.75      0.00
    2   -5   27      0.40      0.00
    3   -5   27      1.06      0.00
    4   -5   27     -0.34      0.00
    5   -5   27      0.26      0.00
  -11   -4   27     -0.35      0.00
  -10   -4   27      0.90      0.00
   -9   -4   27      1.18      0.00
    3   -4   27      0.72      0.00
    4   -4   27     -0.40      0.00
    5   -4   27     -0.78      0.00
  -11   -3   27     -1.17      0.00
  -10   -3   27     -1.38      0.00
   -9   -3   27     -0.46      0.00
    3   -3   27     -0.73      0.00
    4   -3   27      1.64      0.00
    5   -3   27      0.36      0.00
  -12   -2   27      0.39      0.00
  -11   -2   27      0.81      0.00
  -10   -2   27     -0.90      0.00
    3   -2   27     -1.06      0.00
    4   -2   27     -1.50      0.00
    5   -2   27     -0.36      0.00
  -12   -1   27     -0.48      0.00
  -11   -1   27      0.15      0.00
  -10   -1   27      0.58      0.00
    3   -1   27      2.50      0.00
    4   -1   27      0.34      0.00
    5   -1   27      0.20      0.00
  -12    0   27     -0.21      0.00
  -11    0   27     -0.09      0.00
  -10    0   27      0.29      0.00
    3    0   27     -1.15      0.00
    4    0   27      0.55      0.00
    5    0   27      0.04      0.00
  -12    1   27      0.97      0.00
  -11    1   27      0.19      0.00
  -10    1   27      0.01      0.00
    3    1   27      0.47      0.00
    4    1   27      0.11      0.00
    5    1   27     -0.69      0.00
  -12    2   27     -0.78      0.00
  -11    2   27     -0.28      0.00
  -10    2   27      0.39      0.00
    3    2   27     -0.32      0.00
    4    2   27      0.23      0.00
    5    2   27      1.55      0.00
  -12    3   27      1.91      0.00
  -11    3   27     -0.10      0.00
  -10    3   27      0.30      0.00
    2    3   27     -0.20      0.00
    3    3   27      0.54      0.00
    4    3   27     -1.44      0.00
  -12    4   27     -1.16      0.00
  -11    4   27      1.44      0.00
  -10    4   27     -1.43      0.00
   -9    4   27     -0.19      0.00
    2    4   27      0.42      0.00
    3    4   27      0.97      0.00
    4    4   27      1.59      0.00
  -11    5   27     -0.34      0.00
  -10    5   27      2.04      0.00
   -9    5   27     -0.98      0.00
    1    5   27      0.00      0.00
    2    5   27      0.54      0.00
    3    5   27     -1.12      0.00
    4    5   27     -0.25      0.00
  -11    6   27     -0.37      0.00
  -10    6   27     -0.54      0.00
   -9    6   27      1.24      0.00
   -8    6   27     -0.46      0.00
    0    6   27     -2.12      0.00
    1    6   27     -0.73      0.00
    2    6   27      0.50      0.00
    3    6   27      0.88      0.00
  -10    7   27      0.06      0.00
   -9    7   27     -0.37      0.00
   -8    7   27      0.94      0.00
   -7    7   27      1.01      0.00
   -1    7   27      2.33      0.00
    0    7   27      0.16      0.00
    1    7   27     -0.51      0.00
    2    7   27     -1.11      0.00
  -10    8   27      1.33      0.00
   -9    8   27      0.46      0.00
   -8    8   27     -0.37      0.00
   -7    8   27     -0.53      0.00
   -6    8   27     -0.95      0.00
   -5    8   27      0.26      0.00
   -4    8   27      0.77      0.00
   -3    8   27     -0.08      0.00
   -2    8   27     -2.34      0.00
   -1    8   27     -2.14      0.00
    0    8   27     -0.69      0.00
    1    8   27      0.63      0.00
    2    8   27      0.83      0.00
   -9    9   27      1.39      0.00
   -8    9   27      0.49      0.00
   -7    9   27      1.08      0.00
   -6    9   27      0.34      0.00
   -5    9   27     -1.65      0.00
   -4    9   27      0.54      0.00
   -3    9   27      1.66      0.00
   -2    9   27      1.08      0.00
   -1    9   27      0.10      0.00
    0    9   27     -0.43      0.00
    1    9   27     -0.82      0.00
   -8   10   27      0.76      0.00
   -7   10   27     -0.70      0.00
   -6   10   27      0.40      0.00
   -5   10   27      0.52      0.00
   -4   10   27     -1.72      0.00
   -3   10   27     -1.10      0.00
   -2   10   27      0.32      0.00
   -1   10   27      0.01      0.00
   -6   11   27     -0.02      0.00
   -5   11   27     -0.15      0.00
   -4   11   27      0.65      0.00
   -3   11   27     -0.13      0.00
   -5  -10   28     -0.13      0.00
   -4  -10   28     -0.76      0.00
   -3  -10   28      1.48      0.00
   -2  -10   28      0.39      0.00
   -1  -10   28     -0.99      0.00
    0  -10   28      0.65      0.00
   -7   -9   28      0.30      0.00
   -6   -9   28     -0.65      0.00
   -5   -9   28      1.89      0.00
   -4   -9   28      0.33      0.00
   -3   -9   28     -1.87      0.00
   -2   -9   28      1.58      0.00
   -1   -9   28      0.87      0.00
    0   -9   28     -1.17      0.00
    1   -9   28      0.03      0.00
   -8   -8   28     -0.03      0.00
   -7   -8   28      1.30      0.00
   -6   -8   28      0.01      0.00
   -5   -8   28     -1.18      0.00
   -4   -8   28      2.82      0.00
   -3   -8   28      0.29      0.00
   -2   -8   28     -2.45      0.00
   -1   -8   28      0.44      0.00
    0   -8   28      0.41      0.00
    1   -8   28     -0.38      0.00
    2   -8   28     -0.21      0.00
   -9   -7   28      0.45      0.00
   -8   -7   28     -0.13      0.00
   -7   -7   28     -1.42      0.00
   -6   -7   28      2.27      0.00
   -5   -7   28     -1.53      0.00
   -4   -7   28     -0.93      0.00
   -3   -7   28      3.73      0.00
   -2   -7   28      0.08      0.00
   -1   -7   28     -1.38      0.00
    0   -7   28     -0.06      0.00
    1   -7   28     -0.19      0.00
    2   -7   28      0.33      0.00
    3   -7   28     -0.22      0.00
   -9   -6   28     -1.84      0.00
   -8   -6   28      1.82      0.00
   -7   -6   28      0.15      0.00
   -6   -6   28     -1.33      0.00
   -5   -6   28      2.84      0.00
   -1   -6   28     -0.64      0.00
    0   -6   28     -0.49      0.00
    1   -6   28     -0.65      0.00
    2   -6   28      0.13      0.00
    3   -6   28      0.77      0.00
  -10   -5   28      0.95      0.00
   -9   -5   28      0.52      0.00
   -8   -5   28     -2.56      0.00
   -7   -5   28      1.59      0.00
   -6   -5   28     -0.13      0.00
    0   -5   28     -1.02      0.00
    1   -5   28      0.08      0.00
    2   -5   28     -1.47      0.00
    3   -5   28      0.12      0.00
    4   -5   28      0.49      0.00
  -10   -4   28     -1.59      0.00
   -9   -4   28     -0.09      0.00
   -8   -4   28      0.86      0.00
   -7   -4   28     -0.63      0.00
    1   -4   28     -0.21      0.00
    2   -4   28      0.10      0.00
    3   -4   28     -1.26      0.00
    4   -4   28     -0.07      0.00
  -11   -3   28      0.50      0.00
  -10   -3   28     -0.38      0.00
   -9   -3   28     -0.99      0.00
   -8   -3   28     -1.62      0.00
    1   -3   28      0.18      0.00
    2   -3   28      0.69      0.00
    3   -3   28     -0.39      0.00
    4   -3   28     -0.59      0.00
  -11   -2   28      0.27      0.00
  -10   -2   28      0.28      0.00
   -9   -2   28     -0.42      0.00
   -8   -2   28      0.99      0.00
    1   -2   28     -0.69      0.00
    2   -2   28      0.27      0.00
    3   -2   28      1.23      0.00
    4   -2   28     -0.30      0.00
  -11   -1   28     -0.32      0.00
  -10   -1   28      0.57      0.00
   -9   -1   28     -1.03      0.00
    2   -1   28     -1.39      0.00
    3   -1   28     -0.15      0.00
    4   -1   28      0.58      0.00
  -11    0   28     -0.84      0.00
  -10    0   28     -0.59      0.00
   -9    0   28      1.06      0.00
    2    0   28      1.44      0.00
    3    0   28     -0.82      0.00
    4    0   28     -0.27      0.00
  -11    1   28      1.11      0.00
  -10    1   28     -0.44      0.00
   -9    1   28     -0.61      0.00
    1    1   28     -0.27      0.00
    2    1   28      0.55      0.00
    3    1   28      0.64      0.00
    4    1   28      0.10      0.00
  -11    2   28     -0.70      0.00
  -10    2   28      0.92      0.00
   -9    2   28      0.82      0.00
   -8    2   28      0.11      0.00
    1    2   28      0.42      0.00
    2    2   28     -0.60      0.00
    3    2   28      0.36      0.00
    4    2   28     -0.56      0.00
  -11    3   28      1.28      0.00
  -10    3   28     -1.21      0.00
   -9    3   28      0.42      0.00
   -8    3   28      1.56      0.00
    0    3   28     -1.80      0.00
    1    3   28      1.66      0.00
    2    3   28      1.06      0.00
    3    3   28      0.33      0.00
  -11    4   28     -0.05      0.00
  -10    4   28      1.28      0.00
   -9    4   28     -2.02      0.00
   -8    4   28     -0.69      0.00
    0    4   28      0.49      0.00
    1    4   28     -1.25      0.00
    2    4   28     -0.01      0.00
    3    4   28     -0.42      0.00
  -10    5   28      1.11      0.00
   -9    5   28      2.17      0.00
   -8    5   28     -0.45      0.00
   -7    5   28     -0.30      0.00
   -1    5   28     -1.51      0.00
    0    5   28     -0.47      0.00
    1    5   28     -0.02      0.00
    2    5   28      0.18      0.00
  -10    6   28     -0.89      0.00
   -9    6   28      0.28      0.00
   -8    6   28      0.96      0.00
   -7    6   28     -0.37      0.00
   -6    6   28     -1.15      0.00
   -5    6   28      0.72      0.00
   -4    6   28      0.30      0.00
   -3    6   28     -1.62      0.00
   -2    6   28     -0.74      0.00
   -1    6   28      0.93      0.00
    0    6   28     -0.37      0.00
    1    6   28     -0.31      0.00
    2    6   28     -0.26      0.00
   -9    7   28      0.07      0.00
   -8    7   28      0.45      0.00
   -7    7   28      0.61      0.00
   -6    7   28     -0.48      0.00
   -5    7   28     -0.23      0.00
   -4    7   28      0.98      0.00
   -3    7   28      1.09      0.00
   -2    7   28     -1.33      0.00
   -1    7   28     -0.63      0.00
    0    7   28      0.04      0.00
    1    7   28      0.74      0.00
   -9    8   28      0.58      0.00
   -8    8   28      0.01      0.00
   -7    8   28      0.75      0.00
   -6    8   28      0.59      0.00
   -5    8   28     -1.65      0.00
   -4    8   28     -0.79      0.00
   -3    8   28      0.20      0.00
   -2    8   28      0.34      0.00
   -1    8   28     -0.77      0.00
    0    8   28     -0.58      0.00
   -7    9   28     -0.67      0.00
   -6    9   28      0.72      0.00
   -5    9   28      1.16      0.00
   -4    9   28     -1.04      0.00
   -3    9   28     -0.67      0.00
   -2    9   28      0.50      0.00
   -1    9   28      0.45      0.00
   -5   10   28      0.01      0.00
   -4   10   28      0.51      0.00
   -4   -9   29      1.42      0.00
   -3   -9   29      0.91      0.00
   -2   -9   29     -0.88      0.00
   -6   -8   29      0.83      0.00
   -5   -8   29     -1.45      0.00
   -4   -8   29     -1.02      0.00
   -3   -8   29      1.31      0.00
   -2   -8   29      0.26      0.00
   -1   -8   29     -1.17      0.00
    0   -8   29     -0.83      0.00
   -7   -7   29      0.47      0.00
   -6   -7   29      0.41      0.00
   -5   -7   29      2.66      0.00
   -4   -7   29     -2.33      0.00
   -3   -7   29     -1.04      0.00
   -2   -7   29      2.15      0.00
   -1   -7   29      0.21      0.00
    0   -7   29     -0.11      0.00
    1   -7   29     -0.71      0.00
   -8   -6   29     -1.82      0.00
   -7   -6   29      1.48      0.00
   -6   -6   29     -0.27      0.00
   -5   -6   29      0.82      0.00
   -4   -6   29      3.83      0.00
   -3   -6   29     -2.73      0.00
   -2   -6   29     -2.00      0.00
   -1   -6   29      1.05      0.00
    0   -6   29     -0.28      0.00
    1   -6   29      0.25      0.00
    2   -6   29     -1.33      0.00
   -9   -5   29     -0.13      0.00
   -8   -5   29      0.60      0.00
   -7   -5   29     -1.12      0.00
   -6   -5   29      0.99      0.00
   -5   -5   29     -1.74      0.00
   -4   -5   29      0.06      0.00
   -3   -5   29      3.32      0.00
   -2   -5   29     -0.97      0.00
   -1   -5   29     -0.71      0.00
    0   -5   29     -0.35      0.00
    1   -5   29     -0.43      0.00
    2   -5   29      0.39      0.00
   -9   -4   29     -0.67      0.00
   -8   -4   29     -0.97      0.00
   -7   -4   29     -0.41      0.00
   -6   -4   29      0.39      0.00
   -5   -4   29      0.56      0.00
   -4   -4   29     -1.91      0.00
   -3   -4   29     -0.51      0.00
   -2   -4   29      0.69      0.00
   -1   -4   29     -0.62      0.00
    0   -4   29      1.08      0.00
    1   -4   29      0.00      0.00
    2   -4   29      0.24      0.00
    3   -4   29     -0.06      0.00
  -10   -3   29     -0.53      0.00
   -9   -3   29     -0.57      0.00
   -8   -3   29      0.56      0.00
   -7   -3   29     -0.89      0.00
   -6   -3   29     -1.28      0.00
   -5   -3   29      1.42      0.00
   -2   -3   29     -0.10      0.00
   -1   -3   29     -0.56      0.00
    0   -3   29     -1.59      0.00
    1   -3   29     -0.28      0.00
    2   -3   29      0.14      0.00
    3   -3   29      0.61      0.00
  -10   -2   29      0.58      0.00
   -9   -2   29     -0.86      0.00
   -8   -2   29     -1.23      0.00
   -7   -2   29      1.23      0.00
   -6   -2   29     -0.07      0.00
   -1   -2   29      1.64      0.00
    0   -2   29      1.59      0.00
    1   -2   29      0.34      0.00
    2   -2   29     -1.27      0.00
    3   -2   29      0.00      0.00
  -10   -1   29     -0.83      0.00
   -9   -1   29      0.90      0.00
   -8   -1   29     -1.46      0.00
   -7   -1   29     -1.64      0.00
   -6   -1   29     -0.07      0.00
   -1   -1   29     -1.98      0.00
    0   -1   29      0.00      0.00
    1   -1   29      1.18      0.00
    2   -1   29      1.23      0.00
    3   -1   29     -1.07      0.00
  -10    0   29     -1.00      0.00
   -9    0   29     -0.43      0.00
   -8    0   29      1.32      0.00
   -7    0   29     -0.68      0.00
   -6    0   29     -0.23      0.00
   -1    0   29      0.74      0.00
    0    0   29     -1.20      0.00
    1    0   29     -0.50      0.00
    2    0   29      0.59      0.00
    3    0   29      0.94      0.00
  -10    1   29      1.21      0.00
   -9    1   29     -0.50      0.00
   -8    1   29      0.04      0.00
   -7    1   29      0.78      0.00
   -6    1   29     -0.88      0.00
   -1    1   29      1.84      0.00
    0    1   29      2.12      0.00
    1    1   29     -0.08      0.00
    2    1   29     -0.74      0.00
    3    1   29     -0.11      0.00
  -10    2   29     -0.61      0.00
   -9    2   29      0.24      0.00
   -8    2   29     -0.13      0.00
   -7    2   29     -0.03      0.00
   -6    2   29      1.08      0.00
   -2    2   29     -0.37      0.00
   -1    2   29     -1.48      0.00
    0    2   29     -1.00      0.00
    1    2   29      1.60      0.00
    2    2   29      0.90      0.00
  -10    3   29      0.84      0.00
   -9    3   29     -0.57      0.00
   -8    3   29     -0.04      0.00
   -7    3   29      0.76      0.00
   -6    3   29     -0.47      0.00
   -5    3   29      0.67      0.00
   -4    3   29     -0.45      0.00
   -3    3   29      0.04      0.00
   -2    3   29     -0.18      0.00
   -1    3   29      0.64      0.00
    0    3   29      0.12      0.00
    1    3   29     -1.62      0.00
    2    3   29     -0.38      0.00
  -10    4   29      0.68      0.00
   -9    4   29      1.14      0.00
   -8    4   29     -0.63      0.00
   -7    4   29     -0.64      0.00
   -6    4   29      0.93      0.00
   -5    4   29     -0.19      0.00
   -4    4   29     -0.28      0.00
   -3    4   29     -0.71      0.00
   -2    4   29      0.88      0.00
   -1    4   29     -0.60      0.00
    0    4   29      0.40      0.00
    1    4   29      0.63      0.00
    2    4   29      0.12      0.00
   -9    5   29      1.07      0.00
   -8    5   29      1.54      0.00
   -7    5   29      0.30      0.00
   -6    5   29     -0.31      0.00
   -5    5   29      0.98      0.00
   -4    5   29      1.05      0.00
   -3    5   29     -0.70      0.00
   -2    5   29     -0.49      0.00
   -1    5   29      0.61      0.00
    0    5   29      0.19      0.00
    1    5   29      0.12      0.00
   -9    6   29     -0.79      0.00
   -8    6   29      0.03      0.00
   -7    6   29      0.28      0.00
   -6    6   29     -0.72      0.00
   -5    6   29     -1.27      0.00
   -4    6   29     -0.39      0.00
   -3    6   29      0.57      0.00
   -2    6   29     -1.34      0.00
   -1    6   29     -0.61      0.00
    0    6   29     -0.45      0.00
   -8    7   29      0.13      0.00
   -7    7   29      0.99      0.00
   -6    7   29      1.21      0.00
   -5    7   29     -0.23      0.00
   -4    7   29     -0.72      0.00
   -3    7   29     -0.15      0.00
   -2    7   29      0.56      0.00
   -1    7   29     -0.16      0.00
   -7    8   29     -0.83      0.00
   -6    8   29      0.54      0.00
   -5    8   29      0.85      0.00
   -4    8   29     -0.59      0.00
   -3    8   29     -1.21      0.00
   -2    8   29     -0.66      0.00
    0    0    0      0.00      0.00
# SQUEEZE RESULTS (Version = 230916)
# Note: Data are Listed for all Voids in the P1 Unit Cell
# i.e. Centre of Gravity, Solvent Accessible Volume,
# Recovered number of Electrons in the Void and
# Details about the Squeezed Material
loop_
  _platon_squeeze_void_nr
  _platon_squeeze_void_average_x
  _platon_squeeze_void_average_y
  _platon_squeeze_void_average_z
  _platon_squeeze_void_volume
  _platon_squeeze_void_count_electrons
  _platon_squeeze_void_content
   1  0.000  0.000  0.000        49         1 ' '
   2 -0.240  0.350  0.331       310        52 ' '
   3  0.000  0.500  0.000        39         6 ' '
   4  0.240  0.650  0.669       310        52 ' '
# Missing Reflections Below sin(th)/lambda = 0.25
loop_
  _platon_missing_refln_index_h
  _platon_missing_refln_index_k
  _platon_missing_refln_index_l
  _platon_missing_refln_theta
    1    0    0     1.592
    0   -1    1     1.483
   -3    1    1     4.687
    0    1    1     1.539
_platon_squeeze_void_probe_radius                  1.20
_platon_squeeze_details
)
TITL shelxt_a.res in P-1
CELL   13.2360   16.4710   24.4350     90.79    103.49     96.01
SPGR P-1
# Solvent Accessible Volume =       707
# Electrons Found in S.A.V. =       110
# Note: Atoms in Void as Cxxx and Qxxx all others
C101 0.717 0.407 0.346 !       1.82 eA-3
C102 0.629 0.268 0.303 !       1.75 eA-3
C103 0.722 0.391 0.365 !       1.62 eA-3
C104 0.780 0.252 0.314 !       1.59 eA-3
C105 0.616 0.290 0.284 !       1.53 eA-3
C106 0.598 0.315 0.271 !       1.51 eA-3
C107 0.701 0.440 0.301 !       1.37 eA-3
Q108 0.470 0.465 0.097 !       1.35 eA-3
C109 0.609 0.350 0.254 !       1.28 eA-3
C110 0.621 0.313 0.254 !       1.24 eA-3
Q111 0.451 0.527 0.061 !       1.16 eA-3
C112 0.816 0.275 0.366 !       1.15 eA-3
C113 0.793 0.419 0.333 !       1.13 eA-3
Q114 0.379 0.526 0.025 !       1.11 eA-3
C115 0.832 0.317 0.328 !       1.10 eA-3
C116 0.840 0.291 0.338 !       1.10 eA-3
C117 0.732 0.331 0.303 !       1.02 eA-3
C118 0.794 0.354 0.392 !       1.02 eA-3
C119 0.742 0.299 0.369 !       1.00 eA-3
Q120 0.986 0.423 0.162 !       0.99 eA-3
C121 0.659 0.356 0.305 !       0.98 eA-3
C122 0.827 0.322 0.389 !       0.97 eA-3
C123 0.870 0.374 0.375 !       0.96 eA-3
C124 0.688 0.325 0.335 !       0.95 eA-3
C125 0.784 0.296 0.289 !       0.95 eA-3
C126 0.779 0.347 0.355 !       0.93 eA-3
C127 0.872 0.311 0.366 !       0.92 eA-3
C128 0.745 0.372 0.321 !       0.92 eA-3
Q129 0.914 0.282 0.001 !       0.91 eA-3
Q130 0.939 0.376 0.239 !       0.90 eA-3
C131 0.751 0.340 0.269 !       0.85 eA-3
C132 0.767 0.307 0.237 !       0.85 eA-3
C133 0.764 0.438 0.366 !       0.85 eA-3
C134 0.830 0.378 0.334 !       0.84 eA-3
C135 0.832 0.418 0.361 !       0.84 eA-3
C136 0.885 0.343 0.340 !       0.83 eA-3
Q137 0.969 0.407 0.025 !       0.82 eA-3
C138 0.850 0.343 0.299 !       0.82 eA-3
C139 0.698 0.302 0.256 !       0.81 eA-3
C140 0.859 0.411 0.329 !       0.80 eA-3
C141 0.800 0.200 0.330 !       0.79 eA-3
C142 0.668 0.341 0.230 !       0.78 eA-3
Q143 0.657 0.245 0.354 !       0.78 eA-3
C144 0.737 0.327 0.242 !       0.77 eA-3
Q145 0.996 0.424 0.217 !       0.75 eA-3
C146 0.798 0.380 0.298 !       0.75 eA-3
C147 0.659 0.299 0.222 !       0.74 eA-3
C148 0.673 0.326 0.370 !       0.71 eA-3
Q149 0.874 0.284 0.047 !       0.70 eA-3
Q150 0.781 0.268 0.403 !       0.68 eA-3
C151 0.816 0.355 0.262 !       0.68 eA-3
C152 0.656 0.378 0.352 !       0.67 eA-3
Q153 0.960 0.373 0.048 !       0.66 eA-3
C154 0.734 0.219 0.364 !       0.65 eA-3
C155 0.768 0.463 0.499 !       0.65 eA-3
C156 0.625 0.304 0.328 !       0.65 eA-3
Q157 0.858 0.342-0.003 !       0.64 eA-3
Q158 0.890 0.445 0.437 !       0.62 eA-3
Q159 0.612 0.204 0.297 !       0.62 eA-3
C160 0.576 0.396 0.288 !       0.61 eA-3
Q161 0.600 0.237 0.334 !       0.60 eA-3
Q162 0.704 0.387 0.434 !       0.59 eA-3
C163 0.861 0.395 0.297 !       0.58 eA-3
Q164 1.002 0.360 0.052 !       0.58 eA-3
Q165 0.904 0.266 0.065 !       0.57 eA-3
Q166 0.592 0.310 0.205 !       0.57 eA-3
Q167 0.740 0.294 0.190 !       0.56 eA-3
Q168 0.247 0.657 0.298 !       0.56 eA-3
C169 0.651 0.518 0.405 !       0.56 eA-3
Q170 0.966 0.388 0.352 !       0.56 eA-3
C171 0.707 0.447 0.462 !       0.56 eA-3
Q172 0.889 0.188 0.347 !       0.56 eA-3
Q173 0.755 0.326 0.052 !       0.56 eA-3
C174 0.730 0.452 0.443 !       0.56 eA-3
Q175 0.623 0.249 0.202 !       0.55 eA-3
Q176 0.583 0.296 0.359 !       0.55 eA-3
C177 0.715 0.393 0.260 !       0.54 eA-3
Q178 0.827 0.432 0.407 !       0.54 eA-3
Q179 0.434 0.579 0.485 !       0.54 eA-3
Q180 0.230 0.706 0.285 !       0.54 eA-3
Q181 0.808 0.333 0.120 !       0.53 eA-3
Q182 0.784 0.796 0.146 !       0.53 eA-3
C183 0.061 0.961 0.033 !       0.53 eA-3
Q184 0.909 0.354 0.433 !       0.53 eA-3
Q185 0.589 0.531 0.394 !       0.53 eA-3
Q186 0.781 0.513 0.480 !       0.53 eA-3
Q187 1.005 0.588 0.012 !       0.52 eA-3
Q188 0.577 0.217 0.250 !       0.52 eA-3
C189 0.953 0.362 0.390 !       0.52 eA-3
Q190 0.593 0.174 0.291 !       0.52 eA-3
Q191 0.716 0.533 0.496 !       0.52 eA-3
Q192 0.761 0.532 0.430 !       0.51 eA-3
Q193 0.938 0.842 0.043 !       0.51 eA-3
Q194 0.712 0.405 0.478 !       0.51 eA-3
Q195 0.485 0.284 0.270 !       0.50 eA-3
Q196 0.219 0.554 0.459 !       0.50 eA-3
Q197 0.311 0.551 0.489 !       0.50 eA-3
)
;
_shelx_fab_checksum              54977
loop_
_space_group_symop_operation_xyz
'x, y, z'
'-x, -y, -z'
loop_
_atom_site_label
_atom_site_type_symbol
_atom_site_fract_x
_atom_site_fract_y
_atom_site_fract_z
_atom_site_U_iso_or_equiv
_atom_site_adp_type
_atom_site_occupancy
_atom_site_site_symmetry_order
_atom_site_calc_flag
_atom_site_refinement_flags_posn
_atom_site_refinement_flags_adp
_atom_site_refinement_flags_occupancy
_atom_site_disorder_assembly
_atom_site_disorder_group
Ni1 Ni 0.30132(5) 0.69045(4) 0.27714(3) 0.0540(2) Uani 1 1 d . U . . .
O1A O 0.0723(6) 0.3335(4) 0.2934(4) 0.171(3) Uani 1 1 d . U . . .
O2A O 0.2243(5) 0.3365(3) 0.2748(3) 0.122(2) Uani 1 1 d . U . . .
O3A O 1.0010(5) 1.0631(5) 0.4235(3) 0.174(3) Uani 1 1 d . U . . .
O4A O 0.7170(7) 1.1746(5) 0.1139(3) 0.176(3) Uani 1 1 d . U . . .
N1A N 0.2103(3) 0.5905(3) 0.27467(18) 0.0567(11) Uani 1 1 d . U . . .
N2A N 0.3895(3) 0.6586(2) 0.34485(17) 0.0527(11) Uani 1 1 d . U . . .
N3A N 0.3989(3) 0.7857(2) 0.27652(17) 0.0525(11) Uani 1 1 d . U . . .
N4A N 0.2090(3) 0.7255(3) 0.21207(18) 0.0590(12) Uani 1 1 d . U . . .
N5A N 0.1501(6) 0.3695(4) 0.2834(3) 0.109(2) Uani 1 1 d . U . . .
C1A C 0.1105(4) 0.5732(3) 0.2402(2) 0.0607(15) Uani 1 1 d . U . . .
C2A C 0.0752(5) 0.4891(4) 0.2448(3) 0.0772(18) Uani 1 1 d . U . . .
H2AA H 0.0101 0.4623 0.2273 0.093 Uiso 1 1 calc R U . . .
C3A C 0.1541(5) 0.4560(4) 0.2793(3) 0.0740(17) Uani 1 1 d . U . . .
C4A C 0.2358(4) 0.5187(3) 0.3006(2) 0.0598(15) Uani 1 1 d . U . . .
C5A C 0.3216(4) 0.5140(3) 0.3456(2) 0.0618(15) Uani 1 1 d . U . . .
C6A C 0.3889(4) 0.5832(3) 0.3683(2) 0.0573(14) Uani 1 1 d . U . . .
C7A C 0.4608(5) 0.5875(3) 0.4224(2) 0.0677(17) Uani 1 1 d . U . . .
H7AA H 0.4753 0.5444 0.4462 0.081 Uiso 1 1 calc R U . . .
C8A C 0.5023(5) 0.6640(3) 0.4321(2) 0.0663(17) Uani 1 1 d . U . . .
H8AA H 0.5501 0.6851 0.4646 0.080 Uiso 1 1 calc R U . . .
C9A C 0.4610(4) 0.7091(3) 0.3835(2) 0.0523(13) Uani 1 1 d . U . . .
C10A C 0.5006(4) 0.7870(3) 0.3747(2) 0.0530(13) Uani 1 1 d . U . . .
C11A C 0.4800(4) 0.8194(3) 0.3206(2) 0.0497(13) Uani 1 1 d . U . . .
C12A C 0.5429(4) 0.8846(3) 0.3012(2) 0.0519(13) Uani 1 1 d . U . . .
C13A C 0.5030(4) 0.8877(3) 0.2441(2) 0.0562(13) Uani 1 1 d . U . . .
C14A C 0.4090(4) 0.8299(3) 0.2296(2) 0.0555(13) Uani 1 1 d . U . . .
C15A C 0.3290(4) 0.8304(3) 0.1816(2) 0.0591(14) Uani 1 1 d . U . . .
C16A C 0.2320(5) 0.7864(4) 0.1778(2) 0.0640(15) Uani 1 1 d . U . . .
C17A C 0.1372(5) 0.8006(4) 0.1364(3) 0.0810(19) Uani 1 1 d . U . . .
H17A H 0.1318 0.8383 0.1082 0.097 Uiso 1 1 calc R U . . .
C18A C 0.0593(5) 0.7490(4) 0.1469(3) 0.084(2) Uani 1 1 d . U . . .
H18A H -0.0110 0.7467 0.1286 0.101 Uiso 1 1 calc R U . . .
C19A C 0.1034(5) 0.6983(4) 0.1911(3) 0.0690(16) Uani 1 1 d . U . . .
C20A C 0.0562(4) 0.6261(4) 0.2048(3) 0.0676(15) Uani 1 1 d . U . . .
C21A C 0.330(3) 0.4412(18) 0.3743(17) 0.0659(19) Uani 0.32(3) 1 d G U P A 1
C22A C 0.249(2) 0.4128(16) 0.3994(14) 0.075(3) Uani 0.32(3) 1 d G U P A 1
H22A H 0.1930 0.4428 0.3977 0.090 Uiso 0.32(3) 1 calc R U P A 1
C23A C 0.253(2) 0.3396(16) 0.4271(11) 0.085(3) Uani 0.32(3) 1 d G U P A 1
H23A H 0.1996 0.3206 0.4439 0.102 Uiso 0.32(3) 1 calc R U P A 1
C24A C 0.337(2) 0.2948(13) 0.4296(11) 0.082(3) Uani 0.32(3) 1 d G U P A 1
H24A H 0.3402 0.2458 0.4481 0.099 Uiso 0.32(3) 1 calc R U P A 1
C25A C 0.418(2) 0.3232(17) 0.4044(15) 0.088(3) Uani 0.32(3) 1 d G U P A 1
H25A H 0.4740 0.2932 0.4061 0.105 Uiso 0.32(3) 1 calc R U P A 1
C26A C 0.414(3) 0.396(2) 0.3767(17) 0.080(2) Uani 0.32(3) 1 d G U P A 1
H26A H 0.4674 0.4154 0.3599 0.096 Uiso 0.32(3) 1 calc R U P A 1
C21C C 0.3417(13) 0.4336(8) 0.3753(7) 0.0659(19) Uani 0.68(3) 1 d G U P A 2
C22C C 0.2749(11) 0.3959(8) 0.4059(6) 0.075(3) Uani 0.68(3) 1 d G U P A 2
H22B H 0.2163 0.4200 0.4097 0.090 Uiso 0.68(3) 1 calc R U P A 2
C23C C 0.2957(13) 0.3221(7) 0.4307(4) 0.085(3) Uani 0.68(3) 1 d G U P A 2
H23B H 0.2510 0.2968 0.4511 0.102 Uiso 0.68(3) 1 calc R U P A 2
C24C C 0.3832(13) 0.2861(6) 0.4249(5) 0.082(3) Uani 0.68(3) 1 d G U P A 2
H24B H 0.3971 0.2367 0.4415 0.099 Uiso 0.68(3) 1 calc R U P A 2
C25C C 0.4500(12) 0.3238(8) 0.3943(6) 0.088(3) Uani 0.68(3) 1 d G U P A 2
H25B H 0.5086 0.2997 0.3905 0.105 Uiso 0.68(3) 1 calc R U P A 2
C26C C 0.4292(13) 0.3976(9) 0.3695(8) 0.080(2) Uani 0.68(3) 1 d G U P A 2
H26B H 0.4739 0.4228 0.3491 0.096 Uiso 0.68(3) 1 calc R U P A 2
C27A C 0.5737(4) 0.8353(3) 0.4239(2) 0.0556(14) Uani 1 1 d . U . . .
C28A C 0.6787(4) 0.8267(3) 0.4387(2) 0.0643(15) Uani 1 1 d . U . . .
H28A H 0.7067 0.7920 0.4173 0.077 Uiso 1 1 calc R U . . .
C29A C 0.7426(5) 0.8690(4) 0.4849(3) 0.0744(17) Uani 1 1 d . U . . .
H29A H 0.8140 0.8643 0.4939 0.089 Uiso 1 1 calc R U . . .
C30A C 0.7011(6) 0.9183(4) 0.5179(3) 0.0794(18) Uani 1 1 d . U . . .
H30A H 0.7447 0.9479 0.5487 0.095 Uiso 1 1 calc R U . . .
C31A C 0.5956(6) 0.9238(4) 0.5055(3) 0.0804(18) Uani 1 1 d . U . . .
H31A H 0.5674 0.9550 0.5289 0.096 Uiso 1 1 calc R U . . .
C32A C 0.5305(5) 0.8829(3) 0.4578(2) 0.0666(16) Uani 1 1 d . U . . .
H32A H 0.4592 0.8874 0.4488 0.080 Uiso 1 1 calc R U . . .
C33A C 0.6378(5) 0.9332(3) 0.3326(2) 0.0575(14) Uani 1 1 d . U . . .
C34A C 0.7362(5) 0.9162(4) 0.3246(2) 0.0706(16) Uani 1 1 d . U . . .
H34A H 0.7405 0.8740 0.2999 0.085 Uiso 1 1 calc R U . . .
C35A C 0.8257(5) 0.9629(4) 0.3538(3) 0.0801(18) Uani 1 1 d . U . . .
H35A H 0.8904 0.9504 0.3495 0.096 Uiso 1 1 calc R U . . .
C36A C 0.8215(6) 1.0268(4) 0.3888(3) 0.0837(19) Uani 1 1 d . U . . .
C37A C 0.7254(5) 1.0474(4) 0.3938(3) 0.0781(18) Uani 1 1 d . U . . .
H37A H 0.7224 1.0929 0.4161 0.094 Uiso 1 1 calc R U . . .
C38A C 0.6347(5) 1.0019(3) 0.3666(2) 0.0670(16) Uani 1 1 d . U . . .
H38A H 0.5707 1.0165 0.3706 0.080 Uiso 1 1 calc R U . . .
C39A C 0.9137(7) 1.0748(7) 0.4214(4) 0.142(4) Uani 1 1 d . U . . .
H39A H 0.9035 1.1190 0.4429 0.170 Uiso 1 1 calc R U . . .
C40A C 0.5516(4) 0.9424(4) 0.2083(2) 0.0605(14) Uani 1 1 d . U . . .
C41A C 0.5689(5) 1.0263(4) 0.2205(3) 0.0712(16) Uani 1 1 d . U . . .
H41A H 0.5464 1.0476 0.2504 0.085 Uiso 1 1 calc R U . . .
C42A C 0.6194(6) 1.0788(4) 0.1886(3) 0.0851(19) Uani 1 1 d . U . . .
H42A H 0.6301 1.1347 0.1973 0.102 Uiso 1 1 calc R U . . .
C43A C 0.6530(5) 1.0484(5) 0.1449(3) 0.0828(18) Uani 1 1 d . U . . .
C44A C 0.6375(6) 0.9655(5) 0.1324(3) 0.089(2) Uani 1 1 d . U . . .
H44A H 0.6605 0.9448 0.1025 0.107 Uiso 1 1 calc R U . . .
C45A C 0.5886(5) 0.9135(4) 0.1637(3) 0.0743(17) Uani 1 1 d . U . . .
H45A H 0.5799 0.8577 0.1550 0.089 Uiso 1 1 calc R U . . .
C46A C 0.7098(7) 1.1036(6) 0.1104(4) 0.119(3) Uani 1 1 d . U . . .
H46A H 0.7409 1.0795 0.0849 0.143 Uiso 1 1 calc R U . . .
C47A C 0.3397(5) 0.8843(4) 0.1337(2) 0.0728(17) Uani 1 1 d . U . . .
C48A C 0.3321(5) 0.9667(4) 0.1369(3) 0.084(2) Uani 1 1 d . U . . .
H48A H 0.3196 0.9901 0.1692 0.100 Uiso 1 1 calc R U . . .
C49A C 0.3430(6) 1.0148(5) 0.0924(3) 0.107(2) Uani 1 1 d . U . . .
H49A H 0.3374 1.0705 0.0947 0.128 Uiso 1 1 calc R U . . .
C50A C 0.3619(7) 0.9808(5) 0.0449(3) 0.116(3) Uani 1 1 d . U . . .
H50A H 0.3695 1.0135 0.0151 0.139 Uiso 1 1 calc R U . . .
C51A C 0.3696(8) 0.9003(6) 0.0412(3) 0.130(3) Uani 1 1 d . U . . .
H51A H 0.3823 0.8778 0.0087 0.156 Uiso 1 1 calc R U . . .
C52A C 0.3591(7) 0.8511(5) 0.0846(3) 0.104(2) Uani 1 1 d . U . . .
H52A H 0.3648 0.7955 0.0815 0.125 Uiso 1 1 calc R U . . .
C53A C -0.0484(13) 0.595(2) 0.1680(9) 0.079(3) Uani 0.464(19) 1 d G U P B 1
C54A C -0.0636(14) 0.582(2) 0.1102(9) 0.090(3) Uani 0.464(19) 1 d G U P B 1
H54A H -0.0094 0.5971 0.0928 0.108 Uiso 0.464(19) 1 calc R U P B 1
C55A C -0.1599(15) 0.5471(16) 0.0784(8) 0.106(4) Uani 0.464(19) 1 d G U P B 1
H55A H -0.1700 0.5385 0.0397 0.127 Uiso 0.464(19) 1 calc R U P B 1
C56A C -0.2409(11) 0.5247(14) 0.1044(9) 0.094(4) Uani 0.464(19) 1 d G U P B 1
H56A H -0.3052 0.5012 0.0831 0.113 Uiso 0.464(19) 1 calc R U P B 1
C57A C -0.2257(12) 0.5375(14) 0.1623(9) 0.096(4) Uani 0.464(19) 1 d G U P B 1
H57A H -0.2799 0.5226 0.1797 0.115 Uiso 0.464(19) 1 calc R U P B 1
C58A C -0.1294(15) 0.5726(18) 0.1941(7) 0.085(3) Uani 0.464(19) 1 d G U P B 1
H58A H -0.1192 0.5812 0.2327 0.102 Uiso 0.464(19) 1 calc R U P B 1
C53C C -0.0569(11) 0.5959(18) 0.1790(8) 0.079(3) Uani 0.536(19) 1 d G U P B 2
C54C C -0.0914(12) 0.5818(16) 0.1211(8) 0.090(3) Uani 0.536(19) 1 d G U P B 2
H54B H -0.0476 0.5981 0.0976 0.108 Uiso 0.536(19) 1 calc R U P B 2
C55C C -0.1913(12) 0.5432(13) 0.0983(7) 0.106(4) Uani 0.536(19) 1 d G U P B 2
H55B H -0.2144 0.5338 0.0596 0.127 Uiso 0.536(19) 1 calc R U P B 2
C56C C -0.2567(9) 0.5189(11) 0.1334(8) 0.094(4) Uani 0.536(19) 1 d G U P B 2
H56B H -0.3236 0.4931 0.1182 0.113 Uiso 0.536(19) 1 calc R U P B 2
C57C C -0.2223(11) 0.5330(12) 0.1914(8) 0.096(4) Uani 0.536(19) 1 d G U P B 2
H57B H -0.2661 0.5167 0.2149 0.115 Uiso 0.536(19) 1 calc R U P B 2
C58C C -0.1224(12) 0.5715(16) 0.2141(7) 0.085(3) Uani 0.536(19) 1 d G U P B 2
H58B H -0.0993 0.5810 0.2529 0.102 Uiso 0.536(19) 1 calc R U P B 2
Ni2 Ni 1.23785(5) 0.23971(4) 0.82002(3) 0.0548(2) Uani 1 1 d . U . . .
O1B O 1.5380(5) 0.4205(4) 1.0430(2) 0.144(2) Uani 1 1 d . U . . .
O2B O 1.3720(5) 0.4234(3) 1.0317(2) 0.1235(19) Uani 1 1 d . U . . .
O3B O 0.5442(5) -0.1345(4) 0.6949(3) 0.146(2) Uani 1 1 d . U . . .
O4B O 0.6302(5) 0.2056(4) 0.4524(2) 0.142(2) Uani 1 1 d . U . . .
N1B N 1.3488(3) 0.2944(2) 0.87897(18) 0.0563(11) Uani 1 1 d . U . . .
N2B N 1.1890(3) 0.1764(2) 0.87487(18) 0.0555(11) Uani 1 1 d . U . . .
N3B N 1.1227(3) 0.1900(3) 0.76212(18) 0.0552(11) Uani 1 1 d . U . . .
N4B N 1.2916(4) 0.2985(3) 0.76433(18) 0.0593(12) Uani 1 1 d . U . . .
N5B N 1.4479(6) 0.4035(4) 1.0145(3) 0.1009(19) Uani 1 1 d . U . . .
C1B C 1.4324(4) 0.3465(3) 0.8714(2) 0.0567(13) Uani 1 1 d . U . . .
C2B C 1.4833(5) 0.3881(4) 0.9237(3) 0.0704(16) Uani 1 1 d . U . . .
H2BA H 1.5424 0.4261 0.9301 0.084 Uiso 1 1 calc R U . . .
C3B C 1.4302(5) 0.3624(3) 0.9619(2) 0.0638(15) Uani 1 1 d . U . . .
C4B C 1.3481(4) 0.3008(3) 0.9361(2) 0.0587(14) Uani 1 1 d . U . . .
C5B C 1.2910(5) 0.2482(3) 0.9633(2) 0.0624(15) Uani 1 1 d . U . . .
C6B C 1.2186(4) 0.1867(3) 0.9333(2) 0.0597(14) Uani 1 1 d . U . . .
C7B C 1.1733(5) 0.1185(4) 0.9593(3) 0.0736(17) Uani 1 1 d . U . . .
H7BA H 1.1795 0.1121 0.9976 0.088 Uiso 1 1 calc R U . . .
C8B C 1.1201(5) 0.0658(4) 0.9170(2) 0.0708(17) Uani 1 1 d . U . . .
H8BA H 1.0853 0.0149 0.9208 0.085 Uiso 1 1 calc R U . . .
C9B C 1.1273(4) 0.1028(3) 0.8653(2) 0.0583(14) Uani 1 1 d . U . . .
C10B C 1.0690(4) 0.0713(3) 0.8127(2) 0.0603(15) Uani 1 1 d . U . . .
C11B C 1.0583(4) 0.1191(3) 0.7651(2) 0.0566(14) Uani 1 1 d . U . . .
C12B C 0.9719(4) 0.1097(3) 0.7167(2) 0.0556(14) Uani 1 1 d . U . . .
C13B C 0.9819(4) 0.1759(3) 0.6840(2) 0.0574(14) Uani 1 1 d . U . . .
C14B C 1.0812(4) 0.2229(3) 0.7101(2) 0.0571(14) Uani 1 1 d . U . . .
C15B C 1.1366(5) 0.2775(3) 0.6841(2) 0.0623(14) Uani 1 1 d . U . . .
C16B C 1.2424(5) 0.3054(3) 0.7082(2) 0.0623(14) Uani 1 1 d . U . . .
C17B C 1.3136(5) 0.3450(4) 0.6790(3) 0.0714(17) Uani 1 1 d . U . . .
H17B H 1.2981 0.3569 0.6411 0.086 Uiso 1 1 calc R U . . .
C18B C 1.4062(5) 0.3622(4) 0.7151(3) 0.0696(16) Uani 1 1 d . U . . .
H18B H 1.4679 0.3856 0.7071 0.084 Uiso 1 1 calc R U . . .
C19B C 1.3906(4) 0.3370(3) 0.7691(2) 0.0590(14) Uani 1 1 d . U . . .
C20B C 1.4606(4) 0.3602(3) 0.8212(2) 0.0591(14) Uani 1 1 d . U . . .
C21B C 1.3216(12) 0.2486(15) 1.0261(3) 0.074(2) Uani 0.576(15) 1 d G U P C 1
C22B C 1.4242(12) 0.2368(13) 1.0515(4) 0.079(3) Uani 0.576(15) 1 d G U P C 1
H22C H 1.4706 0.2273 1.0294 0.095 Uiso 0.576(15) 1 calc R U P C 1
C23B C 1.4575(10) 0.2394(10) 1.1099(5) 0.092(3) Uani 0.576(15) 1 d G U P C 1
H23C H 1.5262 0.2315 1.1268 0.111 Uiso 0.576(15) 1 calc R U P C 1
C24B C 1.3882(12) 0.2537(9) 1.1429(3) 0.094(4) Uani 0.576(15) 1 d G U P C 1
H24C H 1.4105 0.2554 1.1819 0.113 Uiso 0.576(15) 1 calc R U P C 1
C25B C 1.2856(11) 0.2654(9) 1.1175(5) 0.099(4) Uani 0.576(15) 1 d G U P C 1
H25C H 1.2393 0.2750 1.1396 0.119 Uiso 0.576(15) 1 calc R U P C 1
C26B C 1.2523(11) 0.2629(12) 1.0591(5) 0.086(3) Uani 0.576(15) 1 d G U P C 1
H26C H 1.1836 0.2707 1.0421 0.103 Uiso 0.576(15) 1 calc R U P C 1
C21D C 1.3054(17) 0.253(2) 1.0248(5) 0.074(2) Uani 0.424(15) 1 d G U P C 2
C22D C 1.3965(15) 0.2338(18) 1.0609(7) 0.079(3) Uani 0.424(15) 1 d G U P C 2
H22D H 1.4512 0.2190 1.0463 0.095 Uiso 0.424(15) 1 calc R U P C 2
C23D C 1.4059(14) 0.2362(13) 1.1187(6) 0.092(3) Uani 0.424(15) 1 d G U P C 2
H23D H 1.4669 0.2230 1.1429 0.111 Uiso 0.424(15) 1 calc R U P C 2
C24D C 1.3241(16) 0.2583(12) 1.1405(5) 0.094(4) Uani 0.424(15) 1 d G U P C 2
H24D H 1.3304 0.2599 1.1792 0.113 Uiso 0.424(15) 1 calc R U P C 2
C25D C 1.2330(14) 0.2780(13) 1.1044(7) 0.099(4) Uani 0.424(15) 1 d G U P C 2
H25D H 1.1783 0.2928 1.1190 0.119 Uiso 0.424(15) 1 calc R U P C 2
C26D C 1.2236(15) 0.2756(18) 1.0465(6) 0.086(3) Uani 0.424(15) 1 d G U P C 2
H26D H 1.1626 0.2888 1.0224 0.103 Uiso 0.424(15) 1 calc R U P C 2
C27B C 1.0166(5) -0.0139(4) 0.8097(2) 0.0675(15) Uani 1 1 d . U . . .
C28B C 0.9281(5) -0.0319(4) 0.8288(3) 0.0762(17) Uani 1 1 d . U . . .
H28B H 0.8973 0.0098 0.8424 0.091 Uiso 1 1 calc R U . . .
C29B C 0.8840(7) -0.1115(5) 0.8280(3) 0.106(2) Uani 1 1 d . U . . .
H29B H 0.8232 -0.1237 0.8406 0.127 Uiso 1 1 calc R U . . .
C30B C 0.9313(7) -0.1734(5) 0.8083(3) 0.108(2) Uani 1 1 d . U . . .
H30B H 0.9013 -0.2272 0.8072 0.130 Uiso 1 1 calc R U . . .
C31B C 1.0207(7) -0.1561(4) 0.7906(3) 0.103(2) Uani 1 1 d . U . . .
H31B H 1.0525 -0.1982 0.7782 0.124 Uiso 1 1 calc R U . . .
C32B C 1.0650(5) -0.0754(4) 0.7912(3) 0.0801(18) Uani 1 1 d . U . . .
H32B H 1.1263 -0.0632 0.7791 0.096 Uiso 1 1 calc R U . . .
C33B C 0.8800(4) 0.0445(3) 0.7053(2) 0.0586(14) Uani 1 1 d . U . . .
C34B C 0.7847(5) 0.0637(4) 0.7132(2) 0.0677(16) Uani 1 1 d . U . . .
H34B H 0.7771 0.1168 0.7237 0.081 Uiso 1 1 calc R U . . .
C35B C 0.7015(5) 0.0037(4) 0.7055(3) 0.0738(17) Uani 1 1 d . U . . .
H35B H 0.6374 0.0165 0.7104 0.089 Uiso 1 1 calc R U . . .
C36B C 0.7128(5) -0.0745(4) 0.6906(2) 0.0705(16) Uani 1 1 d . U . . .
C37B C 0.8057(5) -0.0920(4) 0.6793(2) 0.0720(17) Uani 1 1 d . U . . .
H37B H 0.8117 -0.1444 0.6668 0.086 Uiso 1 1 calc R U . . .
C38B C 0.8887(5) -0.0337(3) 0.6862(2) 0.0624(15) Uani 1 1 d . U . . .
H38B H 0.9508 -0.0460 0.6782 0.075 Uiso 1 1 calc R U . . .
C39B C 0.6286(6) -0.1415(5) 0.6871(3) 0.104(3) Uani 1 1 d . U . . .
H39B H 0.6423 -0.1937 0.6781 0.125 Uiso 1 1 calc R U . . .
C40B C 0.9015(4) 0.1957(4) 0.6344(2) 0.0632(15) Uani 1 1 d . U . . .
C41B C 0.8585(4) 0.1365(3) 0.5913(2) 0.0646(16) Uani 1 1 d . U . . .
H41B H 0.8819 0.0850 0.5934 0.077 Uiso 1 1 calc R U . . .
C42B C 0.7829(5) 0.1537(4) 0.5463(3) 0.0737(17) Uani 1 1 d . U . . .
H42B H 0.7529 0.1137 0.5183 0.088 Uiso 1 1 calc R U . . .
C43B C 0.7502(5) 0.2331(4) 0.5423(3) 0.0743(17) Uani 1 1 d . U . . .
C44B C 0.7897(5) 0.2894(4) 0.5844(3) 0.084(2) Uani 1 1 d . U . . .
H44B H 0.7659 0.3407 0.5822 0.100 Uiso 1 1 calc R U . . .
C45B C 0.8651(5) 0.2719(4) 0.6309(2) 0.0726(17) Uani 1 1 d . U . . .
H45B H 0.8916 0.3112 0.6598 0.087 Uiso 1 1 calc R U . . .
C46B C 0.6707(7) 0.2530(6) 0.4924(3) 0.116(3) Uani 1 1 d . U . . .
H46B H 0.6499 0.3053 0.4913 0.139 Uiso 1 1 calc R U . . .
C47B C 1.0993(13) 0.3040(6) 0.6239(4) 0.072(2) Uani 0.73(3) 1 d G U P D 1
C48B C 1.0777(14) 0.2467(6) 0.5793(5) 0.076(2) Uani 0.73(3) 1 d G U P D 1
H48B H 1.0850 0.1920 0.5862 0.091 Uiso 0.73(3) 1 calc R U P D 1
C49B C 1.0451(13) 0.2711(8) 0.5244(4) 0.096(3) Uani 0.73(3) 1 d G U P D 1
H49B H 1.0307 0.2328 0.4945 0.115 Uiso 0.73(3) 1 calc R U P D 1
C50B C 1.0341(13) 0.3529(8) 0.5140(4) 0.118(4) Uani 0.73(3) 1 d G U P D 1
H50B H 1.0123 0.3693 0.4773 0.141 Uiso 0.73(3) 1 calc R U P D 1
C51B C 1.0557(13) 0.4102(6) 0.5587(6) 0.119(5) Uani 0.73(3) 1 d G U P D 1
H51B H 1.0484 0.4649 0.5518 0.142 Uiso 0.73(3) 1 calc R U P D 1
C52B C 1.0883(12) 0.3858(6) 0.6136(5) 0.092(4) Uani 0.73(3) 1 d G U P D 1
H52B H 1.1027 0.4241 0.6435 0.111 Uiso 0.73(3) 1 calc R U P D 1
C47D C 1.088(4) 0.3078(19) 0.6291(11) 0.072(2) Uani 0.27(3) 1 d G U P D 2
C48D C 1.081(4) 0.266(2) 0.5785(14) 0.076(2) Uani 0.27(3) 1 d G U P D 2
H48C H 1.1025 0.2135 0.5787 0.091 Uiso 0.27(3) 1 calc R U P D 2
C49D C 1.044(4) 0.301(3) 0.5276(11) 0.096(3) Uani 0.27(3) 1 d G U P D 2
H49C H 1.0397 0.2732 0.4938 0.115 Uiso 0.27(3) 1 calc R U P D 2
C50D C 1.012(3) 0.379(2) 0.5274(11) 0.118(4) Uani 0.27(3) 1 d G U P D 2
H50C H 0.9871 0.4033 0.4933 0.141 Uiso 0.27(3) 1 calc R U P D 2
C51D C 1.018(3) 0.4215(16) 0.5779(14) 0.119(5) Uani 0.27(3) 1 d G U P D 2
H51C H 0.9974 0.4736 0.5777 0.142 Uiso 0.27(3) 1 calc R U P D 2
C52D C 1.056(3) 0.3857(19) 0.6288(11) 0.092(4) Uani 0.27(3) 1 d G U P D 2
H52C H 1.0602 0.4139 0.6626 0.111 Uiso 0.27(3) 1 calc R U P D 2
C53B C 1.5605(5) 0.4119(4) 0.8234(3) 0.0679(15) Uani 1 1 d . U . . .
C54B C 1.5633(6) 0.4870(4) 0.7986(3) 0.087(2) Uani 1 1 d . U . . .
H54C H 1.5023 0.5032 0.7762 0.105 Uiso 1 1 calc R U . . .
C55B C 1.6557(7) 0.5379(5) 0.8067(4) 0.119(3) Uani 1 1 d . U . . .
H55C H 1.6568 0.5883 0.7899 0.143 Uiso 1 1 calc R U . . .
C56B C 1.7458(8) 0.5138(6) 0.8395(4) 0.121(3) Uani 1 1 d . U . . .
H56C H 1.8080 0.5483 0.8450 0.145 Uiso 1 1 calc R U . . .
C57B C 1.7454(6) 0.4419(6) 0.8636(3) 0.107(2) Uani 1 1 d . U . . .
H57C H 1.8067 0.4266 0.8862 0.129 Uiso 1 1 calc R U . . .
C58B C 1.6534(5) 0.3898(4) 0.8550(3) 0.089(2) Uani 1 1 d . U . . .
H58C H 1.6544 0.3388 0.8708 0.106 Uiso 1 1 calc R U . . .
Cl1 Cl -0.0326(6) 0.3553(4) 0.1015(3) 0.209(3) Uani 0.5 1 d . U P . .
Cl2 Cl -0.2203(7) 0.3323(4) 0.0140(3) 0.230(3) Uani 0.5 1 d . U P . .
Cl3 Cl -0.0761(6) 0.2089(5) 0.0305(3) 0.212(3) Uani 0.5 1 d . U P . .
C1S C -0.1291(15) 0.2850(12) 0.0594(7) 0.132(5) Uani 0.5 1 d . U P . .
H1SA H -0.1664 0.2577 0.0854 0.158 Uiso 0.5 1 calc R U P . .
loop_
_atom_site_aniso_label
_atom_site_aniso_U_11
_atom_site_aniso_U_22
_atom_site_aniso_U_33
_atom_site_aniso_U_23
_atom_site_aniso_U_13
_atom_site_aniso_U_12
Ni1 0.0503(4) 0.0451(4) 0.0561(4) -0.0073(3) -0.0089(3) 0.0081(3)
O1A 0.127(5) 0.106(5) 0.266(8) 0.005(5) 0.038(5) -0.031(4)
O2A 0.122(5) 0.079(3) 0.149(5) -0.012(3) 0.002(4) 0.016(3)
O3A 0.092(4) 0.253(8) 0.150(6) -0.061(5) 0.011(4) -0.053(5)
O4A 0.206(8) 0.151(6) 0.173(6) 0.075(5) 0.052(5) 0.009(6)
N1A 0.053(3) 0.050(2) 0.058(3) -0.013(2) -0.005(2) 0.006(2)
N2A 0.057(3) 0.041(2) 0.050(2) 0.0006(18) -0.0066(19) 0.0032(19)
N3A 0.053(3) 0.045(2) 0.050(2) -0.0043(18) -0.0074(19) 0.005(2)
N4A 0.054(3) 0.048(3) 0.065(3) -0.011(2) -0.009(2) 0.013(2)
N5A 0.092(5) 0.068(4) 0.144(6) -0.009(3) -0.008(4) -0.007(3)
C1A 0.047(3) 0.055(3) 0.069(3) -0.023(2) -0.006(2) 0.004(2)
C2A 0.064(4) 0.063(3) 0.091(4) -0.018(3) -0.002(3) -0.003(3)
C3A 0.067(4) 0.059(3) 0.085(4) -0.007(3) -0.002(3) 0.003(3)
C4A 0.055(3) 0.048(3) 0.067(3) -0.006(2) 0.001(2) 0.001(2)
C5A 0.063(3) 0.045(3) 0.067(3) -0.002(2) -0.003(3) 0.001(2)
C6A 0.056(3) 0.050(3) 0.059(3) -0.001(2) 0.000(2) 0.002(2)
C7A 0.072(4) 0.050(3) 0.065(3) 0.006(3) -0.012(3) -0.001(3)
C8A 0.073(4) 0.057(3) 0.053(3) 0.004(2) -0.011(3) -0.005(3)
C9A 0.054(3) 0.048(3) 0.046(3) 0.001(2) -0.004(2) 0.002(2)
C10A 0.057(3) 0.047(3) 0.045(3) -0.003(2) -0.008(2) 0.009(2)
C11A 0.053(3) 0.041(3) 0.049(3) -0.004(2) -0.004(2) 0.010(2)
C12A 0.055(3) 0.042(3) 0.052(3) 0.002(2) 0.000(2) 0.007(2)
C13A 0.059(3) 0.045(3) 0.058(3) -0.002(2) -0.003(2) 0.011(2)
C14A 0.064(3) 0.046(3) 0.049(3) -0.003(2) -0.003(2) 0.015(2)
C15A 0.065(3) 0.046(3) 0.056(3) -0.007(2) -0.009(2) 0.013(2)
C16A 0.068(3) 0.056(3) 0.056(3) -0.008(2) -0.014(2) 0.018(3)
C17A 0.081(4) 0.067(4) 0.075(4) -0.003(3) -0.027(3) 0.020(3)
C18A 0.068(4) 0.063(4) 0.100(4) -0.006(3) -0.028(3) 0.016(3)
C19A 0.057(3) 0.053(3) 0.082(4) -0.015(3) -0.016(3) 0.013(2)
C20A 0.053(3) 0.059(3) 0.079(4) -0.021(3) -0.010(2) 0.012(2)
C21A 0.073(5) 0.043(3) 0.064(3) -0.001(3) -0.016(3) -0.007(3)
C22A 0.082(7) 0.055(5) 0.079(5) 0.016(4) -0.002(5) 0.009(4)
C23A 0.098(9) 0.059(6) 0.082(5) 0.020(4) -0.010(6) 0.008(5)
C24A 0.098(9) 0.055(5) 0.076(5) 0.009(4) -0.019(6) 0.007(5)
C25A 0.100(8) 0.057(4) 0.091(7) 0.009(4) -0.009(5) 0.012(5)
C26A 0.082(5) 0.058(3) 0.088(6) 0.013(3) -0.004(4) 0.008(3)
C21C 0.073(5) 0.043(3) 0.064(3) -0.001(3) -0.016(3) -0.007(3)
C22C 0.082(7) 0.055(5) 0.079(5) 0.016(4) -0.002(5) 0.009(4)
C23C 0.098(9) 0.059(6) 0.082(5) 0.020(4) -0.010(6) 0.008(5)
C24C 0.098(9) 0.055(5) 0.076(5) 0.009(4) -0.019(6) 0.007(5)
C25C 0.100(8) 0.057(4) 0.091(7) 0.009(4) -0.009(5) 0.012(5)
C26C 0.082(5) 0.058(3) 0.088(6) 0.013(3) -0.004(4) 0.008(3)
C27A 0.066(3) 0.044(3) 0.047(3) 0.003(2) -0.005(2) 0.005(2)
C28A 0.063(3) 0.055(3) 0.062(3) -0.001(3) -0.006(3) -0.003(3)
C29A 0.068(4) 0.065(4) 0.071(4) 0.003(3) -0.014(3) -0.010(3)
C30A 0.096(4) 0.063(4) 0.060(4) 0.005(3) -0.013(3) -0.006(3)
C31A 0.110(5) 0.062(4) 0.061(4) -0.012(3) 0.009(3) 0.002(4)
C32A 0.081(4) 0.056(3) 0.052(3) -0.009(3) -0.003(3) 0.004(3)
C33A 0.071(3) 0.045(3) 0.050(3) 0.002(2) 0.002(2) 0.004(2)
C34A 0.069(3) 0.069(4) 0.068(4) -0.003(3) 0.006(3) 0.006(3)
C35A 0.064(4) 0.099(5) 0.070(4) -0.009(3) 0.010(3) -0.010(3)
C36A 0.076(4) 0.094(5) 0.072(4) -0.012(3) 0.012(3) -0.018(3)
C37A 0.089(4) 0.063(4) 0.072(4) -0.017(3) 0.009(3) -0.013(3)
C38A 0.079(4) 0.049(3) 0.066(4) -0.003(3) 0.006(3) 0.005(3)
C39A 0.092(5) 0.193(9) 0.122(7) -0.039(6) 0.020(5) -0.056(6)
C40A 0.061(4) 0.059(3) 0.056(3) 0.006(2) 0.000(3) 0.014(3)
C41A 0.079(4) 0.063(3) 0.065(4) 0.003(3) 0.003(3) 0.008(3)
C42A 0.097(5) 0.074(4) 0.077(4) 0.017(3) 0.008(3) 0.008(4)
C43A 0.085(5) 0.097(4) 0.063(4) 0.023(3) 0.004(3) 0.020(4)
C44A 0.098(5) 0.106(4) 0.068(4) 0.025(3) 0.018(4) 0.030(4)
C45A 0.079(4) 0.076(4) 0.070(4) 0.013(3) 0.012(3) 0.028(3)
C46A 0.117(6) 0.144(6) 0.093(5) 0.060(5) 0.014(4) 0.014(6)
C47A 0.081(4) 0.064(3) 0.055(3) 0.003(3) -0.021(3) 0.004(3)
C48A 0.095(5) 0.058(3) 0.081(4) 0.014(3) -0.016(3) 0.012(3)
C49A 0.130(6) 0.084(5) 0.089(5) 0.030(4) -0.012(4) 0.012(4)
C50A 0.157(8) 0.101(5) 0.070(4) 0.031(4) -0.011(4) 0.007(5)
C51A 0.202(9) 0.111(5) 0.068(4) 0.017(4) 0.011(5) 0.018(6)
C52A 0.159(7) 0.080(4) 0.060(4) 0.006(3) -0.002(4) 0.016(4)
C53A 0.053(3) 0.061(4) 0.107(6) -0.020(5) -0.016(3) 0.012(3)
C54A 0.055(7) 0.091(5) 0.104(6) -0.022(5) -0.023(4) 0.011(7)
C55A 0.062(7) 0.107(6) 0.127(8) -0.032(7) -0.021(5) 0.009(7)
C56A 0.056(5) 0.076(6) 0.130(10) -0.028(9) -0.020(6) 0.016(4)
C57A 0.064(4) 0.077(5) 0.128(10) -0.026(10) -0.016(6) 0.011(4)
C58A 0.063(4) 0.070(4) 0.107(8) -0.020(8) -0.011(5) 0.010(4)
C53C 0.053(3) 0.061(4) 0.107(6) -0.020(5) -0.016(3) 0.012(3)
C54C 0.055(7) 0.091(5) 0.104(6) -0.022(5) -0.023(4) 0.011(7)
C55C 0.062(7) 0.107(6) 0.127(8) -0.032(7) -0.021(5) 0.009(7)
C56C 0.056(5) 0.076(6) 0.130(10) -0.028(9) -0.020(6) 0.016(4)
C57C 0.064(4) 0.077(5) 0.128(10) -0.026(10) -0.016(6) 0.011(4)
C58C 0.063(4) 0.070(4) 0.107(8) -0.020(8) -0.011(5) 0.010(4)
Ni2 0.0556(5) 0.0447(4) 0.0563(5) -0.0016(3) -0.0013(3) 0.0040(3)
O1B 0.120(4) 0.163(6) 0.120(4) -0.032(4) -0.013(3) -0.016(4)
O2B 0.140(5) 0.104(4) 0.126(4) -0.024(3) 0.038(4) 0.003(4)
O3B 0.089(4) 0.122(5) 0.227(7) -0.044(4) 0.053(4) -0.013(4)
O4B 0.157(5) 0.170(5) 0.083(4) -0.011(3) -0.033(3) 0.081(4)
N1B 0.059(3) 0.042(2) 0.060(3) -0.0052(19) -0.002(2) 0.002(2)
N2B 0.052(3) 0.043(2) 0.063(3) -0.0022(19) -0.003(2) 0.001(2)
N3B 0.055(3) 0.044(2) 0.061(3) 0.0017(19) 0.001(2) 0.008(2)
N4B 0.061(3) 0.048(3) 0.062(3) -0.004(2) 0.005(2) 0.001(2)
N5B 0.109(5) 0.088(4) 0.096(4) -0.014(3) 0.012(3) -0.008(4)
C1B 0.052(3) 0.050(3) 0.063(3) -0.007(2) 0.004(2) 0.003(3)
C2B 0.064(4) 0.064(4) 0.071(3) -0.006(3) -0.002(3) -0.007(3)
C3B 0.069(4) 0.050(3) 0.062(3) -0.009(3) -0.001(3) -0.001(3)
C4B 0.064(3) 0.047(3) 0.054(3) -0.001(2) -0.005(2) -0.002(3)
C5B 0.071(4) 0.050(3) 0.058(3) 0.001(2) 0.002(2) -0.003(3)
C6B 0.061(3) 0.047(3) 0.064(3) 0.002(2) 0.002(2) 0.001(2)
C7B 0.081(4) 0.061(4) 0.067(3) 0.008(3) 0.000(3) -0.008(3)
C8B 0.074(4) 0.054(3) 0.070(3) 0.008(3) -0.006(3) -0.006(3)
C9B 0.056(3) 0.045(3) 0.064(3) 0.004(2) -0.005(2) 0.004(2)
C10B 0.058(3) 0.049(3) 0.064(3) 0.000(2) -0.002(2) 0.002(2)
C11B 0.059(3) 0.043(3) 0.059(3) -0.005(2) -0.005(2) 0.006(2)
C12B 0.053(3) 0.053(3) 0.055(3) -0.007(2) 0.000(2) 0.006(2)
C13B 0.055(3) 0.050(3) 0.060(3) -0.004(2) 0.000(2) 0.008(2)
C14B 0.062(3) 0.044(3) 0.058(3) 0.002(2) 0.000(2) 0.008(2)
C15B 0.069(3) 0.049(3) 0.061(3) 0.007(2) 0.001(2) 0.005(3)
C16B 0.072(3) 0.045(3) 0.064(3) 0.003(2) 0.006(2) 0.000(3)
C17B 0.079(4) 0.062(4) 0.067(4) 0.001(3) 0.012(3) -0.007(3)
C18B 0.068(4) 0.068(4) 0.071(3) -0.004(3) 0.020(3) -0.008(3)
C19B 0.057(3) 0.049(3) 0.069(3) -0.008(2) 0.014(2) 0.003(3)
C20B 0.056(3) 0.048(3) 0.071(3) -0.007(2) 0.011(2) 0.008(2)
C21B 0.096(6) 0.055(4) 0.062(3) 0.003(3) 0.006(3) -0.013(4)
C22B 0.100(7) 0.067(5) 0.060(4) 0.007(4) 0.004(3) -0.009(6)
C23B 0.121(9) 0.079(6) 0.062(4) 0.006(4) 0.005(4) -0.016(8)
C24B 0.127(9) 0.088(6) 0.055(4) 0.007(4) 0.008(6) -0.014(9)
C25B 0.127(9) 0.097(7) 0.062(5) 0.007(5) 0.010(5) -0.010(7)
C26B 0.107(7) 0.079(7) 0.062(5) 0.003(5) 0.011(4) -0.010(5)
C21D 0.096(6) 0.055(4) 0.062(3) 0.003(3) 0.006(3) -0.013(4)
C22D 0.100(7) 0.067(5) 0.060(4) 0.007(4) 0.004(3) -0.009(6)
C23D 0.121(9) 0.079(6) 0.062(4) 0.006(4) 0.005(4) -0.016(8)
C24D 0.127(9) 0.088(6) 0.055(4) 0.007(4) 0.008(6) -0.014(9)
C25D 0.127(9) 0.097(7) 0.062(5) 0.007(5) 0.010(5) -0.010(7)
C26D 0.107(7) 0.079(7) 0.062(5) 0.003(5) 0.011(4) -0.010(5)
C27B 0.067(4) 0.054(3) 0.068(4) 0.004(3) -0.008(3) -0.002(3)
C28B 0.075(4) 0.061(4) 0.083(4) -0.003(3) 0.007(3) -0.012(3)
C29B 0.108(6) 0.077(4) 0.120(6) 0.005(4) 0.016(4) -0.021(4)
C30B 0.115(6) 0.068(4) 0.123(6) 0.006(4) 0.004(5) -0.014(4)
C31B 0.117(6) 0.062(4) 0.114(6) -0.007(4) -0.003(4) 0.007(4)
C32B 0.075(4) 0.059(3) 0.092(5) -0.006(3) -0.006(3) 0.006(3)
C33B 0.055(3) 0.054(3) 0.057(3) -0.002(2) -0.006(2) 0.005(2)
C34B 0.063(3) 0.054(3) 0.080(4) -0.002(3) 0.004(3) 0.008(3)
C35B 0.061(4) 0.068(4) 0.089(4) -0.013(3) 0.011(3) 0.006(3)
C36B 0.068(4) 0.067(3) 0.068(4) -0.017(3) 0.002(3) 0.003(3)
C37B 0.077(4) 0.059(3) 0.074(4) -0.018(3) 0.010(3) 0.003(3)
C38B 0.059(3) 0.055(3) 0.067(4) -0.013(3) 0.000(3) 0.008(3)
C39B 0.085(5) 0.081(5) 0.143(7) -0.040(4) 0.033(5) -0.013(4)
C40B 0.057(3) 0.064(3) 0.064(3) 0.001(3) 0.004(3) 0.013(3)
C41B 0.064(4) 0.058(3) 0.064(3) -0.002(3) -0.002(3) 0.010(3)
C42B 0.068(4) 0.082(4) 0.064(4) -0.004(3) 0.001(3) 0.015(3)
C43B 0.068(4) 0.096(4) 0.060(3) 0.006(3) 0.008(3) 0.029(3)
C44B 0.098(5) 0.081(4) 0.071(4) 0.006(3) 0.006(3) 0.040(4)
C45B 0.088(4) 0.067(4) 0.061(3) 0.000(3) 0.008(3) 0.026(3)
C46B 0.127(6) 0.148(7) 0.071(4) 0.005(4) -0.004(4) 0.070(5)
C47B 0.072(5) 0.067(3) 0.063(3) 0.016(3) -0.007(3) -0.007(3)
C48B 0.077(5) 0.073(5) 0.061(3) 0.013(3) -0.008(3) -0.008(5)
C49B 0.118(6) 0.086(7) 0.065(4) 0.017(4) -0.008(4) -0.008(7)
C50B 0.167(10) 0.095(7) 0.074(6) 0.026(4) -0.006(5) 0.016(6)
C51B 0.179(13) 0.089(5) 0.075(6) 0.028(4) 0.001(6) 0.017(6)
C52B 0.120(10) 0.069(4) 0.079(6) 0.023(4) 0.006(5) 0.005(4)
C47D 0.072(5) 0.067(3) 0.063(3) 0.016(3) -0.007(3) -0.007(3)
C48D 0.077(5) 0.073(5) 0.061(3) 0.013(3) -0.008(3) -0.008(5)
C49D 0.118(6) 0.086(7) 0.065(4) 0.017(4) -0.008(4) -0.008(7)
C50D 0.167(10) 0.095(7) 0.074(6) 0.026(4) -0.006(5) 0.016(6)
C51D 0.179(13) 0.089(5) 0.075(6) 0.028(4) 0.001(6) 0.017(6)
C52D 0.120(10) 0.069(4) 0.079(6) 0.023(4) 0.006(5) 0.005(4)
C53B 0.060(3) 0.065(3) 0.080(4) -0.020(3) 0.025(3) -0.001(3)
C54B 0.095(5) 0.069(4) 0.094(5) -0.016(3) 0.024(4) -0.013(3)
C55B 0.124(6) 0.097(5) 0.132(7) -0.030(5) 0.046(5) -0.041(5)
C56B 0.104(6) 0.123(6) 0.132(7) -0.053(5) 0.046(5) -0.037(5)
C57B 0.074(4) 0.124(6) 0.118(6) -0.053(5) 0.026(4) -0.014(4)
C58B 0.064(4) 0.082(4) 0.113(5) -0.028(4) 0.012(3) 0.005(3)
Cl1 0.196(5) 0.150(4) 0.232(6) -0.023(4) -0.043(5) 0.012(4)
Cl2 0.232(6) 0.177(5) 0.219(6) -0.009(5) -0.072(5) 0.031(5)
Cl3 0.202(6) 0.227(6) 0.188(5) -0.044(5) 0.012(4) 0.020(5)
C1S 0.136(10) 0.142(10) 0.101(10) -0.001(8) 0.006(8) -0.009(8)
loop_
_atom_type_symbol
_atom_type_description
_atom_type_scat_dispersion_real
_atom_type_scat_dispersion_imag
_atom_type_scat_source
C C 0.0033 0.0016 'International Tables Vol C Tables 4.2.6.8 and 6.1.1.4'
H H 0.0000 0.0000 'International Tables Vol C Tables 4.2.6.8 and 6.1.1.4'
N N 0.0061 0.0033 'International Tables Vol C Tables 4.2.6.8 and 6.1.1.4'
O O 0.0106 0.0060 'International Tables Vol C Tables 4.2.6.8 and 6.1.1.4'
Ni Ni 0.3393 1.1124 'International Tables Vol C Tables 4.2.6.8 and 6.1.1.4'
Cl Cl 0.1484 0.1585 'International Tables Vol C Tables 4.2.6.8 and 6.1.1.4'
loop_
_geom_angle_atom_site_label_1
_geom_angle_atom_site_label_2
_geom_angle_atom_site_label_3
_geom_angle
N4A Ni1 N2A 176.7(2)
N4A Ni1 N3A 90.26(19)
N2A Ni1 N3A 89.88(17)
N4A Ni1 N1A 90.31(19)
N2A Ni1 N1A 89.81(18)
N3A Ni1 N1A 175.44(19)
C4A N1A C1A 106.5(4)
C4A N1A Ni1 127.0(4)
C1A N1A Ni1 125.9(4)
C9A N2A C6A 105.1(4)
C9A N2A Ni1 126.4(3)
C6A N2A Ni1 128.3(3)
C11A N3A C14A 105.7(4)
C11A N3A Ni1 127.8(4)
C14A N3A Ni1 126.2(3)
C16A N4A C19A 105.7(5)
C16A N4A Ni1 126.6(4)
C19A N4A Ni1 127.7(4)
O1A N5A O2A 124.5(8)
O1A N5A C3A 117.6(8)
O2A N5A C3A 117.8(7)
C20A C1A N1A 126.2(5)
C20A C1A C2A 124.9(5)
N1A C1A C2A 108.7(5)
C3A C2A C1A 107.2(5)
C3A C2A H2AA 126.4
C1A C2A H2AA 126.4
C2A C3A C4A 108.6(5)
C2A C3A N5A 120.1(6)
C4A C3A N5A 130.9(6)
N1A C4A C5A 124.0(5)
N1A C4A C3A 108.7(5)
C5A C4A C3A 126.8(5)
C6A C5A C4A 121.5(5)
C6A C5A C21A 119.1(19)
C4A C5A C21A 118.5(18)
C6A C5A C21C 116.8(8)
C4A C5A C21C 121.6(8)
N2A C6A C5A 125.3(5)
N2A C6A C7A 110.3(4)
C5A C6A C7A 124.1(5)
C8A C7A C6A 106.9(5)
C8A C7A H7AA 126.5
C6A C7A H7AA 126.5
C7A C8A C9A 108.0(5)
C7A C8A H8AA 126.0
C9A C8A H8AA 126.0
N2A C9A C10A 126.0(4)
N2A C9A C8A 109.6(4)
C10A C9A C8A 123.7(5)
C9A C10A C11A 121.3(4)
C9A C10A C27A 118.1(4)
C11A C10A C27A 120.5(5)
N3A C11A C10A 122.8(5)
N3A C11A C12A 110.7(4)
C10A C11A C12A 126.3(4)
C13A C12A C11A 106.5(4)
C13A C12A C33A 124.4(5)
C11A C12A C33A 128.7(5)
C12A C13A C14A 107.1(5)
C12A C13A C40A 122.8(5)
C14A C13A C40A 130.1(5)
C15A C14A N3A 123.2(5)
C15A C14A C13A 125.7(5)
N3A C14A C13A 109.6(4)
C14A C15A C16A 121.2(5)
C14A C15A C47A 121.6(5)
C16A C15A C47A 116.9(5)
N4A C16A C15A 126.5(5)
N4A C16A C17A 109.5(6)
C15A C16A C17A 123.9(6)
C18A C17A C16A 106.9(6)
C18A C17A H17A 126.6
C16A C17A H17A 126.6
C17A C18A C19A 107.9(6)
C17A C18A H18A 126.1
C19A C18A H18A 126.0
C20A C19A N4A 123.7(5)
C20A C19A C18A 125.8(5)
N4A C19A C18A 109.6(6)
C19A C20A C1A 122.1(5)
C19A C20A C53A 117.1(13)
C1A C20A C53A 118.7(15)
C19A C20A C53C 122.6(12)
C1A C20A C53C 115.1(12)
C22A C21A C26A 120.0
C22A C21A C5A 118(2)
C26A C21A C5A 122(2)
C23A C22A C21A 120.0
C23A C22A H22A 120.0
C21A C22A H22A 120.0
C22A C23A C24A 120.0
C22A C23A H23A 120.0
C24A C23A H23A 120.0
C23A C24A C25A 120.0
C23A C24A H24A 120.0
C25A C24A H24A 120.0
C26A C25A C24A 120.0
C26A C25A H25A 120.0
C24A C25A H25A 120.0
C25A C26A C21A 120.0
C25A C26A H26A 120.0
C21A C26A H26A 120.0
C22C C21C C26C 120.0
C22C C21C C5A 122.5(8)
C26C C21C C5A 117.5(8)
C21C C22C C23C 120.0
C21C C22C H22B 120.0
C23C C22C H22B 120.0
C24C C23C C22C 120.0
C24C C23C H23B 120.0
C22C C23C H23B 120.0
C23C C24C C25C 120.0
C23C C24C H24B 120.0
C25C C24C H24B 120.0
C26C C25C C24C 120.0
C26C C25C H25B 120.0
C24C C25C H25B 120.0
C25C C26C C21C 120.0
C25C C26C H26B 120.0
C21C C26C H26B 120.0
C28A C27A C32A 119.9(5)
C28A C27A C10A 121.7(5)
C32A C27A C10A 118.1(5)
C29A C28A C27A 120.5(6)
C29A C28A H28A 119.8
C27A C28A H28A 119.8
C28A C29A C30A 120.0(6)
C28A C29A H29A 120.0
C30A C29A H29A 120.0
C31A C30A C29A 120.1(6)
C31A C30A H30A 119.9
C29A C30A H30A 119.9
C30A C31A C32A 120.3(6)
C30A C31A H31A 119.9
C32A C31A H31A 119.9
C27A C32A C31A 119.1(6)
C27A C32A H32A 120.5
C31A C32A H32A 120.5
C38A C33A C34A 118.0(5)
C38A C33A C12A 122.1(6)
C34A C33A C12A 119.6(5)
C35A C34A C33A 119.5(6)
C35A C34A H34A 120.3
C33A C34A H34A 120.3
C36A C35A C34A 121.5(7)
C36A C35A H35A 119.3
C34A C35A H35A 119.3
C35A C36A C37A 119.5(6)
C35A C36A C39A 122.8(8)
C37A C36A C39A 117.7(7)
C38A C37A C36A 121.0(6)
C38A C37A H37A 119.5
C36A C37A H37A 119.5
C37A C38A C33A 120.2(6)
C37A C38A H38A 119.9
C33A C38A H38A 119.9
O3A C39A C36A 125.9(11)
O3A C39A H39A 117.1
C36A C39A H39A 117.1
C45A C40A C41A 117.0(6)
C45A C40A C13A 122.5(5)
C41A C40A C13A 120.3(6)
C40A C41A C42A 121.2(6)
C40A C41A H41A 119.4
C42A C41A H41A 119.4
C43A C42A C41A 120.0(7)
C43A C42A H42A 120.0
C41A C42A H42A 120.0
C42A C43A C44A 119.7(7)
C42A C43A C46A 121.1(8)
C44A C43A C46A 119.1(8)
C45A C44A C43A 120.6(7)
C45A C44A H44A 119.7
C43A C44A H44A 119.7
C44A C45A C40A 121.4(6)
C44A C45A H45A 119.3
C40A C45A H45A 119.3
O4A C46A C43A 123.9(11)
O4A C46A H46A 118.1
C43A C46A H46A 118.1
C48A C47A C52A 118.3(6)
C48A C47A C15A 121.5(6)
C52A C47A C15A 120.1(6)
C47A C48A C49A 120.3(7)
C47A C48A H48A 119.8
C49A C48A H48A 119.8
C50A C49A C48A 120.1(8)
C50A C49A H49A 119.9
C48A C49A H49A 119.9
C51A C50A C49A 120.3(8)
C51A C50A H50A 119.9
C49A C50A H50A 119.9
C50A C51A C52A 120.9(9)
C50A C51A H51A 119.6
C52A C51A H51A 119.6
C51A C52A C47A 120.1(7)
C51A C52A H52A 120.0
C47A C52A H52A 120.0
C54A C53A C58A 120.0
C54A C53A C20A 122.0(13)
C58A C53A C20A 117.8(13)
C55A C54A C53A 120.0
C55A C54A H54A 120.0
C53A C54A H54A 120.0
C56A C55A C54A 120.0
C56A C55A H55A 120.0
C54A C55A H55A 120.0
C55A C56A C57A 120.0
C55A C56A H56A 120.0
C57A C56A H56A 120.0
C58A C57A C56A 120.0
C58A C57A H57A 120.0
C56A C57A H57A 120.0
C57A C58A C53A 120.0
C57A C58A H58A 120.0
C53A C58A H58A 120.0
C54C C53C C58C 120.0
C54C C53C C20A 120.3(11)
C58C C53C C20A 119.1(11)
C55C C54C C53C 120.0
C55C C54C H54B 120.0
C53C C54C H54B 120.0
C56C C55C C54C 120.0
C56C C55C H55B 120.0
C54C C55C H55B 120.0
C55C C56C C57C 120.0
C55C C56C H56B 120.0
C57C C56C H56B 120.0
C58C C57C C56C 120.0
C58C C57C H57B 120.0
C56C C57C H57B 120.0
C57C C58C C53C 120.0
C57C C58C H58B 120.0
C53C C58C H58B 120.0
N2B Ni2 N4B 176.73(19)
N2B Ni2 N3B 90.31(18)
N4B Ni2 N3B 89.74(19)
N2B Ni2 N1B 89.60(18)
N4B Ni2 N1B 90.53(19)
N3B Ni2 N1B 176.76(19)
C1B N1B C4B 107.1(4)
C1B N1B Ni2 126.1(4)
C4B N1B Ni2 125.7(4)
C9B N2B C6B 104.4(4)
C9B N2B Ni2 126.4(4)
C6B N2B Ni2 128.5(4)
C11B N3B C14B 106.2(4)
C11B N3B Ni2 127.3(3)
C14B N3B Ni2 126.2(4)
C19B N4B C16B 104.1(5)
C19B N4B Ni2 128.1(4)
C16B N4B Ni2 127.6(4)
O1B N5B O2B 120.7(7)
O1B N5B C3B 119.9(8)
O2B N5B C3B 119.4(7)
C20B C1B N1B 126.3(5)
C20B C1B C2B 124.6(5)
N1B C1B C2B 109.0(5)
C3B C2B C1B 107.4(5)
C3B C2B H2BA 126.3
C1B C2B H2BA 126.3
C2B C3B N5B 121.0(6)
C2B C3B C4B 109.0(5)
N5B C3B C4B 129.1(6)
C5B C4B N1B 125.5(5)
C5B C4B C3B 126.4(5)
N1B C4B C3B 107.3(5)
C4B C5B C6B 120.5(5)
C4B C5B C21D 121.6(13)
C6B C5B C21D 117.8(14)
C4B C5B C21B 118.4(10)
C6B C5B C21B 120.2(10)
C5B C6B N2B 125.7(5)
C5B C6B C7B 123.5(5)
N2B C6B C7B 110.4(5)
C8B C7B C6B 106.6(5)
C8B C7B H7BA 126.7
C6B C7B H7BA 126.7
C7B C8B C9B 107.2(5)
C7B C8B H8BA 126.4
C9B C8B H8BA 126.4
N2B C9B C10B 125.2(5)
N2B C9B C8B 111.3(5)
C10B C9B C8B 123.1(5)
C9B C10B C11B 120.9(5)
C9B C10B C27B 117.4(5)
C11B C10B C27B 121.7(5)
N3B C11B C10B 123.8(5)
N3B C11B C12B 110.0(5)
C10B C11B C12B 125.6(5)
C13B C12B C11B 107.7(5)
C13B C12B C33B 124.8(5)
C11B C12B C33B 127.2(5)
C12B C13B C14B 106.7(5)
C12B C13B C40B 124.9(5)
C14B C13B C40B 128.4(5)
C15B C14B N3B 123.8(5)
C15B C14B C13B 125.9(5)
N3B C14B C13B 108.9(5)
C14B C15B C16B 121.5(5)
C14B C15B C47D 120.2(18)
C16B C15B C47D 118.3(18)
C14B C15B C47B 124.7(7)
C16B C15B C47B 113.2(8)
N4B C16B C15B 124.5(5)
N4B C16B C17B 110.1(5)
C15B C16B C17B 125.4(5)
C18B C17B C16B 108.7(6)
C18B C17B H17B 125.7
C16B C17B H17B 125.7
C17B C18B C19B 105.6(5)
C17B C18B H18B 127.2
C19B C18B H18B 127.2
N4B C19B C20B 123.3(5)
N4B C19B C18B 111.3(5)
C20B C19B C18B 124.6(5)
C1B C20B C19B 121.3(5)
C1B C20B C53B 117.4(5)
C19B C20B C53B 120.5(5)
C22B C21B C26B 120.0
C22B C21B C5B 117.8(9)
C26B C21B C5B 122.2(9)
C23B C22B C21B 120.0
C23B C22B H22C 120.0
C21B C22B H22C 120.0
C24B C23B C22B 120.0
C24B C23B H23C 120.0
C22B C23B H23C 120.0
C23B C24B C25B 120.0
C23B C24B H24C 120.0
C25B C24B H24C 120.0
C24B C25B C26B 120.0
C24B C25B H25C 120.0
C26B C25B H25C 120.0
C25B C26B C21B 120.0
C25B C26B H26C 120.0
C21B C26B H26C 120.0
C22D C21D C26D 120.0
C22D C21D C5B 121.4(13)
C26D C21D C5B 118.5(13)
C21D C22D C23D 120.0
C21D C22D H22D 120.0
C23D C22D H22D 120.0
C24D C23D C22D 120.0
C24D C23D H23D 120.0
C22D C23D H23D 120.0
C25D C24D C23D 120.0
C25D C24D H24D 120.0
C23D C24D H24D 120.0
C24D C25D C26D 120.0
C24D C25D H25D 120.0
C26D C25D H25D 120.0
C25D C26D C21D 120.0
C25D C26D H26D 120.0
C21D C26D H26D 120.0
C28B C27B C32B 120.4(6)
C28B C27B C10B 121.6(6)
C32B C27B C10B 117.8(6)
C27B C28B C29B 120.4(7)
C27B C28B H28B 119.8
C29B C28B H28B 119.8
C28B C29B C30B 119.3(8)
C28B C29B H29B 120.4
C30B C29B H29B 120.4
C31B C30B C29B 120.7(8)
C31B C30B H30B 119.7
C29B C30B H30B 119.7
C30B C31B C32B 120.0(8)
C30B C31B H31B 120.0
C32B C31B H31B 120.0
C27B C32B C31B 119.2(7)
C27B C32B H32B 120.4
C31B C32B H32B 120.4
C34B C33B C38B 119.8(5)
C34B C33B C12B 119.1(5)
C38B C33B C12B 121.2(6)
C35B C34B C33B 119.6(5)
C35B C34B H34B 120.2
C33B C34B H34B 120.2
C36B C35B C34B 120.3(6)
C36B C35B H35B 119.8
C34B C35B H35B 119.8
C35B C36B C37B 119.7(6)
C35B C36B C39B 121.7(7)
C37B C36B C39B 118.6(6)
C38B C37B C36B 121.0(6)
C38B C37B H37B 119.5
C36B C37B H37B 119.5
C37B C38B C33B 119.4(6)
C37B C38B H38B 120.3
C33B C38B H38B 120.3
O3B C39B C36B 125.3(7)
O3B C39B H39B 117.3
C36B C39B H39B 117.3
C45B C40B C41B 119.1(5)
C45B C40B C13B 120.7(5)
C41B C40B C13B 120.1(5)
C42B C41B C40B 120.4(6)
C42B C41B H41B 119.8
C40B C41B H41B 119.8
C41B C42B C43B 119.5(6)
C41B C42B H42B 120.3
C43B C42B H42B 120.3
C44B C43B C42B 120.0(6)
C44B C43B C46B 120.4(7)
C42B C43B C46B 119.6(6)
C43B C44B C45B 120.8(6)
C43B C44B H44B 119.6
C45B C44B H44B 119.6
C44B C45B C40B 120.1(6)
C44B C45B H45B 120.0
C40B C45B H45B 120.0
O4B C46B C43B 124.8(8)
O4B C46B H46B 117.6
C43B C46B H46B 117.6
C48B C47B C52B 120.0
C48B C47B C15B 120.0(7)
C52B C47B C15B 119.9(7)
C49B C48B C47B 120.0
C49B C48B H48B 120.0
C47B C48B H48B 120.0
C48B C49B C50B 120.0
C48B C49B H49B 120.0
C50B C49B H49B 120.0
C51B C50B C49B 120.0
C51B C50B H50B 120.0
C49B C50B H50B 120.0
C50B C51B C52B 120.0
C50B C51B H51B 120.0
C52B C51B H51B 120.0
C51B C52B C47B 120.0
C51B C52B H52B 120.0
C47B C52B H52B 120.0
C48D C47D C52D 120.0
C48D C47D C15B 123(2)
C52D C47D C15B 117(2)
C49D C48D C47D 120.0
C49D C48D H48C 120.0
C47D C48D H48C 120.0
C50D C49D C48D 120.0
C50D C49D H49C 120.0
C48D C49D H49C 120.0
C49D C50D C51D 120.0
C49D C50D H50C 120.0
C51D C50D H50C 120.0
C52D C51D C50D 120.0
C52D C51D H51C 120.0
C50D C51D H51C 120.0
C51D C52D C47D 120.0
C51D C52D H52C 120.0
C47D C52D H52C 120.0
C58B C53B C54B 117.5(6)
C58B C53B C20B 120.4(6)
C54B C53B C20B 121.9(6)
C55B C54B C53B 120.7(8)
C55B C54B H54C 119.7
C53B C54B H54C 119.7
C56B C55B C54B 119.7(9)
C56B C55B H55C 120.2
C54B C55B H55C 120.2
C57B C56B C55B 120.8(9)
C57B C56B H56C 119.6
C55B C56B H56C 119.6
C56B C57B C58B 119.9(9)
C56B C57B H57C 120.0
C58B C57B H57C 120.0
C53B C58B C57B 121.4(8)
C53B C58B H58C 119.3
C57B C58B H58C 119.3
Cl2 C1S Cl3 116.1(10)
Cl2 C1S Cl1 111.8(11)
Cl3 C1S Cl1 112.0(11)
Cl2 C1S H1SA 105.3
Cl3 C1S H1SA 105.3
Cl1 C1S H1SA 105.3
loop_
_geom_bond_atom_site_label_1
_geom_bond_atom_site_label_2
_geom_bond_distance
Ni1 N4A 1.902(4)
Ni1 N2A 1.904(4)
Ni1 N3A 1.927(4)
Ni1 N1A 1.927(4)
O1A N5A 1.211(8)
O2A N5A 1.228(8)
O3A C39A 1.181(11)
O4A C46A 1.164(10)
N1A C4A 1.386(7)
N1A C1A 1.390(6)
N2A C9A 1.370(6)
N2A C6A 1.375(6)
N3A C11A 1.392(6)
N3A C14A 1.392(6)
N4A C16A 1.371(7)
N4A C19A 1.395(7)
N5A C3A 1.425(9)
C1A C20A 1.373(8)
C1A C2A 1.429(8)
C2A C3A 1.348(8)
C2A H2AA 0.9300
C3A C4A 1.413(7)
C4A C5A 1.394(7)
C5A C6A 1.393(7)
C5A C21A 1.397(17)
C5A C21C 1.536(10)
C6A C7A 1.434(7)
C7A C8A 1.316(7)
C7A H7AA 0.9300
C8A C9A 1.438(7)
C8A H8AA 0.9300
C9A C10A 1.374(7)
C10A C11A 1.411(7)
C10A C27A 1.512(7)
C11A C12A 1.443(7)
C12A C13A 1.376(7)
C12A C33A 1.459(7)
C13A C14A 1.454(7)
C13A C40A 1.467(8)
C14A C15A 1.386(7)
C15A C16A 1.390(8)
C15A C47A 1.502(8)
C16A C17A 1.458(8)
C17A C18A 1.340(9)
C17A H17A 0.9300
C18A C19A 1.427(8)
C18A H18A 0.9300
C19A C20A 1.367(8)
C20A C53A 1.499(13)
C20A C53C 1.511(12)
C21A C22A 1.3900
C21A C26A 1.3900
C22A C23A 1.3900
C22A H22A 0.9300
C23A C24A 1.3900
C23A H23A 0.9300
C24A C25A 1.3900
C24A H24A 0.9300
C25A C26A 1.3900
C25A H25A 0.9300
C26A H26A 0.9300
C21C C22C 1.3900
C21C C26C 1.3900
C22C C23C 1.3900
C22C H22B 0.9300
C23C C24C 1.3900
C23C H23B 0.9300
C24C C25C 1.3900
C24C H24B 0.9300
C25C C26C 1.3900
C25C H25B 0.9300
C26C H26B 0.9300
C27A C28A 1.376(8)
C27A C32A 1.386(8)
C28A C29A 1.371(7)
C28A H28A 0.9300
C29A C30A 1.376(9)
C29A H29A 0.9300
C30A C31A 1.371(9)
C30A H30A 0.9300
C31A C32A 1.393(7)
C31A H31A 0.9300
C32A H32A 0.9300
C33A C38A 1.405(7)
C33A C34A 1.416(8)
C34A C35A 1.379(8)
C34A H34A 0.9300
C35A C36A 1.359(9)
C35A H35A 0.9300
C36A C37A 1.382(9)
C36A C39A 1.442(10)
C37A C38A 1.369(8)
C37A H37A 0.9300
C38A H38A 0.9300
C39A H39A 0.9300
C40A C45A 1.392(8)
C40A C41A 1.393(8)
C41A C42A 1.394(9)
C41A H41A 0.9300
C42A C43A 1.358(9)
C42A H42A 0.9300
C43A C44A 1.378(9)
C43A C46A 1.507(11)
C44A C45A 1.368(9)
C44A H44A 0.9300
C45A H45A 0.9300
C46A H46A 0.9300
C47A C48A 1.373(8)
C47A C52A 1.400(9)
C48A C49A 1.381(9)
C48A H48A 0.9300
C49A C50A 1.367(11)
C49A H49A 0.9300
C50A C51A 1.343(11)
C50A H50A 0.9300
C51A C52A 1.368(10)
C51A H51A 0.9300
C52A H52A 0.9300
C53A C54A 1.3900
C53A C58A 1.3900
C54A C55A 1.3900
C54A H54A 0.9300
C55A C56A 1.3900
C55A H55A 0.9300
C56A C57A 1.3900
C56A H56A 0.9300
C57A C58A 1.3900
C57A H57A 0.9300
C58A H58A 0.9300
C53C C54C 1.3900
C53C C58C 1.3900
C54C C55C 1.3900
C54C H54B 0.9300
C55C C56C 1.3900
C55C H55B 0.9300
C56C C57C 1.3900
C56C H56B 0.9300
C57C C58C 1.3900
C57C H57B 0.9300
C58C H58B 0.9300
Ni2 N2B 1.898(5)
Ni2 N4B 1.908(5)
Ni2 N3B 1.923(4)
Ni2 N1B 1.934(4)
O1B N5B 1.234(8)
O2B N5B 1.246(8)
O3B C39B 1.193(8)
O4B C46B 1.225(9)
N1B C1B 1.378(7)
N1B C4B 1.400(7)
N2B C9B 1.373(6)
N2B C6B 1.392(6)
N3B C11B 1.384(6)
N3B C14B 1.402(6)
N4B C19B 1.373(7)
N4B C16B 1.386(6)
N5B C3B 1.402(8)
C1B C20B 1.377(8)
C1B C2B 1.427(7)
C2B C3B 1.341(8)
C2B H2BA 0.9300
C3B C4B 1.430(7)
C4B C5B 1.370(8)
C5B C6B 1.389(7)
C5B C21D 1.469(12)
C5B C21B 1.493(9)
C6B C7B 1.443(8)
C7B C8B 1.351(7)
C7B H7BA 0.9300
C8B C9B 1.428(8)
C8B H8BA 0.9300
C9B C10B 1.397(7)
C10B C11B 1.402(7)
C10B C27B 1.492(8)
C11B C12B 1.435(7)
C12B C13B 1.372(7)
C12B C33B 1.509(7)
C13B C14B 1.455(7)
C13B C40B 1.480(7)
C14B C15B 1.360(8)
C15B C16B 1.411(8)
C15B C47D 1.47(2)
C15B C47B 1.522(9)
C16B C17B 1.420(8)
C17B C18B 1.332(8)
C17B H17B 0.9300
C18B C19B 1.442(8)
C18B H18B 0.9300
C19B C20B 1.409(7)
C20B C53B 1.486(8)
C21B C22B 1.3900
C21B C26B 1.3900
C22B C23B 1.3900
C22B H22C 0.9300
C23B C24B 1.3900
C23B H23C 0.9300
C24B C25B 1.3900
C24B H24C 0.9300
C25B C26B 1.3900
C25B H25C 0.9300
C26B H26C 0.9300
C21D C22D 1.3900
C21D C26D 1.3900
C22D C23D 1.3900
C22D H22D 0.9300
C23D C24D 1.3900
C23D H23D 0.9300
C24D C25D 1.3900
C24D H24D 0.9300
C25D C26D 1.3900
C25D H25D 0.9300
C26D H26D 0.9300
C27B C28B 1.366(8)
C27B C32B 1.379(9)
C28B C29B 1.376(9)
C28B H28B 0.9300
C29B C30B 1.386(11)
C29B H29B 0.9300
C30B C31B 1.356(11)
C30B H30B 0.9300
C31B C32B 1.394(9)
C31B H31B 0.9300
C32B H32B 0.9300
C33B C34B 1.386(8)
C33B C38B 1.388(7)
C34B C35B 1.376(8)
C34B H34B 0.9300
C35B C36B 1.366(8)
C35B H35B 0.9300
C36B C37B 1.379(8)
C36B C39B 1.471(9)
C37B C38B 1.359(8)
C37B H37B 0.9300
C38B H38B 0.9300
C39B H39B 0.9300
C40B C45B 1.386(8)
C40B C41B 1.401(7)
C41B C42B 1.357(7)
C41B H41B 0.9300
C42B C43B 1.419(9)
C42B H42B 0.9300
C43B C44B 1.346(8)
C43B C46B 1.479(9)
C44B C45B 1.381(8)
C44B H44B 0.9300
C45B H45B 0.9300
C46B H46B 0.9300
C47B C48B 1.3900
C47B C52B 1.3900
C48B C49B 1.3900
C48B H48B 0.9300
C49B C50B 1.3900
C49B H49B 0.9300
C50B C51B 1.3900
C50B H50B 0.9300
C51B C52B 1.3900
C51B H51B 0.9300
C52B H52B 0.9300
C47D C48D 1.3900
C47D C52D 1.3900
C48D C49D 1.3900
C48D H48C 0.9300
C49D C50D 1.3900
C49D H49C 0.9300
C50D C51D 1.3900
C50D H50C 0.9300
C51D C52D 1.3900
C51D H51C 0.9300
C52D H52C 0.9300
C53B C58B 1.378(9)
C53B C54B 1.385(9)
C54B C55B 1.380(10)
C54B H54C 0.9300
C55B C56B 1.374(12)
C55B H55C 0.9300
C56B C57B 1.330(12)
C56B H56C 0.9300
C57B C58B 1.386(9)
C57B H57C 0.9300
C58B H58C 0.9300
Cl1 C1S 1.753(17)
Cl2 C1S 1.701(19)
Cl3 C1S 1.72(2)
C1S H1SA 0.9800
loop_
_geom_hbond_atom_site_label_D
_geom_hbond_atom_site_label_H
_geom_hbond_atom_site_label_A
_geom_hbond_distance_DH
_geom_hbond_distance_HA
_geom_hbond_distance_DA
_geom_hbond_angle_DHA
_geom_hbond_site_symmetry_A
C18B H18B N2A 0.93 2.66 3.406(8) 137.7 2_766
C1S H1SA O4A 0.98 2.20 3.13(2) 158.6 1_445
loop_
_geom_torsion_atom_site_label_1
_geom_torsion_atom_site_label_2
_geom_torsion_atom_site_label_3
_geom_torsion_atom_site_label_4
_geom_torsion
C4A N1A C1A C20A -177.1(6)
Ni1 N1A C1A C20A -4.8(9)
C4A N1A C1A C2A -0.8(7)
Ni1 N1A C1A C2A 171.5(4)
C20A C1A C2A C3A 173.7(6)
N1A C1A C2A C3A -2.6(7)
C1A C2A C3A C4A 4.9(8)
C1A C2A C3A N5A -167.8(7)
O1A N5A C3A C2A -52.3(11)
O2A N5A C3A C2A 125.6(8)
O1A N5A C3A C4A 136.9(8)
O2A N5A C3A C4A -45.3(11)
C1A N1A C4A C5A -168.3(6)
Ni1 N1A C4A C5A 19.5(9)
C1A N1A C4A C3A 3.8(7)
Ni1 N1A C4A C3A -168.4(4)
C2A C3A C4A N1A -5.5(8)
N5A C3A C4A N1A 166.1(8)
C2A C3A C4A C5A 166.3(6)
N5A C3A C4A C5A -22.1(12)
N1A C4A C5A C6A 0.4(10)
C3A C4A C5A C6A -170.3(6)
N1A C4A C5A C21A 169.5(18)
C3A C4A C5A C21A -1(2)
N1A C4A C5A C21C 175.8(9)
C3A C4A C5A C21C 5.1(12)
C9A N2A C6A C5A 174.7(6)
Ni1 N2A C6A C5A 0.4(8)
C9A N2A C6A C7A 0.4(6)
Ni1 N2A C6A C7A -173.9(4)
C4A C5A C6A N2A -10.6(9)
C21A C5A C6A N2A -179.7(17)
C21C C5A C6A N2A 173.7(8)
C4A C5A C6A C7A 163.0(6)
C21A C5A C6A C7A -6.1(19)
C21C C5A C6A C7A -12.7(11)
N2A C6A C7A C8A 1.2(7)
C5A C6A C7A C8A -173.2(6)
C6A C7A C8A C9A -2.2(7)
C6A N2A C9A C10A 168.7(6)
Ni1 N2A C9A C10A -16.9(8)
C6A N2A C9A C8A -1.8(6)
Ni1 N2A C9A C8A 172.7(4)
C7A C8A C9A N2A 2.6(7)
C7A C8A C9A C10A -168.1(6)
N2A C9A C10A C11A -8.4(9)
C8A C9A C10A C11A 160.7(5)
N2A C9A C10A C27A 175.9(5)
C8A C9A C10A C27A -14.9(8)
C14A N3A C11A C10A -175.3(5)
Ni1 N3A C11A C10A -1.5(7)
C14A N3A C11A C12A -0.9(5)
Ni1 N3A C11A C12A 173.0(3)
C9A C10A C11A N3A 17.5(8)
C27A C10A C11A N3A -166.9(5)
C9A C10A C11A C12A -156.1(5)
C27A C10A C11A C12A 19.5(8)
N3A C11A C12A C13A -3.2(6)
C10A C11A C12A C13A 171.1(5)
N3A C11A C12A C33A -176.7(5)
C10A C11A C12A C33A -2.5(9)
C11A C12A C13A C14A 5.7(6)
C33A C12A C13A C14A 179.6(5)
C11A C12A C13A C40A -175.0(5)
C33A C12A C13A C40A -1.1(8)
C11A N3A C14A C15A -162.2(5)
Ni1 N3A C14A C15A 23.8(7)
C11A N3A C14A C13A 4.4(6)
Ni1 N3A C14A C13A -169.6(3)
C12A C13A C14A C15A 159.7(5)
C40A C13A C14A C15A -19.6(9)
C12A C13A C14A N3A -6.5(6)
C40A C13A C14A N3A 174.3(5)
N3A C14A C15A C16A 0.5(8)
C13A C14A C15A C16A -163.9(5)
N3A C14A C15A C47A 174.8(5)
C13A C14A C15A C47A 10.4(9)
C19A N4A C16A C15A -178.3(6)
Ni1 N4A C16A C15A 4.9(8)
C19A N4A C16A C17A 3.2(6)
Ni1 N4A C16A C17A -173.6(4)
C14A C15A C16A N4A -15.5(9)
C47A C15A C16A N4A 170.0(5)
C14A C15A C16A C17A 162.7(6)
C47A C15A C16A C17A -11.8(9)
N4A C16A C17A C18A 0.6(7)
C15A C16A C17A C18A -177.9(6)
C16A C17A C18A C19A -4.2(8)
C16A N4A C19A C20A 164.0(6)
Ni1 N4A C19A C20A -19.2(9)
C16A N4A C19A C18A -5.8(7)
Ni1 N4A C19A C18A 170.9(4)
C17A C18A C19A C20A -163.2(6)
C17A C18A C19A N4A 6.4(8)
N4A C19A C20A C1A -1.1(10)
C18A C19A C20A C1A 167.1(6)
N4A C19A C20A C53A -164.2(13)
C18A C19A C20A C53A 4.0(16)
N4A C19A C20A C53C -176.5(12)
C18A C19A C20A C53C -8.3(15)
N1A C1A C20A C19A 13.3(10)
C2A C1A C20A C19A -162.4(6)
N1A C1A C20A C53A 176.1(12)
C2A C1A C20A C53A 0.4(15)
N1A C1A C20A C53C -171.0(11)
C2A C1A C20A C53C 13.3(13)
C6A C5A C21A C22A 110.4(19)
C4A C5A C21A C22A -59(3)
C6A C5A C21A C26A -71(2)
C4A C5A C21A C26A 119.4(16)
C26A C21A C22A C23A 0.0
C5A C21A C22A C23A 178(3)
C21A C22A C23A C24A 0.0
C22A C23A C24A C25A 0.0
C23A C24A C25A C26A 0.0
C24A C25A C26A C21A 0.0
C22A C21A C26A C25A 0.0
C5A C21A C26A C25A -178(3)
C6A C5A C21C C22C 110.0(10)
C4A C5A C21C C22C -65.6(13)
C6A C5A C21C C26C -71.5(9)
C4A C5A C21C C26C 112.8(8)
C26C C21C C22C C23C 0.0
C5A C21C C22C C23C 178.4(14)
C21C C22C C23C C24C 0.0
C22C C23C C24C C25C 0.0
C23C C24C C25C C26C 0.0
C24C C25C C26C C21C 0.0
C22C C21C C26C C25C 0.0
C5A C21C C26C C25C -178.5(14)
C9A C10A C27A C28A 83.6(7)
C11A C10A C27A C28A -92.1(6)
C9A C10A C27A C32A -89.9(6)
C11A C10A C27A C32A 94.4(6)
C32A C27A C28A C29A -4.2(8)
C10A C27A C28A C29A -177.5(5)
C27A C28A C29A C30A 2.3(9)
C28A C29A C30A C31A 1.5(9)
C29A C30A C31A C32A -3.2(9)
C28A C27A C32A C31A 2.4(8)
C10A C27A C32A C31A 175.9(5)
C30A C31A C32A C27A 1.3(9)
C13A C12A C33A C38A 104.0(7)
C11A C12A C33A C38A -83.6(7)
C13A C12A C33A C34A -69.7(7)
C11A C12A C33A C34A 102.8(7)
C38A C33A C34A C35A 5.3(8)
C12A C33A C34A C35A 179.2(5)
C33A C34A C35A C36A -2.2(10)
C34A C35A C36A C37A -2.2(10)
C34A C35A C36A C39A 177.6(7)
C35A C36A C37A C38A 3.6(10)
C39A C36A C37A C38A -176.3(7)
C36A C37A C38A C33A -0.3(9)
C34A C33A C38A C37A -4.1(8)
C12A C33A C38A C37A -177.8(5)
C35A C36A C39A O3A -3.0(16)
C37A C36A C39A O3A 176.9(10)
C12A C13A C40A C45A 119.4(6)
C14A C13A C40A C45A -61.4(8)
C12A C13A C40A C41A -56.1(8)
C14A C13A C40A C41A 123.0(6)
C45A C40A C41A C42A 1.2(9)
C13A C40A C41A C42A 176.9(5)
C40A C41A C42A C43A -0.2(10)
C41A C42A C43A C44A -0.4(10)
C41A C42A C43A C46A -178.7(6)
C42A C43A C44A C45A 0.0(10)
C46A C43A C44A C45A 178.3(6)
C43A C44A C45A C40A 1.0(10)
C41A C40A C45A C44A -1.6(9)
C13A C40A C45A C44A -177.3(5)
C42A C43A C46A O4A -10.0(13)
C44A C43A C46A O4A 171.7(9)
C14A C15A C47A C48A -76.1(8)
C16A C15A C47A C48A 98.4(7)
C14A C15A C47A C52A 103.2(7)
C16A C15A C47A C52A -82.3(8)
C52A C47A C48A C49A 0.3(10)
C15A C47A C48A C49A 179.6(6)
C47A C48A C49A C50A -0.3(11)
C48A C49A C50A C51A 0.3(14)
C49A C50A C51A C52A -0.2(15)
C50A C51A C52A C47A 0.2(14)
C48A C47A C52A C51A -0.2(11)
C15A C47A C52A C51A -179.5(7)
C19A C20A C53A C54A 55.7(19)
C1A C20A C53A C54A -108.0(13)
C19A C20A C53A C58A -129.3(11)
C1A C20A C53A C58A 67.0(17)
C58A C53A C54A C55A 0.0
C20A C53A C54A C55A 175(2)
C53A C54A C55A C56A 0.0
C54A C55A C56A C57A 0.0
C55A C56A C57A C58A 0.0
C56A C57A C58A C53A 0.0
C54A C53A C58A C57A 0.0
C20A C53A C58A C57A -175(2)
C19A C20A C53C C54C 59.9(17)
C1A C20A C53C C54C -115.8(11)
C19A C20A C53C C58C -129.2(10)
C1A C20A C53C C58C 55.2(15)
C58C C53C C54C C55C 0.0
C20A C53C C54C C55C 171(2)
C53C C54C C55C C56C 0.0
C54C C55C C56C C57C 0.0
C55C C56C C57C C58C 0.0
C56C C57C C58C C53C 0.0
C54C C53C C58C C57C 0.0
C20A C53C C58C C57C -171(2)
N3B Ni2 N2B C9B 24.4(4)
N1B Ni2 N2B C9B -158.8(4)
N3B Ni2 N2B C6B -165.7(5)
N1B Ni2 N2B C6B 11.0(5)
C4B N1B C1B C20B -178.7(5)
Ni2 N1B C1B C20B -9.9(8)
C4B N1B C1B C2B -1.8(6)
Ni2 N1B C1B C2B 167.1(4)
C20B C1B C2B C3B 176.1(6)
N1B C1B C2B C3B -0.9(7)
C1B C2B C3B N5B -167.2(6)
C1B C2B C3B C4B 3.1(7)
O1B N5B C3B C2B -49.2(10)
O2B N5B C3B C2B 129.8(7)
O1B N5B C3B C4B 142.6(7)
O2B N5B C3B C4B -38.4(10)
C1B N1B C4B C5B -166.4(6)
Ni2 N1B C4B C5B 24.7(8)
C1B N1B C4B C3B 3.6(6)
Ni2 N1B C4B C3B -165.3(4)
C2B C3B C4B C5B 165.6(6)
N5B C3B C4B C5B -25.0(10)
C2B C3B C4B N1B -4.3(7)
N5B C3B C4B N1B 165.0(6)
N1B C4B C5B C6B -6.8(9)
C3B C4B C5B C6B -174.9(6)
N1B C4B C5B C21D 171.9(13)
C3B C4B C5B C21D 3.8(15)
N1B C4B C5B C21B 162.3(10)
C3B C4B C5B C21B -5.9(12)
C4B C5B C6B N2B -6.5(9)
C21D C5B C6B N2B 174.8(12)
C21B C5B C6B N2B -175.3(9)
C4B C5B C6B C7B 165.4(6)
C21D C5B C6B C7B -13.3(14)
C21B C5B C6B C7B -3.4(12)
C9B N2B C6B C5B 172.4(6)
Ni2 N2B C6B C5B 0.9(8)
C9B N2B C6B C7B -0.4(6)
Ni2 N2B C6B C7B -171.9(4)
C5B C6B C7B C8B -170.7(6)
N2B C6B C7B C8B 2.3(7)
C6B C7B C8B C9B -3.2(7)
C6B N2B C9B C10B 171.7(6)
Ni2 N2B C9B C10B -16.5(8)
C6B N2B C9B C8B -1.6(6)
Ni2 N2B C9B C8B 170.2(4)
C7B C8B C9B N2B 3.1(7)
C7B C8B C9B C10B -170.4(6)
N2B C9B C10B C11B -8.7(9)
C8B C9B C10B C11B 163.9(6)
N2B C9B C10B C27B 172.9(5)
C8B C9B C10B C27B -14.5(8)
C14B N3B C11B C10B -175.1(5)
Ni2 N3B C11B C10B -0.4(8)
C14B N3B C11B C12B -3.8(6)
Ni2 N3B C11B C12B 170.8(4)
C9B C10B C11B N3B 17.2(9)
C27B C10B C11B N3B -164.6(5)
C9B C10B C11B C12B -152.7(6)
C27B C10B C11B C12B 25.6(9)
N3B C11B C12B C13B -1.1(6)
C10B C11B C12B C13B 170.0(5)
N3B C11B C12B C33B -175.3(5)
C10B C11B C12B C33B -4.3(9)
C11B C12B C13B C14B 5.3(6)
C33B C12B C13B C14B 179.8(5)
C11B C12B C13B C40B -171.1(5)
C33B C12B C13B C40B 3.4(9)
C11B N3B C14B C15B -159.9(5)
Ni2 N3B C14B C15B 25.4(8)
C11B N3B C14B C13B 7.1(6)
Ni2 N3B C14B C13B -167.6(4)
C12B C13B C14B C15B 158.8(6)
C40B C13B C14B C15B -24.9(10)
C12B C13B C14B N3B -7.9(6)
C40B C13B C14B N3B 168.4(5)
N3B C14B C15B C16B 0.2(9)
C13B C14B C15B C16B -164.6(6)
N3B C14B C15B C47D 178.9(17)
C13B C14B C15B C47D 14.1(19)
N3B C14B C15B C47B 170.0(8)
C13B C14B C15B C47B 5.3(11)
C19B N4B C16B C15B -177.0(6)
Ni2 N4B C16B C15B 8.5(8)
C19B N4B C16B C17B 2.4(6)
Ni2 N4B C16B C17B -172.0(4)
C14B C15B C16B N4B -17.5(9)
C47D C15B C16B N4B 163.7(17)
C47B C15B C16B N4B 171.5(7)
C14B C15B C16B C17B 163.1(6)
C47D C15B C16B C17B -15.6(18)
C47B C15B C16B C17B -7.9(10)
N4B C16B C17B C18B 0.7(7)
C15B C16B C17B C18B -179.8(6)
C16B C17B C18B C19B -3.4(7)
C16B N4B C19B C20B 165.8(5)
Ni2 N4B C19B C20B -19.8(8)
C16B N4B C19B C18B -4.6(6)
Ni2 N4B C19B C18B 169.8(4)
C17B C18B C19B N4B 5.2(7)
C17B C18B C19B C20B -165.0(6)
N1B C1B C20B C19B 16.2(9)
C2B C1B C20B C19B -160.2(5)
N1B C1B C20B C53B -173.3(5)
C2B C1B C20B C53B 10.2(9)
N4B C19B C20B C1B -1.1(9)
C18B C19B C20B C1B 168.0(6)
N4B C19B C20B C53B -171.2(5)
C18B C19B C20B C53B -2.1(9)
C4B C5B C21B C22B -54.9(13)
C6B C5B C21B C22B 114.2(9)
C4B C5B C21B C26B 122.9(9)
C6B C5B C21B C26B -68.0(14)
C26B C21B C22B C23B 0.0
C5B C21B C22B C23B 177.8(17)
C21B C22B C23B C24B 0.0
C22B C23B C24B C25B 0.0
C23B C24B C25B C26B 0.0
C24B C25B C26B C21B 0.0
C22B C21B C26B C25B 0.0
C5B C21B C26B C25B -177.7(18)
C4B C5B C21D C22D -68.8(19)
C6B C5B C21D C22D 109.9(13)
C4B C5B C21D C26D 113.8(11)
C6B C5B C21D C26D -67.5(17)
C26D C21D C22D C23D 0.0
C5B C21D C22D C23D -177(2)
C21D C22D C23D C24D 0.0
C22D C23D C24D C25D 0.0
C23D C24D C25D C26D 0.0
C24D C25D C26D C21D 0.0
C22D C21D C26D C25D 0.0
C5B C21D C26D C25D 177(2)
C9B C10B C27B C28B 75.6(7)
C11B C10B C27B C28B -102.7(7)
C9B C10B C27B C32B -99.3(7)
C11B C10B C27B C32B 82.4(7)
C32B C27B C28B C29B -2.1(9)
C10B C27B C28B C29B -176.9(6)
C27B C28B C29B C30B 0.8(11)
C28B C29B C30B C31B 0.9(12)
C29B C30B C31B C32B -1.2(12)
C28B C27B C32B C31B 1.7(9)
C10B C27B C32B C31B 176.7(6)
C30B C31B C32B C27B -0.1(10)
C13B C12B C33B C34B -70.6(8)
C11B C12B C33B C34B 102.8(7)
C13B C12B C33B C38B 108.2(7)
C11B C12B C33B C38B -78.4(8)
C38B C33B C34B C35B 4.2(8)
C12B C33B C34B C35B -177.0(5)
C33B C34B C35B C36B 0.5(9)
C34B C35B C36B C37B -4.7(9)
C34B C35B C36B C39B 174.3(6)
C35B C36B C37B C38B 4.1(9)
C39B C36B C37B C38B -174.8(6)
C36B C37B C38B C33B 0.6(9)
C34B C33B C38B C37B -4.7(8)
C12B C33B C38B C37B 176.5(5)
C35B C36B C39B O3B 2.3(13)
C37B C36B C39B O3B -178.7(8)
C12B C13B C40B C45B 125.7(7)
C14B C13B C40B C45B -49.9(9)
C12B C13B C40B C41B -52.0(9)
C14B C13B C40B C41B 132.4(6)
C45B C40B C41B C42B 0.6(10)
C13B C40B C41B C42B 178.4(6)
C40B C41B C42B C43B 2.1(10)
C41B C42B C43B C44B -3.7(10)
C41B C42B C43B C46B 177.7(7)
C42B C43B C44B C45B 2.5(11)
C46B C43B C44B C45B -179.0(7)
C43B C44B C45B C40B 0.3(11)
C41B C40B C45B C44B -1.9(10)
C13B C40B C45B C44B -179.6(6)
C44B C43B C46B O4B -179.6(8)
C42B C43B C46B O4B -1.1(13)
C14B C15B C47B C48B -60.8(11)
C16B C15B C47B C48B 109.7(8)
C14B C15B C47B C52B 120.2(9)
C16B C15B C47B C52B -69.2(11)
C52B C47B C48B C49B 0.0
C15B C47B C48B C49B -179.0(12)
C47B C48B C49B C50B 0.0
C48B C49B C50B C51B 0.0
C49B C50B C51B C52B 0.0
C50B C51B C52B C47B 0.0
C48B C47B C52B C51B 0.0
C15B C47B C52B C51B 179.0(12)
C14B C15B C47D C48D -84(2)
C16B C15B C47D C48D 95(2)
C14B C15B C47D C52D 103(2)
C16B C15B C47D C52D -79(3)
C52D C47D C48D C49D 0.0
C15B C47D C48D C49D -173(3)
C47D C48D C49D C50D 0.0
C48D C49D C50D C51D 0.0
C49D C50D C51D C52D 0.0
C50D C51D C52D C47D 0.0
C48D C47D C52D C51D 0.0
C15B C47D C52D C51D 174(3)
C1B C20B C53B C58B 58.9(8)
C19B C20B C53B C58B -130.6(6)
C1B C20B C53B C54B -115.1(7)
C19B C20B C53B C54B 55.4(8)
C58B C53B C54B C55B -1.5(10)
C20B C53B C54B C55B 172.6(6)
C53B C54B C55B C56B 0.2(12)
C54B C55B C56B C57B 0.2(14)
C55B C56B C57B C58B 0.9(13)
C54B C53B C58B C57B 2.6(10)
C20B C53B C58B C57B -171.6(6)
C56B C57B C58B C53B -2.4(12)
