#------------------------------------------------------------------------------
#$Date: 2017-03-05 07:33:09 +0200 (Sun, 05 Mar 2017) $
#$Revision: 193914 $
#$URL: file:///home/coder/svn-repositories/cod/cif/7/22/73/7227353.cif $
#------------------------------------------------------------------------------
#
# This file is available in the Crystallography Open Database (COD),
# http://www.crystallography.net/
#
# All data on this site have been placed in the public domain by the
# contributors.
#
data_7227353
loop_
_publ_author_name
'Chahal, Mandeep K.'
'Sankar, Muniappan'
'Butcher, Ray J.'
_publ_section_title
;
 An insight into the communication between \b-olefin/phenyl
 olefin-mediated acceptors and porphyrin \p-system: a way to establish
 porphyrin based chemodosimeters and chemosensors.
;
_journal_issue                   6
_journal_name_full               'Physical chemistry chemical physics : PCCP'
_journal_page_first              4530
_journal_page_last               4540
_journal_paper_doi               10.1039/c6cp08396j
_journal_volume                  19
_journal_year                    2017
_chemical_formula_moiety         'C64 H34 N9 Ni O2'
_chemical_formula_sum            'C64 H34 N9 Ni O2'
_chemical_formula_weight         1019.71
_chemical_name_common
;
2-Nitro-12,13-bis(4-dicyanovinylphenyl)-meso-tetraphenylporphyrin Ni(II) complex
;
_chemical_name_systematic
;
 2-Nitro-12,13-bis(4-dicyanovinylphenyl)-5,10,15,20-tetraphenylporphyrinatonickel(II)
;
_space_group_crystal_system      monoclinic
_space_group_IT_number           15
_space_group_name_Hall           '-C 2yc'
_space_group_name_H-M_alt        'C 1 2/c 1'
_symmetry_space_group_name_Hall  '-C 2yc'
_symmetry_space_group_name_H-M   'C 1 2/c 1'
_atom_sites_solution_hydrogens   geom
_audit_block_doi                 10.5517/ccdc.csd.cc1n16c8
_audit_creation_method           SHELXL-2014/7
_audit_update_record
;
2016-12-02 deposited with the CCDC.
2017-01-04 downloaded from the CCDC.
;
_cell_angle_alpha                90
_cell_angle_beta                 98.70(3)
_cell_angle_gamma                90
_cell_formula_units_Z            8
_cell_length_a                   24.899(5)
_cell_length_b                   12.615(3)
_cell_length_c                   33.689(7)
_cell_measurement_reflns_used    25
_cell_measurement_temperature    298(2)
_cell_measurement_theta_max      25.25
_cell_measurement_theta_min      1.81
_cell_volume                     10460(4)
_computing_cell_refinement       'Bruker Apex 2'
_computing_data_collection       'Bruker Apex 2'
_computing_data_reduction        'Bruker SAINT'
_computing_molecular_graphics    'ORTEP3 (WINGX)'
_computing_publication_material  'ShelXL (Sheldrick, 2008)'
_computing_structure_refinement  'SHELXL-2014/7 (Sheldrick, 2014)'
_computing_structure_solution    'Shelxt (Shedlrick, 2015)'
_diffrn_ambient_temperature      298(2)
_diffrn_measured_fraction_theta_full 0.989
_diffrn_measured_fraction_theta_max 0.989
_diffrn_measurement_device_type  'Bruker Apex 2 CCD diffractometer'
_diffrn_measurement_method       '\w scans'
_diffrn_radiation_type           MoK\a
_diffrn_radiation_wavelength     0.71073
_diffrn_reflns_av_R_equivalents  0.2086
_diffrn_reflns_av_unetI/netI     0.2213
_diffrn_reflns_Laue_measured_fraction_full 0.989
_diffrn_reflns_Laue_measured_fraction_max 0.989
_diffrn_reflns_limit_h_max       29
_diffrn_reflns_limit_h_min       -29
_diffrn_reflns_limit_k_max       14
_diffrn_reflns_limit_k_min       -15
_diffrn_reflns_limit_l_max       40
_diffrn_reflns_limit_l_min       -40
_diffrn_reflns_number            48724
_diffrn_reflns_point_group_measured_fraction_full 0.989
_diffrn_reflns_point_group_measured_fraction_max 0.989
_diffrn_reflns_theta_full        25.252
_diffrn_reflns_theta_max         25.252
_diffrn_reflns_theta_min         1.814
_exptl_absorpt_coefficient_mu    0.426
_exptl_absorpt_correction_type   multi-scan
_exptl_absorpt_process_details   '(SADABS; Bruker, 2000)'
_exptl_crystal_colour            Red
_exptl_crystal_density_diffrn    1.295
_exptl_crystal_description       Prism
_exptl_crystal_F_000             4200
_exptl_crystal_recrystallization_method
'Re-crystallisation from solvent: Chloroform and hexane'
_exptl_crystal_size_max          0.2
_exptl_crystal_size_mid          0.15
_exptl_crystal_size_min          0.15
_refine_diff_density_max         0.628
_refine_diff_density_min         -0.544
_refine_diff_density_rms         0.072
_refine_ls_extinction_method     none
_refine_ls_goodness_of_fit_ref   0.889
_refine_ls_hydrogen_treatment    constr
_refine_ls_matrix_type           full
_refine_ls_number_parameters     697
_refine_ls_number_reflns         9375
_refine_ls_number_restraints     903
_refine_ls_restrained_S_all      0.876
_refine_ls_R_factor_all          0.2295
_refine_ls_R_factor_gt           0.0791
_refine_ls_shift/su_max          0.001
_refine_ls_shift/su_mean         0.000
_refine_ls_structure_factor_coef Fsqd
_refine_ls_weighting_details
'w=1/[\s^2^(Fo^2^)+(0.1257P)^2^] where P=(Fo^2^+2Fc^2^)/3'
_refine_ls_weighting_scheme      calc
_refine_ls_wR_factor_gt          0.1922
_refine_ls_wR_factor_ref         0.2539
_reflns_Friedel_coverage         0.000
_reflns_number_gt                3214
_reflns_number_total             9375
_reflns_threshold_expression     'I > 2\s(I)'
_cod_data_source_file            c6cp08396j2.cif
_cod_data_source_block           shelx
_cod_depositor_comments
'Adding full bibliography for 7227352--7227354.cif.'
_cod_database_code               7227353
_shelx_shelxl_version_number     2014/7
_shelx_space_group_comment
;
The symmetry employed for this shelxl refinement is uniquely defined
by the following loop, which should always be used as a source of
symmetry information in preference to the above space-group names.
They are only intended as comments.
;
_shelx_res_file
;

    shelx.res created by SHELXL-2014/7


TITL shelxt_a.res in C2/c
CELL  0.71073  24.8989  12.6150  33.6890   90.000   98.700   90.000
ZERR     8.00   0.0050   0.0025   0.0067    0.000    0.030    0.000
LATT   7
SYMM  - X,   Y, 1/2 - Z
SFAC  C    H    N    O    NI
UNIT  512 272 72 16 8
temp 25
l.s. 15
acta 51
conf
BOND   $H
htab
eadp c42 c42a
eadp n7 n7a
eadp c51 c51a
eadp n8 n8a
eadp c59 c59a
eadp c60 c60a
eadp c61 c61a
eadp c62 c62a
eadp c63 c63a
eadp c64 c64a
isor .008 c18 c56 c59 c60 c61 c62 c63 c64
isor .008 c42 n7 c51 n8
dfix  51.0 .005 c40 c41 c40 c42 c40 c42a c50 c51 c50 c51a c50 c52
dfix  61.0 .005 c41 n6 c42 n7 c42a n7a c51 n8 c51a n8a c52 n9
dfix  71.0 .005 c40 n6 c40 n7 c40 n7a c50 n8 c50 n8a c50 n9
omit     0   0   2
omit     2   0   0
omit    -5   3  10
omit    -3   1   3
omit     0   0   4
omit     1   1   3
omit    -2   0   4
omit    -5   1   1
omit   -11   3   3
omit    -7   1   3
omit     7   1   2
omit    -1   1   7
omit     4   0   6
omit     0   2   1
omit     0   2   6
rigu
ABIN
WGHT    0.125700
FVAR       0.05016   0.72240   0.81553   0.29217   1.45078   1.15154   2.59756
NI    5    0.402465    0.479609    0.569908    11.00000    0.06891    0.05162 =
         0.04829   -0.00096    0.01087    0.00462
O1    4    0.298140    0.629644    0.700147    11.00000    0.17886    0.12679 =
         0.12709   -0.01397    0.07802   -0.00462
O2    4    0.367598    0.698311    0.737790    11.00000    0.22975    0.17611 =
         0.11198   -0.06400    0.06097   -0.03608
N5    3    0.347621    0.650717    0.707599    11.00000    0.16745    0.10918 =
         0.11284   -0.02002    0.06433   -0.00726
N1    3    0.405818    0.556065    0.619462    11.00000    0.09071    0.05820 =
         0.06026   -0.00118    0.02208    0.00595
C1    1    0.376120    0.533935    0.650664    11.00000    0.09261    0.07044 =
         0.06194   -0.00337    0.01957    0.00682
C2    1    0.378481    0.625730    0.676085    11.00000    0.12264    0.07906 =
         0.06704   -0.01635    0.03434    0.00163
C3    1    0.412782    0.699443    0.664645    11.00000    0.09888    0.08799 =
         0.07057   -0.01106    0.02330    0.00757
C4    1    0.428577    0.655343    0.628490    11.00000    0.08138    0.06768 =
         0.06914   -0.01027    0.01612    0.00315
same n1 > c4
N2    3    0.434929    0.596991    0.546590    11.00000    0.06908    0.05498 =
         0.05785   -0.00249    0.00938   -0.00061
C6    1    0.467167    0.675860    0.566679    11.00000    0.07311    0.06428 =
         0.06800   -0.00702    0.01339    0.00019
C7    1    0.496198    0.729149    0.539545    11.00000    0.08690    0.06224 =
         0.07502   -0.00431    0.01818   -0.01146
AFIX  43
H7A   2    0.522192    0.781769    0.546083    11.00000   -1.20000
AFIX   0
C8    1    0.479432    0.690029    0.502786    11.00000    0.08267    0.06188 =
         0.06331   -0.00310    0.01306   -0.01191
AFIX  43
H8A   2    0.491163    0.711359    0.479101    11.00000   -1.20000
AFIX   0
C9    1    0.440551    0.610208    0.506638    11.00000    0.06758    0.04615 =
         0.05714   -0.00040    0.01454    0.00445
same n1 > c4
N3    3    0.390550    0.408556    0.518617    11.00000    0.07079    0.04678 =
         0.04828    0.00010    0.01158    0.00486
C11   1    0.385466    0.457034    0.481482    11.00000    0.07078    0.05307 =
         0.04811    0.00123    0.00835    0.00202
C12   1    0.361513    0.385438    0.450390    11.00000    0.06562    0.04750 =
         0.05336    0.00354    0.00263    0.00004
C13   1    0.356536    0.291633    0.468131    11.00000    0.06820    0.05635 =
         0.05483   -0.00321    0.01114   -0.00086
C14   1    0.376062    0.305094    0.510752    11.00000    0.05988    0.05057 =
         0.05573    0.00018    0.00885   -0.00081
same n1 > c4
N4    3    0.377465    0.357077    0.594300    11.00000    0.09560    0.06318 =
         0.05126    0.00242    0.01444    0.00321
C16   1    0.379187    0.253223    0.580349    11.00000    0.11052    0.05948 =
         0.05668    0.00771    0.01652    0.00449
C17   1    0.372547    0.179955    0.612342    11.00000    0.17480    0.06111 =
         0.07785    0.01513    0.04351    0.01636
AFIX  43
H17A  2    0.374813    0.106435    0.611405    11.00000   -1.20000
AFIX   0
C18   1    0.362497    0.238669    0.643581    11.00000    0.15334    0.07539 =
         0.08063    0.00824    0.04079    0.00198
AFIX  43
H18A  2    0.355310    0.212718    0.668077    11.00000   -1.20000
AFIX   0
C19   1    0.364724    0.347847    0.632786    11.00000    0.12902    0.06852 =
         0.06218    0.00662    0.03391    0.00625
N6    3    0.174174    0.416383    0.195147    11.00000    0.18986    0.14093 =
         0.09450   -0.00338   -0.02397    0.01684
PART   1
C42   1    0.162170    0.492255    0.291433    31.00000    0.10913    0.11434 =
         0.09481   -0.00811   -0.01128    0.01333
N7    3    0.130223    0.536037    0.306546    31.00000    0.14631    0.15982 =
         0.15137   -0.03085   -0.00322    0.03860
PART   2
C42A  1    0.185612    0.551532    0.283050   -31.00000    0.10913    0.11434 =
         0.09481   -0.00811   -0.01128    0.01333
N7A   3    0.172022    0.637689    0.287156   -31.00000    0.14631    0.15982 =
         0.15137   -0.03085   -0.00322    0.03860
PART   1
C51   1    0.217800   -0.249573    0.393335    41.00000    0.10080    0.07263 =
         0.11545   -0.00633    0.00981   -0.01239
N8    3    0.206523   -0.327418    0.376090    41.00000    0.12567    0.08622 =
         0.14228   -0.01830    0.01500   -0.02393
PART   2
C51A  1    0.203944   -0.259177    0.404311   -41.00000    0.10080    0.07263 =
         0.11545   -0.00633    0.00981   -0.01239
N8A   3    0.188891   -0.339846    0.391110   -41.00000    0.12567    0.08622 =
         0.14228   -0.01830    0.01500   -0.02393
PART   0
N9    3    0.204312   -0.139693    0.492749    11.00000    0.11566    0.12036 =
         0.14359   -0.01817    0.01953   -0.00708
C5    1    0.463622    0.706579    0.605944    11.00000    0.07959    0.07146 =
         0.06546   -0.00792    0.01078    0.00255
C10   1    0.410715    0.554670    0.474921    11.00000    0.06329    0.04756 =
         0.05404    0.00271    0.01262    0.00767
C15   1    0.378946    0.226548    0.541257    11.00000    0.07429    0.05326 =
         0.06379   -0.00044    0.01202    0.00033
C20   1    0.358396    0.433567    0.658167    11.00000    0.10686    0.07176 =
         0.06699    0.00274    0.02404    0.00361
C21   1    0.494270    0.803374    0.623236    11.00000    0.07939    0.07634 =
         0.09066   -0.02597    0.01417   -0.00714
C22   1    0.532360    0.795507    0.656589    11.00000    0.08935    0.11054 =
         0.09543   -0.02620    0.01596   -0.01549
AFIX  43
H22A  2    0.539005    0.730324    0.669280    11.00000   -1.20000
AFIX   0
C23   1    0.561695    0.885321    0.671951    11.00000    0.09184    0.12808 =
         0.13388   -0.04452    0.00952   -0.02170
AFIX  43
H23A  2    0.587740    0.879950    0.694761    11.00000   -1.20000
AFIX   0
C24   1    0.551528    0.981584    0.652900    11.00000    0.12952    0.12045 =
         0.13323   -0.03516    0.01595   -0.03387
AFIX  43
H24A  2    0.571768    1.040701    0.662468    11.00000   -1.20000
AFIX   0
C25   1    0.513438    0.990978    0.621250    11.00000    0.14275    0.09067 =
         0.12982   -0.03569    0.01233   -0.02368
AFIX  43
H25A  2    0.505718    1.057105    0.609564    11.00000   -1.20000
AFIX   0
C26   1    0.484780    0.901847    0.605332    11.00000    0.13778    0.08238 =
         0.09966   -0.02407    0.01154   -0.01009
AFIX  43
H26A  2    0.458996    0.908592    0.582429    11.00000   -1.20000
AFIX   0
C27   1    0.412756    0.597697    0.434207    11.00000    0.07392    0.04939 =
         0.05908    0.00314    0.00850   -0.00686
C28   1    0.453511    0.570769    0.412760    11.00000    0.10717    0.11210 =
         0.08032    0.02926    0.02983    0.03261
AFIX  43
H28A  2    0.478101    0.517779    0.422262    11.00000   -1.20000
AFIX   0
C29   1    0.458244    0.622496    0.376761    11.00000    0.13307    0.14140 =
         0.08524    0.02565    0.03214    0.00480
AFIX  43
H29A  2    0.485987    0.604638    0.362354    11.00000   -1.20000
AFIX   0
C30   1    0.422147    0.698453    0.363224    11.00000    0.14204    0.10641 =
         0.08369    0.03261    0.01627   -0.01124
AFIX  43
H30A  2    0.425952    0.734379    0.339705    11.00000   -1.20000
AFIX   0
C31   1    0.380229    0.724076    0.383040    11.00000    0.16017    0.09199 =
         0.10120    0.03479    0.02168    0.02346
AFIX  43
H31A  2    0.354321    0.773253    0.372100    11.00000   -1.20000
AFIX   0
C32   1    0.376298    0.677023    0.419295    11.00000    0.12480    0.06768 =
         0.08338    0.01987    0.01670    0.02104
AFIX  43
H32A  2    0.349278    0.698171    0.433872    11.00000   -1.20000
AFIX   0
C33   1    0.337558    0.407294    0.408128    11.00000    0.06859    0.05137 =
         0.05653   -0.00223    0.00202   -0.00656
C34   1    0.359886    0.366630    0.375428    11.00000    0.08157    0.09977 =
         0.06454   -0.00093    0.00643    0.02664
AFIX  43
H34A  2    0.393653    0.333586    0.379818    11.00000   -1.20000
AFIX   0
C35   1    0.332212    0.375190    0.336784    11.00000    0.09272    0.11239 =
         0.05360   -0.00616    0.01233    0.02222
AFIX  43
H35A  2    0.348238    0.348511    0.315658    11.00000   -1.20000
AFIX   0
C36   1    0.282330    0.421280    0.328534    11.00000    0.08250    0.06703 =
         0.06160    0.00862    0.00568    0.00032
C37   1    0.262043    0.466404    0.360683    11.00000    0.09011    0.08265 =
         0.06810    0.00089   -0.00087    0.01730
AFIX  43
H37A  2    0.229310    0.503138    0.356048    11.00000   -1.20000
AFIX   0
C38   1    0.288937    0.458293    0.399059    11.00000    0.07645    0.08225 =
         0.06359   -0.00425    0.00402    0.01287
AFIX  43
H38A  2    0.273483    0.488732    0.419797    11.00000   -1.20000
AFIX   0
C39   1    0.253946    0.416889    0.287532    11.00000    0.09731    0.07488 =
         0.07055    0.00776    0.00306   -0.00111
AFIX  43
H39A  2    0.273826    0.385675    0.269395    11.00000   -1.20000
AFIX   0
C40   1    0.205042    0.449216    0.271402    11.00000    0.11119    0.09689 =
         0.07797   -0.00284   -0.01424    0.01128
C41   1    0.187553    0.429723    0.229035    11.00000    0.15687    0.11262 =
         0.08737   -0.00109   -0.01961    0.00865
C43   1    0.329396    0.195975    0.448487    11.00000    0.07204    0.05655 =
         0.05701    0.00191    0.00925   -0.00020
C44   1    0.350129    0.134112    0.420824    11.00000    0.09113    0.08457 =
         0.07706   -0.02431    0.02288   -0.01347
AFIX  43
H44A  2    0.382937    0.153729    0.412933    11.00000   -1.20000
AFIX   0
C45   1    0.324299    0.044074    0.404257    11.00000    0.10583    0.08463 =
         0.08534   -0.03095    0.02363   -0.01198
AFIX  43
H45A  2    0.339737    0.004787    0.385527    11.00000   -1.20000
AFIX   0
C46   1    0.276188    0.012429    0.415242    11.00000    0.08694    0.06612 =
         0.07787   -0.00547   -0.00438    0.00301
C47   1    0.253436    0.076806    0.441513    11.00000    0.09027    0.07105 =
         0.13208   -0.02244    0.02518   -0.01383
AFIX  43
H47A  2    0.219992    0.058779    0.448706    11.00000   -1.20000
AFIX   0
C48   1    0.279345    0.166387    0.457033    11.00000    0.08052    0.06239 =
         0.11720   -0.02782    0.02890   -0.00917
AFIX  43
H48A  2    0.262457    0.208915    0.474019    11.00000   -1.20000
AFIX   0
C49   1    0.252506   -0.088719    0.400321    11.00000    0.09568    0.07624 =
         0.09732   -0.01126   -0.00540   -0.00694
AFIX  43
H49A  2    0.256668   -0.106795    0.374197    11.00000   -1.20000
AFIX   0
C50   1    0.225515   -0.158321    0.419942    11.00000    0.08481    0.06461 =
         0.11994   -0.00543   -0.01147   -0.00311
C52   1    0.212266   -0.143848    0.460000    11.00000    0.08200    0.07451 =
         0.13065   -0.00554   -0.00031    0.00247
C53   1    0.380032    0.111209    0.529665    11.00000    0.08817    0.05668 =
         0.07007    0.00020    0.02058   -0.00316
C54   1    0.420785    0.071977    0.511101    11.00000    0.09525    0.05595 =
         0.07868   -0.00381    0.01730    0.00005
AFIX  43
H54A  2    0.449092    0.116702    0.506923    11.00000   -1.20000
AFIX   0
C55   1    0.421476   -0.032313    0.498239    11.00000    0.11336    0.06748 =
         0.11352   -0.01676    0.01852    0.01503
AFIX  43
H55A  2    0.449319   -0.056941    0.485127    11.00000   -1.20000
AFIX   0
C56   1    0.380338   -0.098165    0.505249    11.00000    0.10893    0.07076 =
         0.11269    0.00126   -0.00925    0.00487
AFIX  43
H56A  2    0.380678   -0.168668    0.497223    11.00000   -1.20000
AFIX   0
C57   1    0.339064   -0.062567    0.523684    11.00000    0.10931    0.06998 =
         0.15308    0.01530    0.01615   -0.01119
AFIX  43
H57A  2    0.311319   -0.108413    0.528098    11.00000   -1.20000
AFIX   0
C58   1    0.338229    0.042155    0.535949    11.00000    0.09685    0.06671 =
         0.13266    0.01836    0.02832   -0.00730
AFIX  43
H58A  2    0.309739    0.066613    0.548414    11.00000   -1.20000
AFIX  66
PART   1
C59   1    0.328879    0.406849    0.694376    21.00000    0.08774    0.07485 =
         0.06604    0.00241    0.01897    0.00634
C60   1    0.360682    0.412997    0.731950    21.00000    0.09605    0.10177 =
         0.07355    0.00843    0.01350   -0.00230
AFIX  43
H60A  2    0.396328    0.437049    0.734279    21.00000   -1.20000
AFIX  65
C61   1    0.339207    0.383198    0.766041    21.00000    0.12483    0.10936 =
         0.07902    0.01174    0.02766    0.00305
AFIX  43
H61A  2    0.360485    0.387312    0.791180    21.00000   -1.20000
AFIX  65
C62   1    0.285929    0.347251    0.762560    21.00000    0.12198    0.09762 =
         0.08959    0.01065    0.02838    0.00505
AFIX  43
H62A  2    0.271561    0.327313    0.785370    21.00000   -1.20000
AFIX  65
C63   1    0.254126    0.341102    0.724987    21.00000    0.10955    0.08464 =
         0.09565    0.00726    0.03201    0.00186
AFIX  43
H63A  2    0.218479    0.317051    0.722658    21.00000   -1.20000
AFIX  65
C64   1    0.275600    0.370901    0.690895    21.00000    0.09268    0.07702 =
         0.07991    0.00204    0.02030   -0.00193
AFIX  43
H64A  2    0.254321    0.366787    0.665756    21.00000   -1.20000
AFIX  66
PART   2
C59A  1    0.355591    0.412139    0.701045   -21.00000    0.08774    0.07485 =
         0.06604    0.00241    0.01897    0.00634
C60A  1    0.390798    0.435548    0.736029   -21.00000    0.09605    0.10177 =
         0.07355    0.00843    0.01350   -0.00230
AFIX  43
H60B  2    0.424167    0.467222    0.734557   -21.00000   -1.20000
AFIX  65
C61A  1    0.376130    0.411617    0.773212   -21.00000    0.12483    0.10936 =
         0.07902    0.01174    0.02766    0.00305
AFIX  43
H61B  2    0.399685    0.427280    0.796618   -21.00000   -1.20000
AFIX  65
C62A  1    0.326255    0.364277    0.775412   -21.00000    0.12198    0.09762 =
         0.08959    0.01065    0.02838    0.00505
AFIX  43
H62B  2    0.316442    0.348266    0.800290   -21.00000   -1.20000
AFIX  65
C63A  1    0.291049    0.340867    0.740429   -21.00000    0.10955    0.08464 =
         0.09565    0.00726    0.03201    0.00186
AFIX  43
H63B  2    0.257679    0.309193    0.741901   -21.00000   -1.20000
AFIX  65
C64A  1    0.305716    0.364797    0.703245   -21.00000    0.09268    0.07702 =
         0.07991    0.00204    0.02030   -0.00193
AFIX  43
H64B  2    0.282160    0.349135    0.679839   -21.00000   -1.20000
PART   0

AFIX   0
HKLF    4

REM  shelxt_a.res in C2/c
REM R1 =  0.0791 for    3214 Fo > 4sig(Fo)  and  0.2295 for all    9375 data
REM    697 parameters refined using    903 restraints

END

WGHT      0.1247      0.0000

REM No hydrogen bonds found for HTAB generation

REM Highest difference peak  0.628,  deepest hole -0.544,  1-sigma level  0.072
Q1    1   0.4200  0.7906  0.6812  11.00000  0.05    0.63
Q2    1   0.4094  0.4843  0.5604  11.00000  0.05    0.41
Q3    1   0.3924  0.4976  0.5728  11.00000  0.05    0.35
Q4    1   0.4029  0.4403  0.5816  11.00000  0.05    0.32
Q5    1   0.1409  0.6033  0.2967  11.00000  0.05    0.31
Q6    1   0.3091  0.3448  0.7688  11.00000  0.05    0.27
Q7    1   0.4304  0.8395  0.2598  11.00000  0.05    0.25
Q8    1   0.4516  0.4972  0.5437  11.00000  0.05    0.24
Q9    1   0.3266  0.2345  0.6410  11.00000  0.05    0.24
Q10   1   0.3266  0.3011  0.3159  11.00000  0.05    0.24
Q11   1   0.4387  0.3000  0.6404  11.00000  0.05    0.23
Q12   1   0.5158  0.5965  0.4691  11.00000  0.05    0.23
Q13   1   0.5000  0.7227  0.7500  10.50000  0.05    0.23
Q14   1   0.3625  0.6071  0.5893  11.00000  0.05    0.23
Q15   1   0.4212  0.2366  0.6445  11.00000  0.05    0.23
Q16   1   0.5033  0.5352  0.6983  11.00000  0.05    0.23
Q17   1   0.3109  0.3679  0.2586  11.00000  0.05    0.22
Q18   1   0.1275  0.4570  0.2554  11.00000  0.05    0.22
Q19   1   0.3920 -0.1472  0.4694  11.00000  0.05    0.22
Q20   1   0.5224  0.5438  0.3704  11.00000  0.05    0.22
;
_shelx_res_checksum              97042
_shelx_fab_file
;
    2    0    0    323.18      0.00
    6    0    0     83.17      0.00
   10    0    0     12.01      0.00
   12    0    0     13.78      0.00
   14    0    0     12.50      0.00
   16    0    0      7.38      0.00
   18    0    0      1.34      0.00
   20    0    0     -4.16      0.00
   22    0    0     -7.58      0.00
   24    0    0     -7.52      0.00
   26    0    0     -4.58      0.00
   28    0    0     -1.19      0.00
    1    1    0    -51.88      0.00
    3    1    0    -21.78      0.00
    5    1    0     10.63      0.00
    7    1    0     21.19      0.00
    9    1    0     12.06      0.00
   11    1    0      1.37      0.00
   13    1    0     -0.25      0.00
   15    1    0      3.48      0.00
   17    1    0      5.35      0.00
   19    1    0      4.01      0.00
   21    1    0      2.40      0.00
   23    1    0      2.22      0.00
   25    1    0      2.46      0.00
   27    1    0      1.85      0.00
   29    1    0      0.78      0.00
    0    2    0    -30.39      0.00
    2    2    0    -20.45      0.00
    4    2    0      0.97      0.00
    6    2    0     18.05      0.00
    8    2    0     22.71      0.00
   10    2    0     17.30      0.00
   12    2    0      7.57      0.00
   14    2    0     -1.48      0.00
   16    2    0     -5.55      0.00
   18    2    0     -3.13      0.00
   20    2    0      2.52      0.00
   22    2    0      6.52      0.00
   24    2    0      7.27      0.00
   26    2    0      6.29      0.00
   28    2    0      4.93      0.00
    1    3    0     61.33      0.00
    3    3    0     32.86      0.00
    5    3    0      0.62      0.00
    7    3    0    -13.66      0.00
    9    3    0    -10.13      0.00
   13    3    0      3.03      0.00
   15    3    0      3.57      0.00
   17    3    0      1.85      0.00
   19    3    0     -0.48      0.00
   21    3    0     -1.93      0.00
   23    3    0     -2.08      0.00
   25    3    0     -1.80      0.00
   27    3    0     -1.68      0.00
    0    4    0     16.03      0.00
    2    4    0     20.45      0.00
    4    4    0     27.93      0.00
    6    4    0     28.41      0.00
    8    4    0     19.64      0.00
   10    4    0      8.74      0.00
   12    4    0      3.04      0.00
   14    4    0      2.80      0.00
   16    4    0      3.39      0.00
   18    4    0      1.74      0.00
   20    4    0     -1.22      0.00
   22    4    0     -3.04      0.00
   24    4    0     -2.82      0.00
   26    4    0     -1.65      0.00
   28    4    0     -0.89      0.00
    1    5    0     -9.87      0.00
    3    5    0     -5.11      0.00
    5    5    0      2.33      0.00
    7    5    0      9.29      0.00
    9    5    0     12.50      0.00
   11    5    0      9.92      0.00
   13    5    0      3.25      0.00
   15    5    0     -2.24      0.00
   17    5    0     -2.71      0.00
   19    5    0      0.23      0.00
   21    5    0      2.07      0.00
   23    5    0      0.93      0.00
   25    5    0     -1.37      0.00
   27    5    0     -2.47      0.00
    0    6    0      8.08      0.00
    2    6    0      6.44      0.00
    4    6    0      2.62      0.00
    6    6    0     -1.08      0.00
    8    6    0     -2.59      0.00
   10    6    0     -0.82      0.00
   12    6    0      3.39      0.00
   14    6    0      7.00      0.00
   16    6    0      7.14      0.00
   18    6    0      4.23      0.00
   20    6    0      1.30      0.00
   22    6    0      0.26      0.00
   24    6    0      0.53      0.00
   26    6    0      1.01      0.00
    1    7    0      5.57      0.00
    3    7    0      4.28      0.00
    5    7    0      1.92      0.00
    7    7    0     -0.80      0.00
    9    7    0     -2.74      0.00
   11    7    0     -2.81      0.00
   13    7    0     -0.50      0.00
   15    7    0      3.62      0.00
   17    7    0      7.65      0.00
   19    7    0      9.32      0.00
   21    7    0      8.00      0.00
   23    7    0      5.32      0.00
   25    7    0      3.39      0.00
    0    8    0     -0.56      0.00
    2    8    0      0.89      0.00
    4    8    0      4.36      0.00
    6    8    0      7.75      0.00
    8    8    0      9.23      0.00
   10    8    0      8.47      0.00
   12    8    0      6.53      0.00
   14    8    0      4.43      0.00
   16    8    0      2.31      0.00
   18    8    0      0.12      0.00
   20    8    0     -1.19      0.00
   22    8    0     -0.57      0.00
   24    8    0      1.27      0.00
    1    9    0     -0.83      0.00
    3    9    0     -1.70      0.00
    5    9    0     -2.43      0.00
    7    9    0     -2.12      0.00
    9    9    0     -0.89      0.00
   11    9    0      0.07      0.00
   13    9    0     -0.44      0.00
   15    9    0     -2.41      0.00
   17    9    0     -4.53      0.00
   19    9    0     -5.74      0.00
   21    9    0     -6.37      0.00
   23    9    0     -6.90      0.00
    0   10    0      3.39      0.00
    2   10    0      3.13      0.00
    4   10    0      2.45      0.00
    6   10    0      1.75      0.00
    8   10    0      1.27      0.00
   10   10    0      1.03      0.00
   12   10    0      1.28      0.00
   14   10    0      2.74      0.00
   16   10    0      5.54      0.00
   18   10    0      8.15      0.00
   20   10    0      8.59      0.00
   22   10    0      6.55      0.00
    1   11    0      6.12      0.00
    3   11    0      5.70      0.00
    5   11    0      4.05      0.00
    7   11    0      0.83      0.00
    9   11    0     -2.83      0.00
   11   11    0     -5.16      0.00
   13   11    0     -5.58      0.00
   15   11    0     -5.27      0.00
   17   11    0     -5.53      0.00
   19   11    0     -6.02      0.00
    0   12    0      1.15      0.00
    2   12    0      1.54      0.00
    4   12    0      2.13      0.00
    6   12    0      2.02      0.00
    8   12    0      1.12      0.00
   10   12    0      0.13      0.00
   12   12    0     -0.68      0.00
   14   12    0     -1.74      0.00
   16   12    0     -2.97      0.00
   18   12    0     -3.28      0.00
    1   13    0     -3.77      0.00
    3   13    0     -5.35      0.00
    5   13    0     -5.91      0.00
    7   13    0     -3.89      0.00
    9   13    0     -0.97      0.00
   11   13    0      0.29      0.00
   13   13    0     -0.22      0.00
   15   13    0     -0.66      0.00
    0   14    0      1.45      0.00
    2   14    0      3.41      0.00
    4   14    0      7.49      0.00
    6   14    0     10.27      0.00
    8   14    0      9.93      0.00
   10   14    0      7.30      0.00
    1   15    0      4.66      0.00
    3   15    0      2.72      0.00
  -29    1    1      4.59      0.00
  -27    1    1      7.82      0.00
  -25    1    1      8.36      0.00
  -23    1    1      5.70      0.00
  -21    1    1      1.57      0.00
  -19    1    1     -1.39      0.00
  -17    1    1     -2.00      0.00
  -15    1    1     -2.03      0.00
  -13    1    1     -3.14      0.00
  -11    1    1     -2.83      0.00
   -9    1    1      0.20      0.00
   -5    1    1    -35.12      0.00
   -3    1    1    -87.66      0.00
   -1    1    1   -127.88      0.00
    1    1    1   -120.22      0.00
    3    1    1    -68.76      0.00
    5    1    1    -13.80      0.00
    7    1    1     11.95      0.00
   11    1    1      3.44      0.00
   13    1    1      1.07      0.00
   15    1    1      1.02      0.00
   17    1    1     -0.30      0.00
   19    1    1     -1.34      0.00
   21    1    1      0.17      0.00
   23    1    1      3.47      0.00
   25    1    1      6.03      0.00
   27    1    1      6.02      0.00
   29    1    1      3.72      0.00
  -28    2    1     -3.63      0.00
  -26    2    1     -5.80      0.00
  -24    2    1     -5.45      0.00
  -22    2    1     -3.40      0.00
  -20    2    1     -2.12      0.00
  -18    2    1     -2.58      0.00
  -16    2    1     -2.51      0.00
  -14    2    1      0.38      0.00
  -12    2    1      3.03      0.00
  -10    2    1     -0.70      0.00
   -8    2    1     -7.29      0.00
   -4    2    1     38.96      0.00
   -2    2    1     88.50      0.00
    0    2    1    111.56      0.00
    2    2    1     88.02      0.00
    4    2    1     39.13      0.00
    6    2    1      2.74      0.00
    8    2    1     -6.13      0.00
   10    2    1     -1.05      0.00
   12    2    1      1.36      0.00
   14    2    1     -0.97      0.00
   16    2    1     -2.23      0.00
   18    2    1     -0.99      0.00
   20    2    1     -0.68      0.00
   22    2    1     -3.14      0.00
   24    2    1     -6.13      0.00
   26    2    1     -6.51      0.00
   28    2    1     -3.89      0.00
  -29    3    1     -0.02      0.00
  -27    3    1      0.91      0.00
  -25    3    1     -0.47      0.00
  -23    3    1     -4.39      0.00
  -21    3    1     -7.28      0.00
  -19    3    1     -5.65      0.00
  -17    3    1     -1.15      0.00
  -15    3    1      0.76      0.00
  -13    3    1     -1.99      0.00
  -11    3    1     -4.99      0.00
   -9    3    1     -2.79      0.00
   -7    3    1      4.28      0.00
   -5    3    1     11.10      0.00
   -3    3    1     14.29      0.00
   -1    3    1     15.33      0.00
    1    3    1     16.89      0.00
    3    3    1     18.00      0.00
    5    3    1     14.70      0.00
    7    3    1      5.88      0.00
    9    3    1     -3.37      0.00
   11    3    1     -6.43      0.00
   13    3    1     -2.84      0.00
   15    3    1      0.93      0.00
   17    3    1     -0.48      0.00
   19    3    1     -5.00      0.00
   21    3    1     -6.73      0.00
   23    3    1     -3.85      0.00
   25    3    1     -0.02      0.00
   27    3    1      1.09      0.00
  -28    4    1     -0.61      0.00
  -26    4    1     -1.24      0.00
  -24    4    1     -1.57      0.00
  -22    4    1     -1.59      0.00
  -20    4    1     -2.70      0.00
  -18    4    1     -5.11      0.00
  -16    4    1     -6.29      0.00
  -14    4    1     -4.10      0.00
  -12    4    1      0.33      0.00
  -10    4    1      4.78      0.00
   -8    4    1      8.39      0.00
   -6    4    1      9.93      0.00
   -4    4    1      7.30      0.00
   -2    4    1      1.57      0.00
    0    4    1     -1.79      0.00
    2    4    1      0.76      0.00
    4    4    1      6.24      0.00
    6    4    1      9.69      0.00
    8    4    1      9.82      0.00
   10    4    1      7.71      0.00
   12    4    1      3.57      0.00
   14    4    1     -1.61      0.00
   16    4    1     -4.60      0.00
   18    4    1     -3.55      0.00
   20    4    1     -0.85      0.00
   22    4    1      0.12      0.00
   24    4    1     -0.80      0.00
   26    4    1     -1.75      0.00
   28    4    1     -1.94      0.00
  -27    5    1     -0.61      0.00
  -25    5    1      0.74      0.00
  -23    5    1      1.85      0.00
  -21    5    1      1.88      0.00
  -19    5    1      1.57      0.00
  -17    5    1      1.70      0.00
  -15    5    1      1.77      0.00
  -13    5    1      0.75      0.00
  -11    5    1     -1.67      0.00
   -9    5    1     -4.74      0.00
   -7    5    1     -6.26      0.00
   -5    5    1     -3.36      0.00
   -3    5    1      4.20      0.00
   -1    5    1     11.87      0.00
    1    5    1     13.88      0.00
    3    5    1      9.31      0.00
    5    5    1      2.58      0.00
    7    5    1     -1.75      0.00
    9    5    1     -2.58      0.00
   11    5    1     -0.95      0.00
   13    5    1      1.77      0.00
   15    5    1      4.05      0.00
   17    5    1      4.76      0.00
   19    5    1      4.19      0.00
   21    5    1      3.48      0.00
   23    5    1      2.94      0.00
   25    5    1      2.10      0.00
   27    5    1      1.01      0.00
  -26    6    1     -1.36      0.00
  -24    6    1     -1.26      0.00
  -22    6    1      0.14      0.00
  -20    6    1      2.39      0.00
  -18    6    1      4.15      0.00
  -16    6    1      4.03      0.00
  -14    6    1      1.78      0.00
  -12    6    1     -0.89      0.00
  -10    6    1     -1.29      0.00
   -8    6    1      1.95      0.00
   -6    6    1      7.79      0.00
   -4    6    1     13.93      0.00
   -2    6    1     18.42      0.00
    0    6    1     20.11      0.00
    2    6    1     18.54      0.00
    4    6    1     13.99      0.00
    6    6    1      7.89      0.00
    8    6    1      2.61      0.00
   10    6    1      0.34      0.00
   12    6    1      1.35      0.00
   14    6    1      3.62      0.00
   16    6    1      4.59      0.00
   18    6    1      3.32      0.00
   20    6    1      0.74      0.00
   22    6    1     -1.70      0.00
   24    6    1     -3.11      0.00
   26    6    1     -3.29      0.00
  -25    7    1      3.55      0.00
  -23    7    1      3.74      0.00
  -21    7    1      2.38      0.00
  -19    7    1      0.23      0.00
  -17    7    1     -1.85      0.00
  -15    7    1     -2.29      0.00
  -13    7    1      0.10      0.00
  -11    7    1      4.34      0.00
   -9    7    1      7.72      0.00
   -7    7    1      8.33      0.00
   -5    7    1      6.36      0.00
   -3    7    1      3.36      0.00
   -1    7    1      1.25      0.00
    1    7    1      1.37      0.00
    3    7    1      3.80      0.00
    5    7    1      7.05      0.00
    7    7    1      8.92      0.00
    9    7    1      7.86      0.00
   11    7    1      4.21      0.00
   13    7    1      0.36      0.00
   15    7    1     -1.13      0.00
   17    7    1      0.08      0.00
   19    7    1      2.16      0.00
   21    7    1      3.41      0.00
   23    7    1      3.51      0.00
   25    7    1      2.59      0.00
  -24    8    1      0.57      0.00
  -22    8    1      0.66      0.00
  -20    8    1      0.41      0.00
  -18    8    1      0.51      0.00
  -16    8    1      1.24      0.00
  -14    8    1      1.64      0.00
  -12    8    1      0.79      0.00
  -10    8    1     -0.85      0.00
   -8    8    1     -1.95      0.00
   -6    8    1     -1.57      0.00
   -4    8    1      0.21      0.00
   -2    8    1      2.34      0.00
    0    8    1      3.49      0.00
    2    8    1      2.96      0.00
    4    8    1      1.28      0.00
    6    8    1     -0.34      0.00
    8    8    1     -0.84      0.00
   10    8    1      0.06      0.00
   12    8    1      1.64      0.00
   14    8    1      2.65      0.00
   16    8    1      2.63      0.00
   18    8    1      2.44      0.00
   20    8    1      2.85      0.00
   22    8    1      3.41      0.00
   24    8    1      3.21      0.00
  -23    9    1     -4.46      0.00
  -21    9    1     -1.85      0.00
  -19    9    1      1.35      0.00
  -17    9    1      3.87      0.00
  -15    9    1      5.27      0.00
  -13    9    1      5.07      0.00
  -11    9    1      2.97      0.00
   -9    9    1     -0.03      0.00
   -7    9    1     -1.84      0.00
   -5    9    1     -1.10      0.00
   -3    9    1      1.53      0.00
   -1    9    1      3.93      0.00
    1    9    1      4.20      0.00
    3    9    1      2.05      0.00
    5    9    1     -0.84      0.00
    7    9    1     -2.15      0.00
    9    9    1     -0.96      0.00
   11    9    1      1.61      0.00
   13    9    1      3.89      0.00
   15    9    1      5.11      0.00
   17    9    1      5.13      0.00
   19    9    1      3.64      0.00
   21    9    1      0.72      0.00
   23    9    1     -2.16      0.00
  -22   10    1     -2.62      0.00
  -20   10    1     -1.38      0.00
  -18   10    1      1.37      0.00
  -16   10    1      2.88      0.00
  -14   10    1      2.04      0.00
  -12   10    1      0.61      0.00
  -10   10    1      0.75      0.00
   -8   10    1      2.63      0.00
   -6   10    1      4.65      0.00
   -4   10    1      5.36      0.00
   -2   10    1      4.80      0.00
    0   10    1      4.10      0.00
    2   10    1      4.03      0.00
    4   10    1      4.14      0.00
    6   10    1      3.47      0.00
    8   10    1      1.83      0.00
   10   10    1      0.29      0.00
   12   10    1      0.01      0.00
   14   10    1      0.73      0.00
   16   10    1      0.89      0.00
   18   10    1     -0.46      0.00
   20   10    1     -2.19      0.00
   22   10    1     -2.46      0.00
  -19   11    1      1.19      0.00
  -17   11    1     -0.65      0.00
  -15   11    1     -1.50      0.00
  -13   11    1     -1.80      0.00
  -11   11    1     -1.81      0.00
   -9   11    1     -1.16      0.00
   -7   11    1      0.07      0.00
   -5   11    1      0.97      0.00
   -3   11    1      0.90      0.00
   -1   11    1      0.32      0.00
    1   11    1      0.22      0.00
    3   11    1      0.79      0.00
    5   11    1      0.98      0.00
    7   11    1     -0.07      0.00
    9   11    1     -1.69      0.00
   11   11    1     -2.32      0.00
   13   11    1     -1.50      0.00
   15   11    1     -0.10      0.00
   17   11    1      1.24      0.00
   19   11    1      2.49      0.00
  -18   12    1      2.24      0.00
  -16   12    1      1.70      0.00
  -14   12    1      1.92      0.00
  -12   12    1      2.93      0.00
  -10   12    1      3.21      0.00
   -8   12    1      1.63      0.00
   -6   12    1     -0.87      0.00
   -4   12    1     -2.41      0.00
   -2   12    1     -2.42      0.00
    0   12    1     -2.13      0.00
    2   12    1     -2.49      0.00
    4   12    1     -2.65      0.00
    6   12    1     -1.24      0.00
    8   12    1      1.30      0.00
   10   12    1      2.83      0.00
   12   12    1      2.34      0.00
   14   12    1      1.30      0.00
   16   12    1      1.47      0.00
  -15   13    1      5.82      0.00
  -13   13    1      5.54      0.00
  -11   13    1      5.39      0.00
   -9   13    1      5.24      0.00
   -7   13    1      4.43      0.00
   -5   13    1      2.75      0.00
   -3   13    1      0.84      0.00
   -1   13    1     -0.26      0.00
    1   13    1      0.05      0.00
    3   13    1      1.40      0.00
    5   13    1      2.91      0.00
    7   13    1      3.87      0.00
    9   13    1      4.03      0.00
   11   13    1      3.52      0.00
   13   13    1      2.84      0.00
   15   13    1      2.41      0.00
  -10   14    1     -0.18      0.00
   -8   14    1      0.69      0.00
   -6   14    1      2.01      0.00
   -4   14    1      2.02      0.00
   -2   14    1      0.36      0.00
    0   14    1     -1.03      0.00
    2   14    1     -0.49      0.00
    4   14    1      1.09      0.00
    6   14    1      1.42      0.00
    8   14    1      0.01      0.00
   10   14    1     -1.30      0.00
   -3   15    1      0.05      0.00
   -1   15    1      1.10      0.00
    1   15    1     -0.06      0.00
    3   15    1     -3.18      0.00
  -28    0    2      1.72      0.00
  -26    0    2      5.69      0.00
  -24    0    2      8.66      0.00
  -22    0    2      8.36      0.00
  -20    0    2      4.43      0.00
  -18    0    2     -1.46      0.00
  -16    0    2     -7.42      0.00
  -14    0    2    -12.22      0.00
  -10    0    2    -15.11      0.00
   -6    0    2    -89.34      0.00
   -2    0    2   -299.82      0.00
    0    0    2   -334.27      0.00
    2    0    2   -268.85      0.00
    4    0    2   -149.48      0.00
    6    0    2    -50.90      0.00
    8    0    2     -8.91      0.00
   10    0    2     -6.40      0.00
   12    0    2    -11.65      0.00
   14    0    2    -10.90      0.00
   16    0    2     -6.54      0.00
   18    0    2     -2.38      0.00
   20    0    2      1.00      0.00
   22    0    2      3.32      0.00
   24    0    2      3.68      0.00
   26    0    2      2.19      0.00
   28    0    2      0.45      0.00
  -29    1    2     -0.32      0.00
  -27    1    2     -1.97      0.00
  -25    1    2     -3.06      0.00
  -23    1    2     -2.77      0.00
  -21    1    2     -2.05      0.00
  -19    1    2     -2.14      0.00
  -17    1    2     -2.29      0.00
  -15    1    2     -0.45      0.00
  -13    1    2      2.60      0.00
  -11    1    2      1.81      0.00
   -9    1    2     -4.77      0.00
   -7    1    2     -7.71      0.00
   -5    1    2      6.67      0.00
   -3    1    2     36.24      0.00
   -1    1    2     56.86      0.00
    1    1    2     45.86      0.00
    5    1    2    -22.76      0.00
    7    1    2    -28.89      0.00
    9    1    2    -15.42      0.00
   11    1    2     -2.73      0.00
   13    1    2     -1.07      0.00
   15    1    2     -5.19      0.00
   17    1    2     -6.81      0.00
   19    1    2     -4.47      0.00
   21    1    2     -1.73      0.00
   23    1    2     -0.87      0.00
   25    1    2     -1.06      0.00
   27    1    2     -0.85      0.00
   29    1    2     -0.31      0.00
  -28    2    2     -4.55      0.00
  -26    2    2     -5.12      0.00
  -24    2    2     -4.74      0.00
  -22    2    2     -2.50      0.00
  -20    2    2      2.55      0.00
  -18    2    2      8.43      0.00
  -16    2    2     10.39      0.00
  -14    2    2      5.72      0.00
  -12    2    2     -3.32      0.00
  -10    2    2    -11.80      0.00
   -8    2    2    -14.81      0.00
   -6    2    2     -8.15      0.00
   -4    2    2      7.91      0.00
   -2    2    2     23.73      0.00
    0    2    2     25.23      0.00
    2    2    2      8.30      0.00
    4    2    2    -15.38      0.00
    6    2    2    -30.22      0.00
    8    2    2    -30.84      0.00
   10    2    2    -22.13      0.00
   12    2    2    -10.77      0.00
   14    2    2     -1.51      0.00
   16    2    2      2.25      0.00
   18    2    2     -0.01      0.00
   20    2    2     -4.54      0.00
   22    2    2     -6.79      0.00
   24    2    2     -5.94      0.00
   26    2    2     -4.18      0.00
   28    2    2     -2.97      0.00
  -29    3    2      2.59      0.00
  -27    3    2      2.81      0.00
  -25    3    2      2.64      0.00
  -23    3    2      2.94      0.00
  -21    3    2      3.28      0.00
  -19    3    2      2.14      0.00
  -17    3    2     -0.61      0.00
  -15    3    2     -3.05      0.00
  -13    3    2     -2.35      0.00
  -11    3    2      4.01      0.00
   -9    3    2     14.72      0.00
   -7    3    2     19.93      0.00
   -5    3    2      6.53      0.00
   -3    3    2    -24.83      0.00
   -1    3    2    -52.43      0.00
    1    3    2    -53.02      0.00
    3    3    2    -27.62      0.00
    5    3    2      0.44      0.00
    7    3    2     12.10      0.00
    9    3    2      8.54      0.00
   11    3    2      1.22      0.00
   13    3    2     -3.15      0.00
   15    3    2     -4.45      0.00
   17    3    2     -3.72      0.00
   19    3    2     -1.79      0.00
   21    3    2     -0.20      0.00
   23    3    2      0.11      0.00
   25    3    2     -0.24      0.00
   27    3    2     -0.35      0.00
  -28    4    2      0.04      0.00
  -26    4    2      1.34      0.00
  -24    4    2      3.13      0.00
  -22    4    2      3.44      0.00
  -20    4    2      1.32      0.00
  -18    4    2     -1.74      0.00
  -16    4    2     -3.11      0.00
  -14    4    2     -2.32      0.00
  -12    4    2     -2.76      0.00
  -10    4    2     -8.58      0.00
   -8    4    2    -18.84      0.00
   -6    4    2    -26.29      0.00
   -4    4    2    -24.71      0.00
   -2    4    2    -17.11      0.00
    0    4    2    -13.20      0.00
    2    4    2    -17.83      0.00
    4    4    2    -24.91      0.00
    6    4    2    -25.05      0.00
    8    4    2    -16.81      0.00
   10    4    2     -7.23      0.00
   12    4    2     -2.80      0.00
   14    4    2     -3.14      0.00
   16    4    2     -3.87      0.00
   18    4    2     -2.56      0.00
   20    4    2     -0.29      0.00
   22    4    2      1.11      0.00
   24    4    2      1.30      0.00
   26    4    2      1.11      0.00
   28    4    2      1.04      0.00
  -27    5    2      5.27      0.00
  -25    5    2      4.91      0.00
  -23    5    2      3.30      0.00
  -21    5    2      2.08      0.00
  -19    5    2      2.64      0.00
  -17    5    2      3.68      0.00
  -15    5    2      2.01      0.00
  -13    5    2     -3.13      0.00
  -11    5    2     -8.37      0.00
   -9    5    2     -9.78      0.00
   -7    5    2     -6.63      0.00
   -5    5    2     -0.81      0.00
   -3    5    2      5.27      0.00
   -1    5    2      9.14      0.00
    1    5    2      8.65      0.00
    3    5    2      3.36      0.00
    5    5    2     -4.79      0.00
    7    5    2    -12.16      0.00
    9    5    2    -14.83      0.00
   11    5    2    -10.89      0.00
   13    5    2     -3.08      0.00
   15    5    2      2.33      0.00
   17    5    2      1.56      0.00
   19    5    2     -2.75      0.00
   21    5    2     -5.10      0.00
   23    5    2     -3.47      0.00
   25    5    2     -0.25      0.00
   27    5    2      1.64      0.00
  -26    6    2      1.73      0.00
  -24    6    2      2.21      0.00
  -22    6    2      1.92      0.00
  -20    6    2      0.22      0.00
  -18    6    2     -3.26      0.00
  -16    6    2     -6.62      0.00
  -14    6    2     -6.77      0.00
  -12    6    2     -3.15      0.00
  -10    6    2      1.48      0.00
   -8    6    2      3.99      0.00
   -6    6    2      3.19      0.00
   -4    6    2     -0.30      0.00
   -2    6    2     -4.71      0.00
    0    6    2     -7.63      0.00
    2    6    2     -7.48      0.00
    4    6    2     -4.69      0.00
    6    6    2     -1.22      0.00
    8    6    2      0.74      0.00
   10    6    2     -0.21      0.00
   12    6    2     -3.61      0.00
   14    6    2     -6.72      0.00
   16    6    2     -6.85      0.00
   18    6    2     -4.42      0.00
   20    6    2     -2.27      0.00
   22    6    2     -1.91      0.00
   24    6    2     -2.37      0.00
   26    6    2     -2.29      0.00
  -25    7    2     -5.99      0.00
  -23    7    2     -6.98      0.00
  -21    7    2     -8.58      0.00
  -19    7    2     -9.14      0.00
  -17    7    2     -7.11      0.00
  -15    7    2     -3.00      0.00
  -13    7    2      1.02      0.00
  -11    7    2      2.99      0.00
   -9    7    2      2.37      0.00
   -7    7    2      0.00      0.00
   -5    7    2     -2.63      0.00
   -3    7    2     -4.25      0.00
   -1    7    2     -4.41      0.00
    1    7    2     -3.30      0.00
    3    7    2     -1.33      0.00
    5    7    2      0.99      0.00
    7    7    2      2.93      0.00
    9    7    2      3.86      0.00
   11    7    2      3.40      0.00
   13    7    2      1.38      0.00
   15    7    2     -1.84      0.00
   17    7    2     -4.92      0.00
   19    7    2     -6.00      0.00
   21    7    2     -4.51      0.00
   23    7    2     -1.95      0.00
   25    7    2     -0.41      0.00
  -24    8    2     -1.23      0.00
  -22    8    2      1.67      0.00
  -20    8    2      3.10      0.00
  -18    8    2      1.82      0.00
  -16    8    2     -1.08      0.00
  -14    8    2     -4.18      0.00
  -12    8    2     -6.81      0.00
  -10    8    2     -8.45      0.00
   -8    8    2     -8.40      0.00
   -6    8    2     -6.50      0.00
   -4    8    2     -3.49      0.00
   -2    8    2     -0.76      0.00
    0    8    2      0.26      0.00
    2    8    2     -1.14      0.00
    4    8    2     -4.17      0.00
    6    8    2     -6.84      0.00
    8    8    2     -7.58      0.00
   10    8    2     -6.49      0.00
   12    8    2     -4.85      0.00
   14    8    2     -3.43      0.00
   16    8    2     -1.88      0.00
   18    8    2      0.08      0.00
   20    8    2      1.48      0.00
   22    8    2      1.21      0.00
   24    8    2     -0.30      0.00
  -23    9    2      9.85      0.00
  -21    9    2      9.18      0.00
  -19    9    2      7.95      0.00
  -17    9    2      5.89      0.00
  -15    9    2      3.04      0.00
  -13    9    2      0.71      0.00
  -11    9    2      0.10      0.00
   -9    9    2      0.89      0.00
   -7    9    2      1.75      0.00
   -5    9    2      1.70      0.00
   -3    9    2      0.94      0.00
   -1    9    2      0.42      0.00
    1    9    2      0.82      0.00
    3    9    2      1.71      0.00
    5    9    2      1.93      0.00
    7    9    2      0.95      0.00
    9    9    2     -0.58      0.00
   11    9    2     -1.34      0.00
   13    9    2     -0.60      0.00
   15    9    2      1.02      0.00
   17    9    2      2.20      0.00
   19    9    2      2.43      0.00
   21    9    2      2.59      0.00
   23    9    2      3.32      0.00
  -22   10    2     -5.48      0.00
  -20   10    2     -7.81      0.00
  -18   10    2     -7.83      0.00
  -16   10    2     -5.80      0.00
  -14   10    2     -3.47      0.00
  -12   10    2     -2.16      0.00
  -10   10    2     -1.94      0.00
   -8   10    2     -2.22      0.00
   -6   10    2     -2.56      0.00
   -4   10    2     -2.83      0.00
   -2   10    2     -3.01      0.00
    0   10    2     -2.91      0.00
    2   10    2     -2.24      0.00
    4   10    2     -1.06      0.00
    6   10    2     -0.02      0.00
    8   10    2      0.44      0.00
   10   10    2      0.49      0.00
   12   10    2      0.08      0.00
   14   10    2     -1.66      0.00
   16   10    2     -4.98      0.00
   18   10    2     -8.26      0.00
   20   10    2     -9.33      0.00
  -19   11    2      4.42      0.00
  -17   11    2      3.87      0.00
  -15   11    2      4.56      0.00
  -13   11    2      6.05      0.00
  -11   11    2      6.16      0.00
   -9   11    2      3.63      0.00
   -7   11    2     -0.44      0.00
   -5   11    2     -3.77      0.00
   -3   11    2     -4.96      0.00
   -1   11    2     -4.42      0.00
    1   11    2     -3.48      0.00
    3   11    2     -2.71      0.00
    5   11    2     -1.48      0.00
    7   11    2      0.70      0.00
    9   11    2      3.10      0.00
   11   11    2      4.54      0.00
   13   11    2      5.01      0.00
   15   11    2      5.52      0.00
   17   11    2      6.39      0.00
   19   11    2      6.50      0.00
  -18   12    2      6.98      0.00
  -16   12    2      6.46      0.00
  -14   12    2      4.14      0.00
  -12   12    2      2.04      0.00
  -10   12    2      0.95      0.00
   -8   12    2      0.16      0.00
   -6   12    2     -0.83      0.00
   -4   12    2     -1.53      0.00
   -2   12    2     -1.41      0.00
    0   12    2     -0.99      0.00
    2   12    2     -1.24      0.00
    4   12    2     -2.22      0.00
    6   12    2     -2.94      0.00
    8   12    2     -2.82      0.00
   10   12    2     -2.53      0.00
   12   12    2     -2.67      0.00
   14   12    2     -2.66      0.00
   16   12    2     -1.76      0.00
  -15   13    2      2.94      0.00
  -13   13    2      3.00      0.00
  -11   13    2      1.60      0.00
   -9   13    2      0.85      0.00
   -7   13    2      1.92      0.00
   -5   13    2      3.41      0.00
   -3   13    2      3.56      0.00
   -1   13    2      3.01      0.00
    1   13    2      3.92      0.00
    3   13    2      6.41      0.00
    5   13    2      7.65      0.00
    7   13    2      5.46      0.00
    9   13    2      1.51      0.00
   11   13    2     -0.79      0.00
   13   13    2     -0.63      0.00
  -10   14    2     -4.90      0.00
   -8   14    2     -5.94      0.00
   -6   14    2     -5.17      0.00
   -4   14    2     -2.56      0.00
   -2   14    2     -0.05      0.00
    0   14    2     -0.39      0.00
    2   14    2     -4.27      0.00
    4   14    2     -9.06      0.00
    6   14    2    -11.31      0.00
    8   14    2     -9.99      0.00
   10   14    2     -6.81      0.00
   -3   15    2     -3.59      0.00
   -1   15    2     -4.12      0.00
    1   15    2     -2.47      0.00
    3   15    2      0.10      0.00
  -29    1    3     -4.08      0.00
  -27    1    3     -7.32      0.00
  -25    1    3     -7.62      0.00
  -23    1    3     -4.78      0.00
  -21    1    3     -0.52      0.00
  -19    1    3      2.85      0.00
  -17    1    3      4.23      0.00
  -15    1    3      4.98      0.00
  -13    1    3      6.57      0.00
  -11    1    3      6.90      0.00
   -9    1    3      4.61      0.00
   -7    1    3      8.37      0.00
   -5    1    3     31.60      0.00
   -3    1    3     70.07      0.00
   -1    1    3     94.04      0.00
    1    1    3     76.83      0.00
    9    1    3    -19.27      0.00
   11    1    3     -8.43      0.00
   13    1    3     -4.46      0.00
   15    1    3     -2.72      0.00
   17    1    3      0.71      0.00
   19    1    3      3.81      0.00
   21    1    3      3.74      0.00
   23    1    3      0.84      0.00
   25    1    3     -2.33      0.00
   27    1    3     -3.56      0.00
   29    1    3     -2.58      0.00
  -28    2    3      2.90      0.00
  -26    2    3      4.43      0.00
  -24    2    3      3.77      0.00
  -22    2    3      2.20      0.00
  -20    2    3      1.53      0.00
  -18    2    3      1.83      0.00
  -16    2    3      0.94      0.00
  -14    2    3     -2.36      0.00
  -12    2    3     -4.28      0.00
  -10    2    3      1.02      0.00
   -8    2    3      9.65      0.00
   -6    2    3      4.10      0.00
   -4    2    3    -28.03      0.00
   -2    2    3    -71.54      0.00
    0    2    3    -91.97      0.00
    2    2    3    -72.08      0.00
    4    2    3    -31.07      0.00
    6    2    3     -1.18      0.00
    8    2    3      6.06      0.00
   10    2    3      2.61      0.00
   12    2    3      1.16      0.00
   14    2    3      1.98      0.00
   16    2    3      0.68      0.00
   18    2    3     -1.96      0.00
   20    2    3     -1.81      0.00
   22    2    3      1.98      0.00
   24    2    3      5.85      0.00
   26    2    3      6.25      0.00
   28    2    3      3.37      0.00
  -29    3    3     -0.88      0.00
  -27    3    3     -2.15      0.00
  -25    3    3     -1.45      0.00
  -23    3    3      1.68      0.00
  -21    3    3      4.34      0.00
  -19    3    3      3.45      0.00
  -17    3    3      0.17      0.00
  -15    3    3     -1.06      0.00
  -13    3    3      1.72      0.00
  -11    3    3      5.22      0.00
   -9    3    3      5.30      0.00
   -7    3    3      2.04      0.00
   -5    3    3     -1.24      0.00
   -3    3    3     -2.97      0.00
   -1    3    3     -5.00      0.00
    1    3    3     -8.98      0.00
    3    3    3    -12.56      0.00
    5    3    3    -10.96      0.00
    7    3    3     -3.12      0.00
    9    3    3      5.37      0.00
   11    3    3      7.47      0.00
   13    3    3      2.75      0.00
   15    3    3     -2.15      0.00
   17    3    3     -1.78      0.00
   19    3    3      1.88      0.00
   21    3    3      3.23      0.00
   23    3    3      0.73      0.00
   25    3    3     -2.08      0.00
   27    3    3     -2.09      0.00
  -28    4    3      0.36      0.00
  -26    4    3      1.77      0.00
  -24    4    3      2.80      0.00
  -22    4    3      2.89      0.00
  -20    4    3      3.61      0.00
  -18    4    3      5.99      0.00
  -16    4    3      7.89      0.00
  -14    4    3      6.47      0.00
  -12    4    3      1.64      0.00
  -10    4    3     -4.68      0.00
   -8    4    3    -10.39      0.00
   -6    4    3    -12.71      0.00
   -4    4    3     -9.10      0.00
   -2    4    3     -1.54      0.00
    0    4    3      3.34      0.00
    2    4    3      1.25      0.00
    4    4    3     -5.18      0.00
    6    4    3    -10.69      0.00
    8    4    3    -12.78      0.00
   10    4    3    -11.10      0.00
   12    4    3     -5.70      0.00
   14    4    3      1.09      0.00
   16    4    3      4.64      0.00
   18    4    3      3.07      0.00
   20    4    3     -0.17      0.00
   22    4    3     -0.89      0.00
   24    4    3      1.02      0.00
   26    4    3      2.92      0.00
   28    4    3      3.38      0.00
  -27    5    3      2.55      0.00
  -25    5    3      0.69      0.00
  -23    5    3     -0.70      0.00
  -21    5    3     -0.19      0.00
  -19    5    3      0.92      0.00
  -17    5    3      0.75      0.00
  -15    5    3     -0.45      0.00
  -13    5    3     -0.72      0.00
  -11    5    3      1.48      0.00
   -9    5    3      5.81      0.00
   -7    5    3      9.46      0.00
   -5    5    3      8.39      0.00
   -3    5    3      1.24      0.00
   -1    5    3     -7.99      0.00
    1    5    3    -13.09      0.00
    3    5    3    -11.60      0.00
    5    5    3     -6.24      0.00
    7    5    3     -1.10      0.00
    9    5    3      1.46      0.00
   11    5    3      0.76      0.00
   13    5    3     -2.38      0.00
   15    5    3     -5.58      0.00
   17    5    3     -6.55      0.00
   19    5    3     -5.32      0.00
   21    5    3     -3.77      0.00
   23    5    3     -3.02      0.00
   25    5    3     -2.56      0.00
   27    5    3     -1.68      0.00
  -26    6    3     -0.56      0.00
  -24    6    3     -0.09      0.00
  -22    6    3     -1.04      0.00
  -20    6    3     -2.61      0.00
  -18    6    3     -3.15      0.00
  -16    6    3     -1.62      0.00
  -14    6    3      1.37      0.00
  -12    6    3      3.63      0.00
  -10    6    3      3.04      0.00
   -8    6    3     -0.55      0.00
   -6    6    3     -5.38      0.00
   -4    6    3     -9.63      0.00
   -2    6    3    -12.56      0.00
    0    6    3    -13.99      0.00
    2    6    3    -13.49      0.00
    4    6    3    -10.80      0.00
    6    6    3     -6.69      0.00
    8    6    3     -3.04      0.00
   10    6    3     -1.50      0.00
   12    6    3     -2.06      0.00
   14    6    3     -2.99      0.00
   16    6    3     -2.61      0.00
   18    6    3     -0.82      0.00
   20    6    3      1.27      0.00
   22    6    3      2.78      0.00
   24    6    3      3.52      0.00
   26    6    3      3.48      0.00
  -25    7    3     -3.91      0.00
  -23    7    3     -2.64      0.00
  -21    7    3      0.19      0.00
  -19    7    3      2.96      0.00
  -17    7    3      4.67      0.00
  -15    7    3      4.28      0.00
  -13    7    3      1.40      0.00
  -11    7    3     -2.56      0.00
   -9    7    3     -5.21      0.00
   -7    7    3     -5.41      0.00
   -5    7    3     -3.74      0.00
   -3    7    3     -1.35      0.00
   -1    7    3      0.50      0.00
    1    7    3      0.52      0.00
    3    7    3     -1.78      0.00
    5    7    3     -5.18      0.00
    7    7    3     -7.35      0.00
    9    7    3     -6.60      0.00
   11    7    3     -3.37      0.00
   13    7    3     -0.07      0.00
   15    7    3      1.01      0.00
   17    7    3     -0.18      0.00
   19    7    3     -1.82      0.00
   21    7    3     -2.55      0.00
   23    7    3     -2.43      0.00
   25    7    3     -1.79      0.00
  -24    8    3      0.49      0.00
  -22    8    3     -0.14      0.00
  -20    8    3     -0.04      0.00
  -18    8    3      0.01      0.00
  -16    8    3     -0.61      0.00
  -14    8    3     -1.24      0.00
  -12    8    3     -1.00      0.00
  -10    8    3      0.03      0.00
   -8    8    3      1.01      0.00
   -6    8    3      1.10      0.00
   -4    8    3      0.02      0.00
   -2    8    3     -1.77      0.00
    0    8    3     -3.25      0.00
    2    8    3     -3.62      0.00
    4    8    3     -2.95      0.00
    6    8    3     -1.97      0.00
    8    8    3     -1.50      0.00
   10    8    3     -1.95      0.00
   12    8    3     -3.00      0.00
   14    8    3     -3.87      0.00
   16    8    3     -4.29      0.00
   18    8    3     -4.78      0.00
   20    8    3     -5.59      0.00
   22    8    3     -5.89      0.00
   24    8    3     -4.86      0.00
  -23    9    3      6.07      0.00
  -21    9    3      3.63      0.00
  -19    9    3      0.31      0.00
  -17    9    3     -2.86      0.00
  -15    9    3     -5.24      0.00
  -13    9    3     -5.78      0.00
  -11    9    3     -3.88      0.00
   -9    9    3     -0.62      0.00
   -7    9    3      1.77      0.00
   -5    9    3      1.81      0.00
   -3    9    3     -0.25      0.00
   -1    9    3     -2.73      0.00
    1    9    3     -3.63      0.00
    3    9    3     -2.18      0.00
    5    9    3      0.34      0.00
    7    9    3      1.72      0.00
    9    9    3      1.05      0.00
   11    9    3     -0.79      0.00
   13    9    3     -2.76      0.00
   15    9    3     -4.51      0.00
   17    9    3     -5.61      0.00
   19    9    3     -5.05      0.00
   21    9    3     -2.58      0.00
   23    9    3      0.26      0.00
  -22   10    3      2.97      0.00
  -20   10    3      1.64      0.00
  -18   10    3     -1.12      0.00
  -16   10    3     -2.29      0.00
  -14   10    3     -1.04      0.00
  -12   10    3      0.43      0.00
  -10   10    3     -0.12      0.00
   -8   10    3     -2.52      0.00
   -6   10    3     -4.77      0.00
   -4   10    3     -5.18      0.00
   -2   10    3     -3.85      0.00
    0   10    3     -2.30      0.00
    2   10    3     -1.76      0.00
    4   10    3     -1.95      0.00
    6   10    3     -1.75      0.00
    8   10    3     -0.72      0.00
   10   10    3      0.40      0.00
   12   10    3      0.83      0.00
   14   10    3      0.81      0.00
   16   10    3      1.16      0.00
   18   10    3      1.99      0.00
   20   10    3      2.34      0.00
  -19   11    3      1.41      0.00
  -17   11    3      2.68      0.00
  -15   11    3      1.99      0.00
  -13   11    3      0.71      0.00
  -11   11    3      0.14      0.00
   -9   11    3      0.13      0.00
   -7   11    3     -0.08      0.00
   -5   11    3     -0.57      0.00
   -3   11    3     -0.71      0.00
   -1   11    3     -0.30      0.00
    1   11    3     -0.04      0.00
    3   11    3     -0.42      0.00
    5   11    3     -0.66      0.00
    7   11    3      0.25      0.00
    9   11    3      1.71      0.00
   11   11    3      2.03      0.00
   13   11    3      0.85      0.00
   15   11    3     -0.52      0.00
   17   11    3     -1.08      0.00
   19   11    3     -1.05      0.00
  -18   12    3     -0.16      0.00
  -16   12    3      0.24      0.00
  -14   12    3     -0.32      0.00
  -12   12    3     -1.76      0.00
  -10   12    3     -2.73      0.00
   -8   12    3     -2.13      0.00
   -6   12    3     -0.56      0.00
   -4   12    3      0.34      0.00
   -2   12    3     -0.03      0.00
    0   12    3     -0.48      0.00
    2   12    3      0.14      0.00
    4   12    3      1.01      0.00
    6   12    3      0.42      0.00
    8   12    3     -1.28      0.00
   10   12    3     -1.81      0.00
   12   12    3     -0.28      0.00
   14   12    3      1.31      0.00
   16   12    3      0.90      0.00
  -15   13    3     -6.47      0.00
  -13   13    3     -5.10      0.00
  -11   13    3     -3.84      0.00
   -9   13    3     -2.96      0.00
   -7   13    3     -1.78      0.00
   -5   13    3     -0.02      0.00
   -3   13    3      1.59      0.00
   -1   13    3      1.97      0.00
    1   13    3      1.00      0.00
    3   13    3     -0.31      0.00
    5   13    3     -0.94      0.00
    7   13    3     -0.86      0.00
    9   13    3     -0.48      0.00
   11   13    3      0.08      0.00
   13   13    3      0.76      0.00
  -10   14    3     -0.27      0.00
   -8   14    3     -0.02      0.00
   -6   14    3     -0.93      0.00
   -4   14    3     -1.25      0.00
   -2   14    3      0.26      0.00
    0   14    3      2.17      0.00
    2   14    3      2.12      0.00
    4   14    3      0.31      0.00
    6   14    3     -0.67      0.00
    8   14    3      0.41      0.00
   10   14    3      1.73      0.00
   -3   15    3     -2.39      0.00
   -1   15    3     -1.56      0.00
    1   15    3      1.28      0.00
    3   15    3      5.60      0.00
  -28    0    4     -2.33      0.00
  -26    0    4     -5.72      0.00
  -24    0    4     -7.56      0.00
  -22    0    4     -6.62      0.00
  -20    0    4     -2.92      0.00
  -18    0    4      2.11      0.00
  -16    0    4      6.99      0.00
  -14    0    4     11.00      0.00
  -12    0    4     12.70      0.00
  -10    0    4     12.62      0.00
   -8    0    4     22.46      0.00
   -6    0    4     63.24      0.00
   -4    0    4    138.86      0.00
   -2    0    4    212.62      0.00
    0    0    4    229.62      0.00
    2    0    4    172.18      0.00
    4    0    4     81.52      0.00
    6    0    4     15.65      0.00
    8    0    4     -4.28      0.00
   10    0    4      1.63      0.00
   12    0    4      7.75      0.00
   14    0    4      7.09      0.00
   16    0    4      4.75      0.00
   18    0    4      3.84      0.00
   20    0    4      3.11      0.00
   22    0    4      1.55      0.00
   24    0    4     -0.01      0.00
   26    0    4     -0.61      0.00
   28    0    4     -0.56      0.00
  -29    1    4     -0.74      0.00
  -27    1    4      1.23      0.00
  -25    1    4      2.68      0.00
  -23    1    4      2.50      0.00
  -21    1    4      1.24      0.00
  -19    1    4      0.10      0.00
  -17    1    4     -0.83      0.00
  -15    1    4     -2.73      0.00
  -13    1    4     -5.35      0.00
  -11    1    4     -5.64      0.00
   -9    1    4     -2.96      0.00
   -7    1    4     -4.84      0.00
   -5    1    4    -20.75      0.00
   -3    1    4    -46.06      0.00
   -1    1    4    -59.15      0.00
    1    1    4    -42.75      0.00
    3    1    4     -5.96      0.00
    9    1    4     14.03      0.00
   11    1    4      2.68      0.00
   13    1    4      1.56      0.00
   15    1    4      5.14      0.00
   17    1    4      5.88      0.00
   19    1    4      2.93      0.00
   21    1    4     -0.11      0.00
   23    1    4     -1.03      0.00
   25    1    4     -0.68      0.00
   27    1    4     -0.51      0.00
  -28    2    4      1.70      0.00
  -26    2    4      0.98      0.00
  -24    2    4     -0.37      0.00
  -22    2    4     -2.78      0.00
  -20    2    4     -7.21      0.00
  -18    2    4    -12.14      0.00
  -16    2    4    -13.31      0.00
  -14    2    4     -8.11      0.00
  -12    2    4      1.19      0.00
  -10    2    4      9.61      0.00
   -8    2    4     12.33      0.00
   -6    2    4      6.15      0.00
   -4    2    4     -7.21      0.00
   -2    2    4    -18.11      0.00
    0    2    4    -15.01      0.00
    2    2    4      3.11      0.00
    4    2    4     24.05      0.00
    6    2    4     34.57      0.00
    8    2    4     31.95      0.00
   10    2    4     21.89      0.00
   12    2    4     10.48      0.00
   14    2    4      1.65      0.00
   16    2    4     -1.81      0.00
   18    2    4      0.11      0.00
   20    2    4      3.56      0.00
   22    2    4      4.56      0.00
   24    2    4      3.03      0.00
   26    2    4      1.41      0.00
   28    2    4      0.86      0.00
  -29    3    4     -3.05      0.00
  -27    3    4     -3.08      0.00
  -25    3    4     -2.56      0.00
  -23    3    4     -2.91      0.00
  -21    3    4     -3.68      0.00
  -19    3    4     -2.71      0.00
  -17    3    4      0.39      0.00
  -15    3    4      2.92      0.00
  -13    3    4      1.11      0.00
  -11    3    4     -7.44      0.00
   -9    3    4    -20.44      0.00
   -7    3    4    -27.90      0.00
   -5    3    4    -17.84      0.00
   -3    3    4      8.67      0.00
   -1    3    4     32.38      0.00
    1    3    4     33.66      0.00
    3    3    4     14.12      0.00
    5    3    4     -6.59      0.00
    7    3    4    -13.67      0.00
    9    3    4     -8.99      0.00
   11    3    4     -1.76      0.00
   13    3    4      3.13      0.00
   15    3    4      5.35      0.00
   17    3    4      5.13      0.00
   19    3    4      3.26      0.00
   21    3    4      1.77      0.00
   23    3    4      1.78      0.00
   25    3    4      2.35      0.00
   27    3    4      2.15      0.00
  -28    4    4      1.09      0.00
  -26    4    4     -0.49      0.00
  -24    4    4     -2.45      0.00
  -22    4    4     -2.62      0.00
  -20    4    4     -0.51      0.00
  -18    4    4      1.89      0.00
  -16    4    4      2.22      0.00
  -14    4    4      0.72      0.00
  -12    4    4      0.81      0.00
  -10    4    4      5.81      0.00
   -8    4    4     14.27      0.00
   -6    4    4     19.68      0.00
   -4    4    4     17.11      0.00
   -2    4    4      9.72      0.00
    0    4    4      6.12      0.00
    2    4    4     10.32      0.00
    4    4    4     16.96      0.00
    6    4    4     18.08      0.00
    8    4    4     12.49      0.00
   10    4    4      5.86      0.00
   12    4    4      3.15      0.00
   14    4    4      3.81      0.00
   16    4    4      4.49      0.00
   18    4    4      3.65      0.00
   20    4    4      2.20      0.00
   22    4    4      1.18      0.00
   24    4    4      0.48      0.00
   26    4    4     -0.26      0.00
  -27    5    4     -7.64      0.00
  -25    5    4     -7.25      0.00
  -23    5    4     -5.69      0.00
  -21    5    4     -4.07      0.00
  -19    5    4     -3.60      0.00
  -17    5    4     -3.56      0.00
  -15    5    4     -1.70      0.00
  -13    5    4      2.50      0.00
  -11    5    4      6.39      0.00
   -9    5    4      7.17      0.00
   -7    5    4      4.61      0.00
   -5    5    4      0.19      0.00
   -3    5    4     -4.50      0.00
   -1    5    4     -7.62      0.00
    1    5    4     -7.05      0.00
    3    5    4     -1.96      0.00
    5    5    4      6.00      0.00
    7    5    4     13.07      0.00
    9    5    4     15.08      0.00
   11    5    4     10.35      0.00
   13    5    4      2.26      0.00
   15    5    4     -2.68      0.00
   17    5    4     -1.18      0.00
   19    5    4      3.42      0.00
   21    5    4      5.49      0.00
   23    5    4      3.37      0.00
   25    5    4     -0.16      0.00
   27    5    4     -2.12      0.00
  -26    6    4     -4.18      0.00
  -24    6    4     -4.01      0.00
  -22    6    4     -3.29      0.00
  -20    6    4     -1.64      0.00
  -18    6    4      1.75      0.00
  -16    6    4      5.50      0.00
  -14    6    4      6.47      0.00
  -12    6    4      3.53      0.00
  -10    6    4     -1.07      0.00
   -8    6    4     -4.33      0.00
   -6    6    4     -4.74      0.00
   -4    6    4     -2.23      0.00
   -2    6    4      2.10      0.00
    0    6    4      5.99      0.00
    2    6    4      7.29      0.00
    4    6    4      5.60      0.00
    6    6    4      2.42      0.00
    8    6    4      0.07      0.00
   10    6    4      0.37      0.00
   12    6    4      3.10      0.00
   14    6    4      5.72      0.00
   16    6    4      5.83      0.00
   18    6    4      3.92      0.00
   20    6    4      2.45      0.00
   22    6    4      2.39      0.00
   24    6    4      2.47      0.00
   26    6    4      1.57      0.00
  -25    7    4      5.68      0.00
  -23    7    4      5.03      0.00
  -21    7    4      5.48      0.00
  -19    7    4      5.72      0.00
  -17    7    4      4.09      0.00
  -15    7    4      0.76      0.00
  -13    7    4     -2.52      0.00
  -11    7    4     -4.09      0.00
   -9    7    4     -3.50      0.00
   -7    7    4     -1.56      0.00
   -5    7    4      0.38      0.00
   -3    7    4      1.24      0.00
   -1    7    4      0.84      0.00
    1    7    4     -0.45      0.00
    3    7    4     -2.09      0.00
    5    7    4     -3.53      0.00
    7    7    4     -4.35      0.00
    9    7    4     -4.50      0.00
   11    7    4     -4.11      0.00
   13    7    4     -3.08      0.00
   15    7    4     -1.21      0.00
   17    7    4      0.88      0.00
   19    7    4      1.83      0.00
   21    7    4      1.04      0.00
   23    7    4     -0.42      0.00
   25    7    4     -0.95      0.00
  -24    8    4      0.57      0.00
  -22    8    4     -3.81      0.00
  -20    8    4     -6.35      0.00
  -18    8    4     -5.21      0.00
  -16    8    4     -1.55      0.00
  -14    8    4      2.53      0.00
  -12    8    4      5.56      0.00
  -10    8    4      6.72      0.00
   -8    8    4      6.03      0.00
   -6    8    4      4.31      0.00
   -4    8    4      2.49      0.00
   -2    8    4      1.01      0.00
    0    8    4      0.28      0.00
    2    8    4      0.90      0.00
    4    8    4      2.65      0.00
    6    8    4      4.24      0.00
    8    8    4      4.59      0.00
   10    8    4      3.99      0.00
   12    8    4      3.28      0.00
   14    8    4      2.46      0.00
   16    8    4      0.86      0.00
   18    8    4     -1.40      0.00
   20    8    4     -2.92      0.00
   22    8    4     -2.53      0.00
   24    8    4     -0.86      0.00
  -23    9    4     -9.79      0.00
  -21    9    4     -9.01      0.00
  -19    9    4     -7.73      0.00
  -17    9    4     -5.54      0.00
  -15    9    4     -2.53      0.00
  -13    9    4     -0.05      0.00
  -11    9    4      0.73      0.00
   -9    9    4      0.07      0.00
   -7    9    4     -0.88      0.00
   -5    9    4     -1.17      0.00
   -3    9    4     -0.75      0.00
   -1    9    4     -0.32      0.00
    1    9    4     -0.46      0.00
    3    9    4     -0.81      0.00
    5    9    4     -0.48      0.00
    7    9    4      0.75      0.00
    9    9    4      1.91      0.00
   11    9    4      1.91      0.00
   13    9    4      0.73      0.00
   15    9    4     -0.45      0.00
   17    9    4     -0.54      0.00
   19    9    4      0.19      0.00
   21    9    4      0.32      0.00
   23    9    4     -0.71      0.00
  -22   10    4      5.27      0.00
  -20   10    4      7.54      0.00
  -18   10    4      7.53      0.00
  -16   10    4      5.64      0.00
  -14   10    4      3.42      0.00
  -12   10    4      2.08      0.00
  -10   10    4      1.80      0.00
   -8   10    4      2.07      0.00
   -6   10    4      2.29      0.00
   -4   10    4      2.24      0.00
   -2   10    4      2.11      0.00
    0   10    4      1.90      0.00
    2   10    4      1.16      0.00
    4   10    4     -0.13      0.00
    6   10    4     -1.15      0.00
    8   10    4     -1.42      0.00
   10   10    4     -1.36      0.00
   12   10    4     -1.03      0.00
   14   10    4      0.63      0.00
   16   10    4      4.08      0.00
   18   10    4      7.64      0.00
   20   10    4      9.06      0.00
  -19   11    4     -3.12      0.00
  -17   11    4     -2.56      0.00
  -15   11    4     -3.71      0.00
  -13   11    4     -5.72      0.00
  -11   11    4     -6.22      0.00
   -9   11    4     -4.14      0.00
   -7   11    4     -0.78      0.00
   -5   11    4      1.58      0.00
   -3   11    4      1.63      0.00
   -1   11    4      0.11      0.00
    1   11    4     -1.23      0.00
    3   11    4     -1.64      0.00
    5   11    4     -1.95      0.00
    7   11    4     -2.90      0.00
    9   11    4     -3.80      0.00
   11   11    4     -3.78      0.00
   13   11    4     -3.44      0.00
   15   11    4     -3.97      0.00
   17   11    4     -5.00      0.00
   19   11    4     -4.89      0.00
  -18   12    4     -7.27      0.00
  -16   12    4     -5.59      0.00
  -14   12    4     -2.35      0.00
  -12   12    4     -0.24      0.00
  -10   12    4     -0.12      0.00
   -8   12    4     -0.54      0.00
   -6   12    4     -0.08      0.00
   -4   12    4      0.89      0.00
   -2   12    4      1.11      0.00
    0   12    4      0.50      0.00
    2   12    4      0.43      0.00
    4   12    4      1.65      0.00
    6   12    4      3.22      0.00
    8   12    4      4.05      0.00
   10   12    4      4.43      0.00
   12   12    4      5.03      0.00
   14   12    4      5.24      0.00
   16   12    4      3.93      0.00
  -13   13    4     -6.01      0.00
  -11   13    4     -2.96      0.00
   -9   13    4      0.30      0.00
   -7   13    4      1.06      0.00
   -5   13    4     -0.34      0.00
   -3   13    4     -1.63      0.00
   -1   13    4     -2.26      0.00
    1   13    4     -3.95      0.00
    3   13    4     -7.19      0.00
    5   13    4     -9.18      0.00
    7   13    4     -7.34      0.00
    9   13    4     -3.26      0.00
   11   13    4     -0.65      0.00
   13   13    4     -0.49      0.00
  -10   14    4      0.97      0.00
   -8   14    4      0.16      0.00
   -6   14    4     -1.20      0.00
   -4   14    4     -2.93      0.00
   -2   14    4     -3.75      0.00
    0   14    4     -1.91      0.00
    2   14    4      2.53      0.00
    4   14    4      6.86      0.00
    6   14    4      8.19      0.00
    8   14    4      6.47      0.00
   10   14    4      3.93      0.00
   -3   15    4      2.76      0.00
   -1   15    4      1.77      0.00
    1   15    4     -0.87      0.00
  -29    1    5      2.92      0.00
  -27    1    5      5.45      0.00
  -25    1    5      5.28      0.00
  -23    1    5      2.89      0.00
  -21    1    5     -0.30      0.00
  -19    1    5     -3.10      0.00
  -17    1    5     -4.94      0.00
  -15    1    5     -6.49      0.00
  -13    1    5     -8.07      0.00
  -11    1    5     -6.91      0.00
   -9    1    5     -0.98      0.00
   -7    1    5      2.82      0.00
   -5    1    5     -7.46      0.00
   -3    1    5    -30.17      0.00
   -1    1    5    -43.56      0.00
    1    1    5    -28.63      0.00
    3    1    5      5.72      0.00
    7    1    5     33.56      0.00
    9    1    5     21.46      0.00
   11    1    5     11.28      0.00
   13    1    5      6.88      0.00
   15    1    5      3.01      0.00
   17    1    5     -2.65      0.00
   19    1    5     -6.99      0.00
   21    1    5     -7.12      0.00
   23    1    5     -3.69      0.00
   25    1    5      0.41      0.00
   27    1    5      2.63      0.00
  -28    2    5     -2.74      0.00
  -26    2    5     -3.44      0.00
  -24    2    5     -2.06      0.00
  -22    2    5     -0.30      0.00
  -20    2    5      0.44      0.00
  -18    2    5      0.59      0.00
  -16    2    5      1.88      0.00
  -14    2    5      4.76      0.00
  -12    2    5      5.49      0.00
  -10    2    5     -1.05      0.00
   -8    2    5    -11.45      0.00
   -6    2    5    -10.48      0.00
   -4    2    5     13.22      0.00
   -2    2    5     48.02      0.00
    0    2    5     65.97      0.00
    2    2    5     52.64      0.00
    4    2    5     22.41      0.00
    6    2    5     -0.28      0.00
    8    2    5     -6.88      0.00
   10    2    5     -5.60      0.00
   12    2    5     -4.32      0.00
   14    2    5     -2.56      0.00
   16    2    5      1.42      0.00
   18    2    5      4.75      0.00
   20    2    5      3.59      0.00
   22    2    5     -1.32      0.00
   24    2    5     -5.51      0.00
   26    2    5     -5.65      0.00
   28    2    5     -2.63      0.00
  -29    3    5      1.57      0.00
  -27    3    5      3.32      0.00
  -25    3    5      3.59      0.00
  -23    3    5      1.58      0.00
  -21    3    5     -0.72      0.00
  -19    3    5     -0.77      0.00
  -17    3    5      0.78      0.00
  -15    3    5      0.62      0.00
  -13    3    5     -2.78      0.00
  -11    3    5     -7.05      0.00
   -9    3    5     -9.11      0.00
   -7    3    5     -8.93      0.00
   -5    3    5     -8.62      0.00
   -3    3    5     -8.70      0.00
   -1    3    5     -7.12      0.00
    1    3    5     -2.41      0.00
    3    3    5      2.99      0.00
    5    3    5      4.25      0.00
    7    3    5     -0.24      0.00
    9    3    5     -5.91      0.00
   11    3    5     -6.49      0.00
   13    3    5     -1.46      0.00
   15    3    5      3.46      0.00
   17    3    5      3.63      0.00
   19    3    5      0.86      0.00
   21    3    5     -0.13      0.00
   23    3    5      1.70      0.00
   25    3    5      3.26      0.00
   27    3    5      2.31      0.00
  -28    4    5     -0.29      0.00
  -26    4    5     -1.95      0.00
  -24    4    5     -2.83      0.00
  -22    4    5     -2.18      0.00
  -20    4    5     -2.23      0.00
  -18    4    5     -4.89      0.00
  -16    4    5     -8.01      0.00
  -14    4    5     -7.45      0.00
  -12    4    5     -1.83      0.00
  -10    4    5      6.60      0.00
   -8    4    5     13.97      0.00
   -6    4    5     15.99      0.00
   -4    4    5     10.29      0.00
   -2    4    5      0.14      0.00
    0    4    5     -6.66      0.00
    2    4    5     -5.18      0.00
    4    4    5      2.30      0.00
    6    4    5     10.03      0.00
    8    4    5     13.88      0.00
   10    4    5     12.05      0.00
   12    4    5      5.02      0.00
   14    4    5     -3.06      0.00
   16    4    5     -6.44      0.00
   18    4    5     -3.81      0.00
   20    4    5      0.18      0.00
   22    4    5      0.89      0.00
   24    4    5     -1.30      0.00
   26    4    5     -3.18      0.00
  -27    5    5     -3.51      0.00
  -25    5    5     -1.16      0.00
  -23    5    5      0.38      0.00
  -21    5    5     -0.50      0.00
  -19    5    5     -1.84      0.00
  -17    5    5     -1.12      0.00
  -15    5    5      1.18      0.00
  -13    5    5      2.32      0.00
  -11    5    5      0.20      0.00
   -9    5    5     -4.80      0.00
   -7    5    5     -9.69      0.00
   -5    5    5    -10.27      0.00
   -3    5    5     -4.66      0.00
   -1    5    5      4.06      0.00
    1    5    5     10.15      0.00
    3    5    5     10.35      0.00
    5    5    5      6.03      0.00
    7    5    5      0.79      0.00
    9    5    5     -2.18      0.00
   11    5    5     -1.31      0.00
   13    5    5      2.46      0.00
   15    5    5      5.89      0.00
   17    5    5      6.28      0.00
   19    5    5      4.14      0.00
   21    5    5      2.15      0.00
   23    5    5      1.74      0.00
   25    5    5      2.02      0.00
   27    5    5      1.65      0.00
  -26    6    5     -0.24      0.00
  -24    6    5     -1.25      0.00
  -22    6    5     -0.28      0.00
  -20    6    5      1.34      0.00
  -18    6    5      1.51      0.00
  -16    6    5     -0.57      0.00
  -14    6    5     -3.72      0.00
  -12    6    5     -5.58      0.00
  -10    6    5     -4.63      0.00
   -8    6    5     -1.60      0.00
   -6    6    5      1.47      0.00
   -4    6    5      3.46      0.00
   -2    6    5      4.86      0.00
    0    6    5      6.35      0.00
    2    6    5      7.50      0.00
    4    6    5      7.32      0.00
    6    6    5      5.64      0.00
    8    6    5      3.40      0.00
   10    6    5      1.76      0.00
   12    6    5      0.98      0.00
   14    6    5      0.34      0.00
   16    6    5     -0.69      0.00
   18    6    5     -1.77      0.00
   20    6    5     -2.28      0.00
   22    6    5     -2.34      0.00
   24    6    5     -2.42      0.00
   26    6    5     -2.49      0.00
  -25    7    5      3.34      0.00
  -23    7    5      0.75      0.00
  -21    7    5     -2.68      0.00
  -19    7    5     -5.21      0.00
  -17    7    5     -6.38      0.00
  -15    7    5     -5.86      0.00
  -13    7    5     -3.54      0.00
  -11    7    5     -0.59      0.00
   -9    7    5      1.36      0.00
   -7    7    5      1.80      0.00
   -5    7    5      1.07      0.00
   -3    7    5     -0.64      0.00
   -1    7    5     -2.81      0.00
    1    7    5     -3.76      0.00
    3    7    5     -1.99      0.00
    5    7    5      1.82      0.00
    7    7    5      5.02      0.00
    9    7    5      5.32      0.00
   11    7    5      2.79      0.00
   13    7    5     -0.37      0.00
   15    7    5     -1.91      0.00
   17    7    5     -1.47      0.00
   19    7    5     -0.27      0.00
   21    7    5      0.76      0.00
   23    7    5      1.54      0.00
   25    7    5      1.89      0.00
  -24    8    5      1.76      0.00
  -22    8    5      2.55      0.00
  -20    8    5      1.58      0.00
  -18    8    5      0.29      0.00
  -16    8    5      0.08      0.00
  -14    8    5      0.81      0.00
  -12    8    5      1.41      0.00
  -10    8    5      1.20      0.00
   -8    8    5      0.19      0.00
   -6    8    5     -0.93      0.00
   -4    8    5     -1.15      0.00
   -2    8    5      0.00      0.00
    0    8    5      1.86      0.00
    2    8    5      3.25      0.00
    4    8    5      3.60      0.00
    6    8    5      3.21      0.00
    8    8    5      2.82      0.00
   10    8    5      2.97      0.00
   12    8    5      3.62      0.00
   14    8    5      4.31      0.00
   16    8    5      4.89      0.00
   18    8    5      5.62      0.00
   20    8    5      6.32      0.00
   22    8    5      6.04      0.00
   24    8    5      4.32      0.00
  -23    9    5     -6.13      0.00
  -21    9    5     -3.70      0.00
  -19    9    5     -0.64      0.00
  -17    9    5      2.32      0.00
  -15    9    5      4.58      0.00
  -13    9    5      4.98      0.00
  -11    9    5      2.95      0.00
   -9    9    5     -0.37      0.00
   -7    9    5     -2.93      0.00
   -5    9    5     -3.39      0.00
   -3    9    5     -1.69      0.00
   -1    9    5      0.94      0.00
    1    9    5      2.55      0.00
    3    9    5      2.03      0.00
    5    9    5      0.30      0.00
    7    9    5     -0.79      0.00
    9    9    5     -0.61      0.00
   11    9    5      0.17      0.00
   13    9    5      1.25      0.00
   15    9    5      2.92      0.00
   17    9    5      4.60      0.00
   19    9    5      4.74      0.00
   21    9    5      2.86      0.00
  -22   10    5     -4.05      0.00
  -20   10    5     -3.25      0.00
  -18   10    5     -1.09      0.00
  -16   10    5     -0.26      0.00
  -14   10    5     -1.22      0.00
  -12   10    5     -1.85      0.00
  -10   10    5     -0.42      0.00
   -8   10    5      2.45      0.00
   -6   10    5      4.59      0.00
   -4   10    5      4.40      0.00
   -2   10    5      2.25      0.00
    0   10    5      0.11      0.00
    2   10    5     -0.41      0.00
    4   10    5      0.34      0.00
    6   10    5      0.89      0.00
    8   10    5      0.64      0.00
   10   10    5      0.20      0.00
   12   10    5      0.03      0.00
   14   10    5     -0.27      0.00
   16   10    5     -1.03      0.00
   18   10    5     -1.62      0.00
   20   10    5     -1.22      0.00
  -19   11    5     -2.99      0.00
  -17   11    5     -3.16      0.00
  -15   11    5     -0.99      0.00
  -13   11    5      1.21      0.00
  -11   11    5      1.55      0.00
   -9   11    5      0.36      0.00
   -7   11    5     -0.63      0.00
   -5   11    5     -0.48      0.00
   -3   11    5      0.03      0.00
   -1   11    5     -0.11      0.00
    1   11    5     -0.60      0.00
    3   11    5     -0.57      0.00
    5   11    5     -0.37      0.00
    7   11    5     -0.95      0.00
    9   11    5     -1.94      0.00
   11   11    5     -1.96      0.00
   13   11    5     -0.93      0.00
   15   11    5     -0.33      0.00
   17   11    5     -0.92      0.00
   19   11    5     -1.84      0.00
  -14   12    5     -2.64      0.00
  -12   12    5     -0.63      0.00
  -10   12    5      1.43      0.00
   -8   12    5      2.17      0.00
   -6   12    5      1.67      0.00
   -4   12    5      1.40      0.00
   -2   12    5      2.23      0.00
    0   12    5      3.00      0.00
    2   12    5      2.27      0.00
    4   12    5      0.81      0.00
    6   12    5      0.60      0.00
    8   12    5      1.34      0.00
   10   12    5      0.57      0.00
   12   12    5     -2.35      0.00
   14   12    5     -4.75      0.00
   16   12    5     -4.30      0.00
  -13   13    5      2.06      0.00
  -11   13    5      0.03      0.00
   -9   13    5     -1.29      0.00
   -7   13    5     -2.37      0.00
   -5   13    5     -3.55      0.00
   -3   13    5     -4.23      0.00
   -1   13    5     -3.65      0.00
    1   13    5     -2.11      0.00
    3   13    5     -1.07      0.00
    5   13    5     -1.37      0.00
    7   13    5     -2.25      0.00
    9   13    5     -2.56      0.00
   11   13    5     -2.30      0.00
   13   13    5     -2.14      0.00
  -10   14    5     -0.46      0.00
   -8   14    5     -1.89      0.00
   -6   14    5     -1.22      0.00
   -4   14    5     -0.23      0.00
   -2   14    5     -1.04      0.00
    0   14    5     -2.68      0.00
    2   14    5     -2.35      0.00
    4   14    5      0.18      0.00
    6   14    5      1.92      0.00
    8   14    5      1.07      0.00
   10   14    5     -0.54      0.00
   -1   15    5      1.18      0.00
    1   15    5     -1.79      0.00
  -28    0    6      4.02      0.00
  -26    0    6      6.37      0.00
  -24    0    6      6.95      0.00
  -22    0    6      5.57      0.00
  -20    0    6      2.31      0.00
  -18    0    6     -2.06      0.00
  -16    0    6     -6.45      0.00
  -14    0    6     -9.97      0.00
  -12    0    6    -10.45      0.00
  -10    0    6     -6.25      0.00
   -8    0    6     -4.60      0.00
   -6    0    6    -22.39      0.00
   -4    0    6    -66.11      0.00
    0    0    6   -122.45      0.00
    2    0    6    -85.19      0.00
    4    0    6    -29.82      0.00
    6    0    6      5.38      0.00
    8    0    6     10.53      0.00
   10    0    6      2.62      0.00
   12    0    6     -2.07      0.00
   14    0    6     -2.21      0.00
   16    0    6     -2.76      0.00
   18    0    6     -4.63      0.00
   20    0    6     -5.24      0.00
   22    0    6     -3.41      0.00
   24    0    6     -0.57      0.00
   26    0    6      1.35      0.00
   28    0    6      1.83      0.00
  -29    1    6      1.58      0.00
  -27    1    6     -0.08      0.00
  -25    1    6     -1.42      0.00
  -23    1    6     -1.51      0.00
  -21    1    6     -0.45      0.00
  -19    1    6      1.05      0.00
  -17    1    6      2.69      0.00
  -15    1    6      4.95      0.00
  -13    1    6      7.60      0.00
  -11    1    6      8.76      0.00
   -9    1    6      8.35      0.00
   -7    1    6     12.30      0.00
   -5    1    6     27.43      0.00
   -3    1    6     48.97      0.00
    1    1    6     43.86      0.00
    3    1    6     11.93      0.00
    7    1    6    -19.12      0.00
    9    1    6    -10.51      0.00
   11    1    6     -2.59      0.00
   13    1    6     -1.65      0.00
   15    1    6     -3.55      0.00
   17    1    6     -3.05      0.00
   19    1    6     -0.05      0.00
   21    1    6      2.46      0.00
   23    1    6      2.89      0.00
   25    1    6      2.13      0.00
   27    1    6      1.50      0.00
  -28    2    6      1.29      0.00
  -26    2    6      2.98      0.00
  -24    2    6      4.27      0.00
  -22    2    6      5.39      0.00
  -20    2    6      7.96      0.00
  -18    2    6     11.54      0.00
  -16    2    6     12.42      0.00
  -14    2    6      7.63      0.00
  -12    2    6     -1.43      0.00
  -10    2    6    -10.20      0.00
   -8    2    6    -13.85      0.00
   -6    2    6     -9.24      0.00
   -4    2    6      1.88      0.00
   -2    2    6     11.03      0.00
    0    2    6      8.85      0.00
    2    2    6     -4.85      0.00
    4    2    6    -20.06      0.00
    6    2    6    -27.07      0.00
    8    2    6    -24.54      0.00
   10    2    6    -16.71      0.00
   12    2    6     -7.60      0.00
   14    2    6     -0.23      0.00
   16    2    6      2.62      0.00
   18    2    6      0.78      0.00
   20    2    6     -2.18      0.00
   22    2    6     -2.82      0.00
   24    2    6     -1.39      0.00
   26    2    6     -0.15      0.00
   28    2    6      0.08      0.00
  -29    3    6      3.12      0.00
  -27    3    6      3.01      0.00
  -25    3    6      2.26      0.00
  -23    3    6      2.68      0.00
  -21    3    6      3.71      0.00
  -19    3    6      2.72      0.00
  -17    3    6     -0.64      0.00
  -15    3    6     -2.92      0.00
  -13    3    6      0.02      0.00
  -11    3    6      9.83      0.00
   -9    3    6     23.42      0.00
   -7    3    6     31.80      0.00
   -5    3    6     25.29      0.00
   -3    3    6      5.18      0.00
   -1    3    6    -13.11      0.00
    1    3    6    -14.57      0.00
    3    3    6     -0.98      0.00
    5    3    6     12.64      0.00
    7    3    6     15.66      0.00
    9    3    6      9.98      0.00
   11    3    6      2.43      0.00
   13    3    6     -3.13      0.00
   15    3    6     -5.62      0.00
   17    3    6     -4.94      0.00
   19    3    6     -2.69      0.00
   21    3    6     -1.58      0.00
   23    3    6     -2.41      0.00
   25    3    6     -3.37      0.00
   27    3    6     -2.80      0.00
  -28    4    6     -1.49      0.00
  -26    4    6      0.21      0.00
  -24    4    6      2.01      0.00
  -22    4    6      1.88      0.00
  -20    4    6     -0.03      0.00
  -18    4    6     -1.44      0.00
  -16    4    6     -0.54      0.00
  -14    4    6      1.71      0.00
  -12    4    6      2.12      0.00
  -10    4    6     -1.71      0.00
   -8    4    6     -8.11      0.00
   -6    4    6    -11.69      0.00
   -4    4    6     -8.62      0.00
   -2    4    6     -1.65      0.00
    0    4    6      2.06      0.00
    2    4    6     -1.14      0.00
    4    4    6     -7.43      0.00
    6    4    6    -10.45      0.00
    8    4    6     -8.52      0.00
   10    4    6     -5.11      0.00
   12    4    6     -3.61      0.00
   14    4    6     -3.91      0.00
   16    4    6     -4.20      0.00
   18    4    6     -3.75      0.00
   20    4    6     -3.08      0.00
   22    4    6     -2.48      0.00
   24    4    6     -1.63      0.00
   26    4    6     -0.54      0.00
  -27    5    6      6.64      0.00
  -25    5    6      5.65      0.00
  -23    5    6      3.97      0.00
  -21    5    6      2.40      0.00
  -19    5    6      2.07      0.00
  -17    5    6      2.56      0.00
  -15    5    6      1.82      0.00
  -13    5    6     -0.93      0.00
  -11    5    6     -3.75      0.00
   -9    5    6     -4.39      0.00
   -7    5    6     -2.58      0.00
   -5    5    6      0.68      0.00
   -3    5    6      4.41      0.00
   -1    5    6      7.23      0.00
    1    5    6      7.14      0.00
    3    5    6      3.01      0.00
    5    5    6     -3.99      0.00
    7    5    6    -10.41      0.00
    9    5    6    -12.20      0.00
   11    5    6     -7.83      0.00
   13    5    6     -0.63      0.00
   15    5    6      3.44      0.00
   17    5    6      1.75      0.00
   19    5    6     -2.37      0.00
   21    5    6     -4.01      0.00
   23    5    6     -2.17      0.00
   25    5    6      0.55      0.00
  -26    6    6      4.67      0.00
  -24    6    6      3.84      0.00
  -22    6    6      3.42      0.00
  -20    6    6      2.76      0.00
  -18    6    6      0.01      0.00
  -16    6    6     -4.09      0.00
  -14    6    6     -6.15      0.00
  -12    6    6     -4.23      0.00
  -10    6    6      0.20      0.00
   -8    6    6      4.39      0.00
   -6    6    6      6.47      0.00
   -4    6    6      5.49      0.00
   -2    6    6      1.66      0.00
    0    6    6     -3.00      0.00
    2    6    6     -5.63      0.00
    4    6    6     -4.89      0.00
    6    6    6     -1.93      0.00
    8    6    6      0.55      0.00
   10    6    6      0.43      0.00
   12    6    6     -2.05      0.00
   14    6    6     -4.38      0.00
   16    6    6     -4.45      0.00
   18    6    6     -2.93      0.00
   20    6    6     -1.88      0.00
   22    6    6     -1.77      0.00
   24    6    6     -1.31      0.00
   26    6    6      0.09      0.00
  -25    7    6     -2.12      0.00
  -23    7    6     -0.75      0.00
  -21    7    6     -1.16      0.00
  -19    7    6     -1.90      0.00
  -17    7    6     -1.14      0.00
  -15    7    6      1.23      0.00
  -13    7    6      3.84      0.00
  -11    7    6      5.35      0.00
   -9    7    6      5.28      0.00
   -7    7    6      4.12      0.00
   -5    7    6      2.86      0.00
   -3    7    6      2.29      0.00
   -1    7    6      2.55      0.00
    1    7    6      3.29      0.00
    3    7    6      4.03      0.00
    5    7    6      4.45      0.00
    7    7    6      4.48      0.00
    9    7    6      4.47      0.00
   11    7    6      4.66      0.00
   13    7    6      4.60      0.00
   15    7    6      3.58      0.00
   17    7    6      1.80      0.00
   19    7    6      0.40      0.00
   21    7    6      0.16      0.00
   23    7    6      0.55      0.00
   25    7    6      0.57      0.00
  -24    8    6     -0.08      0.00
  -22    8    6      5.30      0.00
  -20    8    6      8.52      0.00
  -18    8    6      7.55      0.00
  -16    8    6      3.57      0.00
  -14    8    6     -1.07      0.00
  -12    8    6     -4.37      0.00
  -10    8    6     -5.28      0.00
   -8    8    6     -4.29      0.00
   -6    8    6     -2.95      0.00
   -4    8    6     -2.14      0.00
   -2    8    6     -1.40      0.00
    0    8    6     -0.48      0.00
    2    8    6     -0.09      0.00
    4    8    6     -0.68      0.00
    6    8    6     -1.58      0.00
    8    8    6     -2.07      0.00
   10    8    6     -2.35      0.00
   12    8    6     -2.58      0.00
   14    8    6     -2.02      0.00
   16    8    6      0.04      0.00
   18    8    6      2.73      0.00
   20    8    6      4.09      0.00
   22    8    6      3.15      0.00
   24    8    6      1.05      0.00
  -23    9    6      6.39      0.00
  -21    9    6      6.36      0.00
  -19    9    6      6.21      0.00
  -17    9    6      4.92      0.00
  -15    9    6      2.41      0.00
  -13    9    6      0.03      0.00
  -11    9    6     -0.91      0.00
   -9    9    6     -0.28      0.00
   -7    9    6      1.05      0.00
   -5    9    6      1.93      0.00
   -3    9    6      1.70      0.00
   -1    9    6      0.74      0.00
    1    9    6     -0.01      0.00
    3    9    6     -0.32      0.00
    5    9    6     -0.76      0.00
    7    9    6     -1.50      0.00
    9    9    6     -1.73      0.00
   11    9    6     -0.79      0.00
   13    9    6      0.68      0.00
   15    9    6      1.18      0.00
   17    9    6      0.04      0.00
   19    9    6     -1.63      0.00
   21    9    6     -2.05      0.00
  -22   10    6     -6.10      0.00
  -20   10    6     -7.95      0.00
  -18   10    6     -7.38      0.00
  -16   10    6     -5.13      0.00
  -14   10    6     -2.82      0.00
  -12   10    6     -1.50      0.00
  -10   10    6     -1.35      0.00
   -8   10    6     -1.76      0.00
   -6   10    6     -1.88      0.00
   -4   10    6     -1.50      0.00
   -2   10    6     -1.17      0.00
    0   10    6     -1.13      0.00
    2   10    6     -0.82      0.00
    4   10    6     -0.04      0.00
    6   10    6      0.52      0.00
    8   10    6      0.62      0.00
   10   10    6      0.91      0.00
   12   10    6      1.35      0.00
   14   10    6      0.50      0.00
   16   10    6     -2.34      0.00
   18   10    6     -5.54      0.00
   20   10    6     -6.93      0.00
  -19   11    6      2.30      0.00
  -17   11    6      1.27      0.00
  -15   11    6      1.81      0.00
  -13   11    6      3.23      0.00
  -11   11    6      3.71      0.00
   -9   11    6      2.54      0.00
   -7   11    6      0.68      0.00
   -5   11    6     -0.19      0.00
   -3   11    6      0.84      0.00
   -1   11    6      2.90      0.00
    1   11    6      4.12      0.00
    3   11    6      3.95      0.00
    5   11    6      3.59      0.00
    7   11    6      3.79      0.00
    9   11    6      3.49      0.00
   11   11    6      1.87      0.00
   13   11    6      0.25      0.00
   15   11    6      0.39      0.00
   17   11    6      1.71      0.00
   19   11    6      2.06      0.00
  -14   12    6     -2.10      0.00
  -12   12    6     -3.02      0.00
  -10   12    6     -1.49      0.00
   -8   12    6      0.33      0.00
   -6   12    6      0.49      0.00
   -4   12    6     -0.51      0.00
   -2   12    6     -0.76      0.00
    0   12    6      0.15      0.00
    2   12    6      0.52      0.00
    4   12    6     -0.94      0.00
    6   12    6     -3.20      0.00
    8   12    6     -4.48      0.00
   10   12    6     -4.69      0.00
   12   12    6     -4.71      0.00
   14   12    6     -4.40      0.00
   16   12    6     -2.81      0.00
  -13   13    6      7.00      0.00
  -11   13    6      2.16      0.00
   -9   13    6     -2.89      0.00
   -7   13    6     -4.27      0.00
   -5   13    6     -1.94      0.00
   -3   13    6      0.89      0.00
   -1   13    6      2.50      0.00
    1   13    6      4.50      0.00
    3   13    6      7.99      0.00
    5   13    6     10.48      0.00
    7   13    6      9.14      0.00
    9   13    6      5.32      0.00
   11   13    6      2.68      0.00
   13   13    6      2.13      0.00
  -10   14    6      2.59      0.00
   -8   14    6      4.56      0.00
   -6   14    6      5.55      0.00
   -4   14    6      5.94      0.00
   -2   14    6      5.69      0.00
    0   14    6      3.87      0.00
    2   14    6      0.44      0.00
    4   14    6     -2.57      0.00
    6   14    6     -3.12      0.00
    8   14    6     -1.71      0.00
  -29    1    7     -2.45      0.00
  -27    1    7     -4.04      0.00
  -25    1    7     -3.66      0.00
  -23    1    7     -2.44      0.00
  -21    1    7     -1.00      0.00
  -19    1    7      1.05      0.00
  -17    1    7      3.77      0.00
  -15    1    7      6.70      0.00
  -13    1    7      8.28      0.00
  -11    1    7      4.74      0.00
   -9    1    7     -6.14      0.00
   -7    1    7    -17.78      0.00
   -5    1    7    -17.96      0.00
   -3    1    7     -4.71      0.00
   -1    1    7      6.99      0.00
    1    1    7      1.94      0.00
    3    1    7    -15.86      0.00
    5    1    7    -28.99      0.00
    7    1    7    -28.37      0.00
    9    1    7    -20.36      0.00
   11    1    7    -13.61      0.00
   13    1    7     -8.62      0.00
   15    1    7     -2.30      0.00
   17    1    7      4.59      0.00
   19    1    7      8.34      0.00
   21    1    7      7.25      0.00
   23    1    7      3.02      0.00
   25    1    7     -1.22      0.00
   27    1    7     -3.20      0.00
  -28    2    7      3.36      0.00
  -26    2    7      3.24      0.00
  -24    2    7      1.17      0.00
  -22    2    7     -0.89      0.00
  -20    2    7     -1.95      0.00
  -18    2    7     -2.68      0.00
  -16    2    7     -4.27      0.00
  -14    2    7     -6.65      0.00
  -12    2    7     -6.60      0.00
  -10    2    7     -0.01      0.00
   -8    2    7     10.54      0.00
   -6    2    7     12.71      0.00
   -4    2    7     -3.51      0.00
   -2    2    7    -30.24      0.00
    0    2    7    -46.00      0.00
    2    2    7    -38.42      0.00
    4    2    7    -16.64      0.00
    6    2    7      1.75      0.00
    8    2    7      9.25      0.00
   10    2    7      9.52      0.00
   12    2    7      6.85      0.00
   14    2    7      1.95      0.00
   16    2    7     -3.76      0.00
   18    2    7     -6.40      0.00
   20    2    7     -3.75      0.00
   22    2    7      1.81      0.00
   24    2    7      5.65      0.00
   26    2    7      5.29      0.00
   28    2    7      2.21      0.00
  -29    3    7     -0.88      0.00
  -27    3    7     -2.64      0.00
  -25    3    7     -3.44      0.00
  -23    3    7     -2.37      0.00
  -21    3    7     -0.70      0.00
  -19    3    7     -0.30      0.00
  -17    3    7     -0.73      0.00
  -15    3    7      0.46      0.00
  -13    3    7      4.28      0.00
  -11    3    7      8.78      0.00
   -9    3    7     11.53      0.00
   -7    3    7     12.55      0.00
   -5    3    7     13.56      0.00
   -3    3    7     14.98      0.00
   -1    3    7     14.72      0.00
    1    3    7     10.80      0.00
    3    3    7      4.67      0.00
    5    3    7      0.75      0.00
    7    3    7      1.57      0.00
    9    3    7      4.43      0.00
   11    3    7      4.36      0.00
   13    3    7      0.42      0.00
   15    3    7     -3.30      0.00
   17    3    7     -3.37      0.00
   19    3    7     -1.25      0.00
   21    3    7     -0.51      0.00
   23    3    7     -1.74      0.00
   25    3    7     -2.55      0.00
   27    3    7     -1.54      0.00
  -28    4    7     -0.74      0.00
  -26    4    7      0.90      0.00
  -24    4    7      1.42      0.00
  -22    4    7     -0.04      0.00
  -20    4    7     -0.58      0.00
  -18    4    7      2.50      0.00
  -16    4    7      6.91      0.00
  -14    4    7      7.37      0.00
  -12    4    7      1.56      0.00
  -10    4    7     -7.94      0.00
   -8    4    7    -15.91      0.00
   -6    4    7    -17.29      0.00
   -4    4    7    -10.09      0.00
   -2    4    7      1.72      0.00
    0    4    7     10.07      0.00
    2    4    7      9.68      0.00
    4    4    7      2.15      0.00
    6    4    7     -6.75      0.00
    8    4    7    -11.71      0.00
   10    4    7     -9.82      0.00
   12    4    7     -2.09      0.00
   14    4    7      5.95      0.00
   16    4    7      8.22      0.00
   18    4    7      4.39      0.00
   20    4    7     -0.12      0.00
   22    4    7     -0.99      0.00
   24    4    7      0.78      0.00
   26    4    7      1.93      0.00
  -27    5    7      2.50      0.00
  -25    5    7      0.21      0.00
  -23    5    7     -0.92      0.00
  -21    5    7      0.28      0.00
  -19    5    7      1.33      0.00
  -17    5    7     -0.22      0.00
  -15    5    7     -3.22      0.00
  -13    5    7     -4.46      0.00
  -11    5    7     -2.13      0.00
   -9    5    7      2.91      0.00
   -7    5    7      7.85      0.00
   -5    5    7      9.23      0.00
   -3    5    7      5.33      0.00
   -1    5    7     -1.66      0.00
    1    5    7     -6.94      0.00
    3    5    7     -7.28      0.00
    5    5    7     -3.38      0.00
    7    5    7      1.36      0.00
    9    5    7      3.41      0.00
   11    5    7      1.37      0.00
   13    5    7     -2.90      0.00
   15    5    7     -5.57      0.00
   17    5    7     -4.48      0.00
   19    5    7     -1.26      0.00
   21    5    7      0.79      0.00
   23    5    7      0.44      0.00
   25    5    7     -0.87      0.00
  -26    6    7      3.54      0.00
  -24    6    7      4.25      0.00
  -22    6    7      2.35      0.00
  -20    6    7     -0.21      0.00
  -18    6    7     -1.00      0.00
  -16    6    7      0.83      0.00
  -14    6    7      4.01      0.00
  -12    6    7      6.19      0.00
  -10    6    7      5.97      0.00
   -8    6    7      4.08      0.00
   -6    6    7      2.32      0.00
   -4    6    7      1.41      0.00
   -2    6    7      0.44      0.00
    0    6    7     -1.44      0.00
    2    6    7     -3.70      0.00
    4    6    7     -5.00      0.00
    6    6    7     -4.60      0.00
    8    6    7     -2.87      0.00
   10    6    7     -0.72      0.00
   12    6    7      1.18      0.00
   14    6    7      2.55      0.00
   16    6    7      3.22      0.00
   18    6    7      2.94      0.00
   20    6    7      1.97      0.00
   22    6    7      1.17      0.00
   24    6    7      1.26      0.00
  -25    7    7     -2.11      0.00
  -23    7    7      0.65      0.00
  -21    7    7      3.05      0.00
  -19    7    7      4.35      0.00
  -17    7    7      5.20      0.00
  -15    7    7      5.51      0.00
  -13    7    7      4.67      0.00
  -11    7    7      3.05      0.00
   -9    7    7      1.56      0.00
   -7    7    7      0.52      0.00
   -5    7    7      0.24      0.00
   -3    7    7      1.70      0.00
   -1    7    7      4.81      0.00
    1    7    7      7.12      0.00
    3    7    7      5.93      0.00
    5    7    7      1.53      0.00
    7    7    7     -2.82      0.00
    9    7    7     -4.04      0.00
   11    7    7     -1.86      0.00
   13    7    7      1.52      0.00
   15    7    7      3.72      0.00
   17    7    7      3.95      0.00
   19    7    7      2.74      0.00
   21    7    7      0.76      0.00
   23    7    7     -1.37      0.00
  -24    8    7     -5.87      0.00
  -22    8    7     -5.37      0.00
  -20    8    7     -2.38      0.00
  -18    8    7      0.54      0.00
  -16    8    7      1.38      0.00
  -14    8    7      0.35      0.00
  -12    8    7     -1.01      0.00
  -10    8    7     -1.23      0.00
   -8    8    7      0.26      0.00
   -6    8    7      2.60      0.00
   -4    8    7      3.88      0.00
   -2    8    7      2.86      0.00
    0    8    7      0.30      0.00
    2    8    7     -1.93      0.00
    4    8    7     -2.71      0.00
    6    8    7     -2.42      0.00
    8    8    7     -2.13      0.00
   10    8    7     -2.43      0.00
   12    8    7     -3.09      0.00
   14    8    7     -3.55      0.00
   16    8    7     -3.81      0.00
   18    8    7     -4.19      0.00
   20    8    7     -4.47      0.00
   22    8    7     -3.87      0.00
  -23    9    7      4.46      0.00
  -21    9    7      2.25      0.00
  -19    9    7      0.12      0.00
  -17    9    7     -1.67      0.00
  -15    9    7     -2.86      0.00
  -13    9    7     -2.48      0.00
  -11    9    7     -0.22      0.00
   -9    9    7      2.76      0.00
   -7    9    7      4.87      0.00
   -5    9    7      5.20      0.00
   -3    9    7      3.62      0.00
   -1    9    7      0.93      0.00
    1    9    7     -1.09      0.00
    3    9    7     -1.24      0.00
    5    9    7     -0.23      0.00
    7    9    7      0.49      0.00
    9    9    7      0.72      0.00
   11    9    7      1.00      0.00
   13    9    7      0.90      0.00
   15    9    7     -0.42      0.00
   17    9    7     -2.30      0.00
   19    9    7     -2.89      0.00
   21    9    7     -1.65      0.00
  -22   10    7      4.78      0.00
  -20   10    7      4.16      0.00
  -18   10    7      2.49      0.00
  -16   10    7      1.86      0.00
  -14   10    7      2.22      0.00
  -12   10    7      1.83      0.00
  -10   10    7     -0.21      0.00
   -8   10    7     -2.97      0.00
   -6   10    7     -4.56      0.00
   -4   10    7     -3.72      0.00
   -2   10    7     -1.05      0.00
    0   10    7      1.20      0.00
    2   10    7      1.33      0.00
    4   10    7     -0.06      0.00
    6   10    7     -1.17      0.00
    8   10    7     -1.47      0.00
   10   10    7     -1.74      0.00
   12   10    7     -2.17      0.00
   14   10    7     -1.89      0.00
   16   10    7     -0.69      0.00
   18   10    7      0.25      0.00
   20   10    7     -0.09      0.00
  -19   11    7      2.83      0.00
  -17   11    7      2.27      0.00
  -15   11    7     -0.40      0.00
  -13   11    7     -2.49      0.00
  -11   11    7     -2.08      0.00
   -9   11    7      0.14      0.00
   -7   11    7      1.83      0.00
   -5   11    7      1.66      0.00
   -3   11    7      0.73      0.00
   -1   11    7      0.72      0.00
    1   11    7      1.54      0.00
    3   11    7      1.95      0.00
    5   11    7      1.81      0.00
    7   11    7      2.02      0.00
    9   11    7      2.48      0.00
   11   11    7      2.25      0.00
   13   11    7      1.48      0.00
   15   11    7      1.50      0.00
   17   11    7      2.60      0.00
  -14   12    7      5.05      0.00
  -12   12    7      2.83      0.00
  -10   12    7      0.12      0.00
   -8   12    7     -1.28      0.00
   -6   12    7     -1.00      0.00
   -4   12    7     -0.69      0.00
   -2   12    7     -1.78      0.00
    0   12    7     -3.18      0.00
    2   12    7     -2.97      0.00
    4   12    7     -1.63      0.00
    6   12    7     -1.21      0.00
    8   12    7     -1.40      0.00
   10   12    7      0.37      0.00
   12   12    7      4.40      0.00
   14   12    7      7.44      0.00
   16   12    7      6.98      0.00
  -13   13    7      1.10      0.00
  -11   13    7      3.34      0.00
   -9   13    7      4.70      0.00
   -7   13    7      5.31      0.00
   -5   13    7      5.51      0.00
   -3   13    7      5.16      0.00
   -1   13    7      3.92      0.00
    1   13    7      2.32      0.00
    3   13    7      1.72      0.00
    5   13    7      2.59      0.00
    7   13    7      3.56      0.00
    9   13    7      3.08      0.00
   11   13    7      1.51      0.00
   13   13    7      0.36      0.00
  -10   14    7      1.66      0.00
   -8   14    7      3.57      0.00
   -6   14    7      2.63      0.00
   -4   14    7      0.70      0.00
   -2   14    7      0.44      0.00
    0   14    7      1.17      0.00
    2   14    7     -0.08      0.00
    4   14    7     -3.50      0.00
    6   14    7     -5.64      0.00
    8   14    7     -4.38      0.00
  -28    0    8     -6.12      0.00
  -26    0    8     -7.75      0.00
  -24    0    8     -7.93      0.00
  -22    0    8     -6.82      0.00
  -20    0    8     -3.85      0.00
  -18    0    8      0.88      0.00
  -16    0    8      6.03      0.00
  -14    0    8      9.74      0.00
  -12    0    8      8.86      0.00
  -10    0    8      0.56      0.00
   -8    0    8    -10.36      0.00
   -6    0    8     -9.37      0.00
   -4    0    8     12.60      0.00
    0    0    8     53.19      0.00
    4    0    8      5.20      0.00
    6    0    8    -12.87      0.00
    8    0    8    -13.74      0.00
   10    0    8     -7.76      0.00
   12    0    8     -3.53      0.00
   14    0    8     -0.95      0.00
   16    0    8      2.11      0.00
   18    0    8      4.62      0.00
   20    0    8      4.47      0.00
   22    0    8      1.70      0.00
   24    0    8     -1.57      0.00
   26    0    8     -3.22      0.00
   28    0    8     -2.84      0.00
  -29    1    8     -1.71      0.00
  -27    1    8     -0.99      0.00
  -25    1    8     -0.19      0.00
  -23    1    8      0.28      0.00
  -21    1    8      0.13      0.00
  -19    1    8     -0.87      0.00
  -17    1    8     -2.82      0.00
  -15    1    8     -5.76      0.00
  -13    1    8     -9.00      0.00
  -11    1    8    -10.79      0.00
   -9    1    8    -11.04      0.00
   -7    1    8    -14.60      0.00
   -5    1    8    -27.22      0.00
   -3    1    8    -45.54      0.00
   -1    1    8    -55.28      0.00
    1    1    8    -44.98      0.00
    3    1    8    -19.86      0.00
    5    1    8      2.68      0.00
    7    1    8     10.86      0.00
    9    1    8      7.60      0.00
   11    1    8      2.69      0.00
   13    1    8      1.10      0.00
   15    1    8      1.06      0.00
   17    1    8     -0.23      0.00
   19    1    8     -2.64      0.00
   21    1    8     -4.24      0.00
   23    1    8     -4.06      0.00
   25    1    8     -2.83      0.00
   27    1    8     -1.65      0.00
  -28    2    8     -2.30      0.00
  -26    2    8     -4.26      0.00
  -24    2    8     -4.79      0.00
  -22    2    8     -4.17      0.00
  -20    2    8     -4.87      0.00
  -18    2    8     -7.55      0.00
  -16    2    8     -9.01      0.00
  -14    2    8     -5.75      0.00
  -12    2    8      2.04      0.00
  -10    2    8     10.63      0.00
   -8    2    8     15.18      0.00
   -6    2    8     12.14      0.00
   -4    2    8      2.39      0.00
   -2    2    8     -7.26      0.00
    0    2    8     -9.00      0.00
    2    2    8     -1.84      0.00
    4    2    8      7.78      0.00
    6    2    8     13.45      0.00
    8    2    8     13.78      0.00
   10    2    8     10.27      0.00
   12    2    8      4.51      0.00
   14    2    8     -0.96      0.00
   16    2    8     -2.90      0.00
   18    2    8     -0.83      0.00
   20    2    8      2.03      0.00
   22    2    8      2.61      0.00
   24    2    8      1.22      0.00
   26    2    8     -0.08      0.00
  -29    3    8     -2.56      0.00
  -27    3    8     -2.31      0.00
  -25    3    8     -1.56      0.00
  -23    3    8     -2.33      0.00
  -21    3    8     -3.78      0.00
  -19    3    8     -2.92      0.00
  -17    3    8      0.49      0.00
  -15    3    8      2.62      0.00
  -13    3    8     -0.56      0.00
  -11    3    8     -9.83      0.00
   -9    3    8    -21.84      0.00
   -7    3    8    -29.41      0.00
   -5    3    8    -25.65      0.00
   -3    3    8    -11.82      0.00
   -1    3    8      0.78      0.00
    1    3    8      1.61      0.00
    3    3    8     -7.69      0.00
    5    3    8    -16.34      0.00
    7    3    8    -16.93      0.00
    9    3    8    -10.75      0.00
   11    3    8     -2.86      0.00
   13    3    8      2.99      0.00
   15    3    8      4.88      0.00
   17    3    8      3.05      0.00
   19    3    8      0.38      0.00
   21    3    8      0.03      0.00
   23    3    8      1.93      0.00
   25    3    8      3.36      0.00
   27    3    8      2.59      0.00
  -28    4    8      0.84      0.00
  -26    4    8     -0.80      0.00
  -24    4    8     -2.24      0.00
  -22    4    8     -1.78      0.00
  -20    4    8     -0.01      0.00
  -18    4    8      0.72      0.00
  -16    4    8     -0.87      0.00
  -14    4    8     -3.48      0.00
  -12    4    8     -4.34      0.00
  -10    4    8     -1.80      0.00
   -8    4    8      2.62      0.00
   -6    4    8      4.78      0.00
   -4    4    8      1.70      0.00
   -2    4    8     -4.67      0.00
    0    4    8     -8.66      0.00
    2    4    8     -6.66      0.00
    4    4    8     -0.81      0.00
    6    4    8      3.90      0.00
    8    4    8      5.02      0.00
   10    4    8      3.90      0.00
   12    4    8      2.87      0.00
   14    4    8      2.62      0.00
   16    4    8      2.66      0.00
   18    4    8      2.68      0.00
   20    4    8      2.74      0.00
   22    4    8      2.74      0.00
   24    4    8      2.39      0.00
   26    4    8      1.69      0.00
  -27    5    8     -2.64      0.00
  -25    5    8     -1.21      0.00
  -23    5    8      0.36      0.00
  -21    5    8      1.30      0.00
  -19    5    8      0.45      0.00
  -17    5    8     -1.71      0.00
  -15    5    8     -2.74      0.00
  -13    5    8     -1.31      0.00
  -11    5    8      1.04      0.00
   -9    5    8      2.03      0.00
   -7    5    8      1.00      0.00
   -5    5    8     -1.45      0.00
   -3    5    8     -4.69      0.00
   -1    5    8     -7.68      0.00
    1    5    8     -8.62      0.00
    3    5    8     -6.08      0.00
    5    5    8     -0.59      0.00
    7    5    8      5.01      0.00
    9    5    8      7.05      0.00
   11    5    8      4.00      0.00
   13    5    8     -1.43      0.00
   15    5    8     -4.38      0.00
   17    5    8     -2.84      0.00
   19    5    8      0.52      0.00
   21    5    8      2.10      0.00
   23    5    8      1.40      0.00
   25    5    8      0.24      0.00
  -26    6    8     -2.91      0.00
  -24    6    8     -2.01      0.00
  -22    6    8     -2.77      0.00
  -20    6    8     -3.68      0.00
  -18    6    8     -1.76      0.00
  -16    6    8      2.61      0.00
  -14    6    8      5.55      0.00
  -12    6    8      4.38      0.00
  -10    6    8      0.02      0.00
   -8    6    8     -5.02      0.00
   -6    6    8     -8.63      0.00
   -4    6    8     -9.06      0.00
   -2    6    8     -5.62      0.00
    0    6    8     -0.20      0.00
    2    6    8      3.60      0.00
    4    6    8      3.57      0.00
    6    6    8      0.80      0.00
    8    6    8     -1.54      0.00
   10    6    8     -1.22      0.00
   12    6    8      1.17      0.00
   14    6    8      3.08      0.00
   16    6    8      2.90      0.00
   18    6    8      1.61      0.00
   20    6    8      0.92      0.00
   22    6    8      0.83      0.00
   24    6    8      0.16      0.00
  -25    7    8     -1.87      0.00
  -23    7    8     -2.19      0.00
  -21    7    8     -0.71      0.00
  -19    7    8      0.67      0.00
  -17    7    8      0.26      0.00
  -15    7    8     -1.80      0.00
  -13    7    8     -4.21      0.00
  -11    7    8     -5.85      0.00
   -9    7    8     -6.26      0.00
   -7    7    8     -5.67      0.00
   -5    7    8     -4.83      0.00
   -3    7    8     -4.45      0.00
   -1    7    8     -4.67      0.00
    1    7    8     -5.08      0.00
    3    7    8     -5.20      0.00
    5    7    8     -4.87      0.00
    7    7    8     -4.41      0.00
    9    7    8     -4.38      0.00
   11    7    8     -4.84      0.00
   13    7    8     -4.94      0.00
   15    7    8     -3.82      0.00
   17    7    8     -1.75      0.00
   19    7    8      0.07      0.00
   21    7    8      0.86      0.00
   23    7    8      0.84      0.00
  -24    8    8      0.27      0.00
  -22    8    8     -4.49      0.00
  -20    8    8     -7.25      0.00
  -18    8    8     -6.55      0.00
  -16    8    8     -3.22      0.00
  -14    8    8      1.03      0.00
  -12    8    8      4.32      0.00
  -10    8    8      5.24      0.00
   -8    8    8      4.21      0.00
   -6    8    8      3.02      0.00
   -4    8    8      2.46      0.00
   -2    8    8      1.73      0.00
    0    8    8      0.37      0.00
    2    8    8     -0.64      0.00
    4    8    8     -0.57      0.00
    6    8    8      0.03      0.00
    8    8    8      0.61      0.00
   10    8    8      1.36      0.00
   12    8    8      2.08      0.00
   14    8    8      1.55      0.00
   16    8    8     -0.83      0.00
   18    8    8     -3.55      0.00
   20    8    8     -4.33      0.00
   22    8    8     -2.64      0.00
  -23    9    8     -2.32      0.00
  -21    9    8     -4.17      0.00
  -19    9    8     -5.92      0.00
  -17    9    8     -5.80      0.00
  -15    9    8     -3.78      0.00
  -13    9    8     -1.44      0.00
  -11    9    8     -0.17      0.00
   -9    9    8     -0.42      0.00
   -7    9    8     -1.69      0.00
   -5    9    8     -2.71      0.00
   -3    9    8     -2.27      0.00
   -1    9    8     -0.56      0.00
    1    9    8      1.00      0.00
    3    9    8      1.56      0.00
    5    9    8      1.56      0.00
    7    9    8      1.48      0.00
    9    9    8      0.84      0.00
   11    9    8     -0.77      0.00
   13    9    8     -2.33      0.00
   15    9    8     -2.18      0.00
   17    9    8     -0.02      0.00
   19    9    8      2.41      0.00
   21    9    8      3.07      0.00
  -22   10    8      7.64      0.00
  -20   10    8      8.87      0.00
  -18   10    8      7.42      0.00
  -16   10    8      4.59      0.00
  -14   10    8      2.18      0.00
  -12   10    8      1.14      0.00
  -10   10    8      1.39      0.00
   -8   10    8      2.02      0.00
   -6   10    8      1.94      0.00
   -4   10    8      1.08      0.00
   -2   10    8      0.51      0.00
    0   10    8      0.80      0.00
    2   10    8      1.27      0.00
    4   10    8      1.42      0.00
    6   10    8      1.51      0.00
    8   10    8      1.41      0.00
   10   10    8      0.28      0.00
   12   10    8     -1.51      0.00
   14   10    8     -2.07      0.00
   16   10    8     -0.43      0.00
   18   10    8      1.93      0.00
   20   10    8      3.12      0.00
  -19   11    8     -1.28      0.00
  -17   11    8      0.56      0.00
  -15   11    8      1.23      0.00
  -13   11    8      0.96      0.00
  -11   11    8      0.68      0.00
   -9   11    8      0.86      0.00
   -7   11    8      1.28      0.00
   -5   11    8      1.10      0.00
   -3   11    8     -0.42      0.00
   -1   11    8     -2.59      0.00
    1   11    8     -3.69      0.00
    3   11    8     -3.33      0.00
    5   11    8     -2.93      0.00
    7   11    8     -3.02      0.00
    9   11    8     -2.03      0.00
   11   11    8      0.85      0.00
   13   11    8      3.46      0.00
   15   11    8      3.37      0.00
   17   11    8      1.31      0.00
  -14   12    8      5.73      0.00
  -12   12    8      5.12      0.00
  -10   12    8      2.39      0.00
   -8   12    8     -0.06      0.00
   -6   12    8     -0.48      0.00
   -4   12    8      0.37      0.00
   -2   12    8      0.45      0.00
    0   12    8     -0.61      0.00
    2   12    8     -0.84      0.00
    4   12    8      1.11      0.00
    6   12    8      3.78      0.00
    8   12    8      4.80      0.00
   10   12    8      3.93      0.00
   12   12    8      2.70      0.00
   14   12    8      1.85      0.00
   16   12    8      0.80      0.00
  -13   13    8     -5.00      0.00
  -11   13    8      0.60      0.00
   -9   13    8      5.70      0.00
   -7   13    8      6.15      0.00
   -5   13    8      2.29      0.00
   -3   13    8     -1.72      0.00
   -1   13    8     -3.51      0.00
    1   13    8     -5.03      0.00
    3   13    8     -8.15      0.00
    5   13    8    -10.68      0.00
    7   13    8     -9.57      0.00
    9   13    8     -5.95      0.00
   11   13    8     -3.36      0.00
   13   13    8     -2.60      0.00
  -10   14    8     -4.70      0.00
   -8   14    8     -6.59      0.00
   -6   14    8     -6.39      0.00
   -4   14    8     -5.54      0.00
   -2   14    8     -5.29      0.00
    0   14    8     -4.90      0.00
    2   14    8     -3.38      0.00
    4   14    8     -1.65      0.00
    6   14    8     -1.22      0.00
    8   14    8     -1.72      0.00
  -29    1    9      2.60      0.00
  -27    1    9      3.37      0.00
  -25    1    9      3.12      0.00
  -23    1    9      3.28      0.00
  -21    1    9      3.46      0.00
  -19    1    9      1.84      0.00
  -17    1    9     -2.04      0.00
  -15    1    9     -6.47      0.00
  -13    1    9     -8.21      0.00
  -11    1    9     -2.97      0.00
   -9    1    9     10.76      0.00
   -7    1    9     25.95      0.00
   -5    1    9     30.20      0.00
   -3    1    9     19.55      0.00
   -1    1    9      5.30      0.00
    1    1    9      1.60      0.00
    3    1    9      9.52      0.00
    5    1    9     18.85      0.00
    7    1    9     22.10      0.00
    9    1    9     20.05      0.00
   11    1    9     15.44      0.00
   13    1    9      8.63      0.00
   15    1    9      0.49      0.00
   17    1    9     -5.65      0.00
   19    1    9     -7.05      0.00
   21    1    9     -4.28      0.00
   23    1    9     -0.12      0.00
   25    1    9      2.84      0.00
   27    1    9      3.42      0.00
  -28    2    9     -3.69      0.00
  -26    2    9     -3.18      0.00
  -24    2    9     -1.20      0.00
  -22    2    9      0.44      0.00
  -20    2    9      1.39      0.00
  -18    2    9      2.60      0.00
  -16    2    9      4.70      0.00
  -14    2    9      7.07      0.00
  -12    2    9      7.07      0.00
  -10    2    9      1.56      0.00
   -8    2    9     -7.52      0.00
   -6    2    9    -10.65      0.00
   -4    2    9      0.46      0.00
   -2    2    9     20.62      0.00
    0    2    9     33.57      0.00
    2    2    9     28.75      0.00
    4    2    9     11.56      0.00
    6    2    9     -4.81      0.00
    8    2    9    -12.67      0.00
   10    2    9    -12.41      0.00
   12    2    9     -7.09      0.00
   14    2    9      0.25      0.00
   16    2    9      5.94      0.00
   18    2    9      6.77      0.00
   20    2    9      2.74      0.00
   22    2    9     -2.76      0.00
   24    2    9     -5.85      0.00
   26    2    9     -5.06      0.00
  -29    3    9     -0.67      0.00
  -27    3    9      0.60      0.00
  -25    3    9      1.32      0.00
  -23    3    9      0.77      0.00
  -21    3    9     -0.08      0.00
  -19    3    9     -0.04      0.00
  -17    3    9      0.24      0.00
  -15    3    9     -1.30      0.00
  -13    3    9     -5.27      0.00
  -11    3    9     -9.75      0.00
   -9    3    9    -12.49      0.00
   -7    3    9    -13.50      0.00
   -5    3    9    -14.53      0.00
   -3    3    9    -16.32      0.00
   -1    3    9    -17.05      0.00
    1    3    9    -14.24      0.00
    3    3    9     -8.29      0.00
    5    3    9     -2.97      0.00
    7    3    9     -1.55      0.00
    9    3    9     -2.90      0.00
   11    3    9     -3.11      0.00
   13    3    9     -0.71      0.00
   15    3    9      1.77      0.00
   17    3    9      1.80      0.00
   19    3    9      0.30      0.00
   21    3    9     -0.24      0.00
   23    3    9      0.62      0.00
   25    3    9      1.28      0.00
   27    3    9      0.85      0.00
  -28    4    9      2.23      0.00
  -26    4    9      0.34      0.00
  -24    4    9     -0.25      0.00
  -22    4    9      1.57      0.00
  -20    4    9      2.54      0.00
  -18    4    9     -0.59      0.00
  -16    4    9     -5.66      0.00
  -14    4    9     -6.98      0.00
  -12    4    9     -1.74      0.00
  -10    4    9      7.55      0.00
   -8    4    9     15.46      0.00
   -6    4    9     16.94      0.00
   -4    4    9     10.12      0.00
   -2    4    9     -1.52      0.00
    0    4    9    -10.75      0.00
    2    4    9    -12.19      0.00
    4    4    9     -6.24      0.00
    6    4    9      2.20      0.00
    8    4    9      7.37      0.00
   10    4    9      5.79      0.00
   12    4    9     -1.25      0.00
   14    4    9     -7.81      0.00
   16    4    9     -8.46      0.00
   18    4    9     -3.90      0.00
   20    4    9      0.49      0.00
   22    4    9      1.32      0.00
   24    4    9      0.15      0.00
   26    4    9     -0.19      0.00
  -27    5    9      0.11      0.00
  -25    5    9      1.56      0.00
  -23    5    9      1.66      0.00
  -21    5    9      0.00      0.00
  -19    5    9     -0.63      0.00
  -17    5    9      1.63      0.00
  -15    5    9      4.79      0.00
  -13    5    9      5.52      0.00
  -11    5    9      2.81      0.00
   -9    5    9     -1.81      0.00
   -7    5    9     -5.90      0.00
   -5    5    9     -7.07      0.00
   -3    5    9     -4.15      0.00
   -1    5    9      1.24      0.00
    1    5    9      5.21      0.00
    3    5    9      4.89      0.00
    5    5    9      0.99      0.00
    7    5    9     -2.95      0.00
    9    5    9     -3.50      0.00
   11    5    9     -0.20      0.00
   13    5    9      3.93      0.00
   15    5    9      4.98      0.00
   17    5    9      2.04      0.00
   19    5    9     -2.01      0.00
   21    5    9     -3.76      0.00
   23    5    9     -2.58      0.00
   25    5    9     -0.36      0.00
  -26    6    9     -5.52      0.00
  -24    6    9     -5.23      0.00
  -22    6    9     -2.51      0.00
  -20    6    9      0.70      0.00
  -18    6    9      2.10      0.00
  -16    6    9      0.70      0.00
  -14    6    9     -2.67      0.00
  -12    6    9     -5.87      0.00
  -10    6    9     -7.13      0.00
   -8    6    9     -6.46      0.00
   -6    6    9     -5.13      0.00
   -4    6    9     -3.93      0.00
   -2    6    9     -2.48      0.00
    0    6    9     -0.38      0.00
    2    6    9      1.77      0.00
    4    6    9      2.91      0.00
    6    6    9      2.49      0.00
    8    6    9      0.82      0.00
   10    6    9     -1.33      0.00
   12    6    9     -3.14      0.00
   14    6    9     -3.98      0.00
   16    6    9     -3.61      0.00
   18    6    9     -2.28      0.00
   20    6    9     -0.83      0.00
   22    6    9     -0.24      0.00
   24    6    9     -0.85      0.00
  -25    7    9      0.83      0.00
  -23    7    9     -0.42      0.00
  -21    7    9     -0.37      0.00
  -19    7    9     -0.17      0.00
  -17    7    9     -1.33      0.00
  -15    7    9     -3.17      0.00
  -13    7    9     -3.98      0.00
  -11    7    9     -3.46      0.00
   -9    7    9     -2.33      0.00
   -7    7    9     -1.02      0.00
   -5    7    9     -0.40      0.00
   -3    7    9     -2.11      0.00
   -1    7    9     -6.18      0.00
    1    7    9     -9.49      0.00
    3    7    9     -8.64      0.00
    5    7    9     -4.00      0.00
    7    7    9      0.57      0.00
    9    7    9      1.76      0.00
   11    7    9     -0.44      0.00
   13    7    9     -3.67      0.00
   15    7    9     -5.69      0.00
   17    7    9     -5.78      0.00
   19    7    9     -4.19      0.00
   21    7    9     -1.45      0.00
   23    7    9      1.46      0.00
  -24    8    9      8.06      0.00
  -22    8    9      5.11      0.00
  -20    8    9      0.23      0.00
  -18    8    9     -3.11      0.00
  -16    8    9     -3.29      0.00
  -14    8    9     -1.41      0.00
  -12    8    9      0.40      0.00
  -10    8    9      0.48      0.00
   -8    8    9     -1.66      0.00
   -6    8    9     -4.73      0.00
   -4    8    9     -6.19      0.00
   -2    8    9     -4.58      0.00
    0    8    9     -1.20      0.00
    2    8    9      1.30      0.00
    4    8    9      1.62      0.00
    6    8    9      0.78      0.00
    8    8    9      0.46      0.00
   10    8    9      1.12      0.00
   12    8    9      1.88      0.00
   14    8    9      1.87      0.00
   16    8    9      1.35      0.00
   18    8    9      1.09      0.00
   20    8    9      1.06      0.00
   22    8    9      0.65      0.00
  -23    9    9     -2.01      0.00
  -21    9    9     -0.63      0.00
  -19    9    9      0.09      0.00
  -17    9    9      0.55      0.00
  -15    9    9      0.75      0.00
  -13    9    9     -0.14      0.00
  -11    9    9     -2.23      0.00
   -9    9    9     -4.46      0.00
   -7    9    9     -5.83      0.00
   -5    9    9     -5.98      0.00
   -3    9    9     -4.68      0.00
   -1    9    9     -2.37      0.00
    1    9    9     -0.54      0.00
    3    9    9     -0.26      0.00
    5    9    9     -0.89      0.00
    7    9    9     -1.31      0.00
    9    9    9     -1.74      0.00
   11    9    9     -2.70      0.00
   13    9    9     -3.26      0.00
   15    9    9     -2.19      0.00
   17    9    9     -0.27      0.00
   19    9    9      0.57      0.00
   21    9    9     -0.08      0.00
  -22   10    9     -3.46      0.00
  -20   10    9     -2.30      0.00
  -18   10    9     -1.19      0.00
  -16   10    9     -1.29      0.00
  -14   10    9     -1.71      0.00
  -12   10    9     -1.02      0.00
  -10   10    9      0.92      0.00
   -8   10    9      3.05      0.00
   -6   10    9      4.02      0.00
   -4   10    9      2.96      0.00
   -2   10    9      0.43      0.00
    0   10    9     -1.47      0.00
    2   10    9     -1.18      0.00
    4   10    9      0.37      0.00
    6   10    9      1.30      0.00
    8   10    9      1.48      0.00
   10   10    9      2.15      0.00
   12   10    9      3.26      0.00
   14   10    9      3.30      0.00
   16   10    9      1.83      0.00
   18   10    9      0.42      0.00
   20   10    9      0.46      0.00
  -19   11    9     -2.17      0.00
  -17   11    9     -1.43      0.00
  -13   11    9      2.52      0.00
  -11   11    9      1.65      0.00
   -9   11    9     -0.77      0.00
   -7   11    9     -2.36      0.00
   -5   11    9     -1.92      0.00
   -3   11    9     -0.79      0.00
   -1   11    9     -0.85      0.00
    1   11    9     -1.95      0.00
    3   11    9     -2.57      0.00
    5   11    9     -2.39      0.00
    7   11    9     -2.31      0.00
    9   11    9     -2.45      0.00
   11   11    9     -2.09      0.00
   13   11    9     -1.43      0.00
   15   11    9     -1.49      0.00
   17   11    9     -2.32      0.00
  -14   12    9     -5.22      0.00
  -12   12    9     -3.48      0.00
  -10   12    9     -1.15      0.00
   -8   12    9     -0.25      0.00
   -6   12    9     -1.30      0.00
   -4   12    9     -2.17      0.00
   -2   12    9     -0.80      0.00
    0   12    9      1.64      0.00
    2   12    9      2.49      0.00
    4   12    9      1.78      0.00
    6   12    9      1.58      0.00
    8   12    9      1.66      0.00
   10   12    9     -0.48      0.00
   12   12    9     -4.90      0.00
   14   12    9     -8.06      0.00
  -13   13    9     -2.45      0.00
  -11   13    9     -4.31      0.00
   -9   13    9     -5.28      0.00
   -7   13    9     -5.19      0.00
   -5   13    9     -4.53      0.00
   -3   13    9     -3.73      0.00
   -1   13    9     -2.75      0.00
    1   13    9     -1.80      0.00
    3   13    9     -1.68      0.00
    5   13    9     -2.50      0.00
    7   13    9     -2.78      0.00
    9   13    9     -1.21      0.00
   11   13    9      1.37      0.00
  -10   14    9     -2.35      0.00
   -8   14    9     -3.92      0.00
   -6   14    9     -2.50      0.00
   -4   14    9      0.12      0.00
   -2   14    9      1.26      0.00
    0   14    9      1.58      0.00
    2   14    9      3.87      0.00
    4   14    9      7.91      0.00
    6   14    9      9.85      0.00
    8   14    9      7.62      0.00
  -28    0   10      6.16      0.00
  -26    0   10      7.71      0.00
  -24    0   10      8.76      0.00
  -22    0   10      8.86      0.00
  -20    0   10      6.29      0.00
  -18    0   10      0.71      0.00
  -16    0   10     -5.75      0.00
  -14    0   10     -9.92      0.00
  -12    0   10     -8.15      0.00
  -10    0   10      2.08      0.00
   -8    0   10     16.47      0.00
   -6    0   10     22.27      0.00
   -4    0   10     10.20      0.00
   -2    0   10    -11.63      0.00
    0    0   10    -23.35      0.00
    2    0   10    -15.09      0.00
    4    0   10      3.31      0.00
    6    0   10     15.87      0.00
    8    0   10     17.11      0.00
   10    0   10     11.91      0.00
   14    0   10      0.39      0.00
   16    0   10     -3.24      0.00
   18    0   10     -4.10      0.00
   20    0   10     -2.13      0.00
   22    0   10      1.17      0.00
   24    0   10      3.69      0.00
   26    0   10      3.99      0.00
  -29    1   10      1.07      0.00
  -27    1   10      1.33      0.00
  -25    1   10      1.13      0.00
  -23    1   10      0.23      0.00
  -21    1   10     -0.69      0.00
  -19    1   10     -0.42      0.00
  -17    1   10      1.78      0.00
  -15    1   10      5.66      0.00
  -13    1   10      9.80      0.00
  -11    1   10     12.01      0.00
   -9    1   10     11.84      0.00
   -7    1   10     13.42      0.00
   -5    1   10     22.25      0.00
   -3    1   10     36.79      0.00
   -1    1   10     46.23      0.00
    1    1   10     40.65      0.00
    3    1   10     22.30      0.00
    5    1   10      3.63      0.00
    7    1   10     -5.42      0.00
    9    1   10     -5.05      0.00
   11    1   10     -1.56      0.00
   15    1   10      1.48      0.00
   17    1   10      2.47      0.00
   19    1   10      3.91      0.00
   21    1   10      4.78      0.00
   23    1   10      4.22      0.00
   25    1   10      2.62      0.00
   27    1   10      0.98      0.00
  -28    2   10      1.44      0.00
  -26    2   10      3.15      0.00
  -24    2   10      2.99      0.00
  -22    2   10      1.28      0.00
  -20    2   10      0.92      0.00
  -18    2   10      3.22      0.00
  -16    2   10      5.48      0.00
  -14    2   10      3.94      0.00
  -12    2   10     -2.14      0.00
  -10    2   10     -9.98      0.00
   -8    2   10    -15.09      0.00
   -6    2   10    -13.58      0.00
   -4    2   10     -5.25      0.00
   -2    2   10      4.89      0.00
    0    2   10     10.25      0.00
    2    2   10      8.65      0.00
    4    2   10      3.22      0.00
    6    2   10     -2.02      0.00
    8    2   10     -5.03      0.00
   10    2   10     -4.90      0.00
   12    2   10     -1.73      0.00
   14    2   10      2.00      0.00
   16    2   10      2.84      0.00
   18    2   10      0.33      0.00
   20    2   10     -2.37      0.00
   22    2   10     -2.57      0.00
   24    2   10     -0.80      0.00
   26    2   10      0.90      0.00
  -29    3   10      0.68      0.00
  -27    3   10      0.14      0.00
  -25    3   10     -0.30      0.00
  -23    3   10      1.35      0.00
  -21    3   10      3.86      0.00
  -19    3   10      3.77      0.00
  -17    3   10      0.63      0.00
  -15    3   10     -1.70      0.00
  -13    3   10      0.67      0.00
  -11    3   10      8.21      0.00
   -9    3   10     17.93      0.00
   -7    3   10     24.51      0.00
   -5    3   10     23.12      0.00
   -3    3   10     14.59      0.00
   -1    3   10      6.50      0.00
    1    3   10      6.04      0.00
    3    3   10     12.17      0.00
    5    3   10     17.58      0.00
    7    3   10     16.93      0.00
    9    3   10     10.76      0.00
   11    3   10      2.97      0.00
   13    3   10     -2.45      0.00
   15    3   10     -3.24      0.00
   17    3   10     -0.46      0.00
   19    3   10      2.01      0.00
   21    3   10      1.32      0.00
   23    3   10     -1.41      0.00
   25    3   10     -3.01      0.00
  -28    4   10     -0.15      0.00
  -26    4   10      1.25      0.00
  -24    4   10      2.44      0.00
  -22    4   10      1.82      0.00
  -20    4   10      0.07      0.00
  -18    4   10     -0.54      0.00
  -16    4   10      1.10      0.00
  -14    4   10      3.76      0.00
  -12    4   10      5.16      0.00
  -10    4   10      4.05      0.00
   -8    4   10      1.40      0.00
   -6    4   10      0.18      0.00
   -4    4   10      2.81      0.00
   -2    4   10      8.27      0.00
    0    4   10     12.31      0.00
    2    4   10     11.44      0.00
    4    4   10      6.44      0.00
    6    4   10      1.16      0.00
    8    4   10     -1.50      0.00
   10    4   10     -1.61      0.00
   12    4   10     -0.93      0.00
   14    4   10     -0.71      0.00
   16    4   10     -1.03      0.00
   18    4   10     -1.54      0.00
   20    4   10     -2.12      0.00
   22    4   10     -2.76      0.00
   24    4   10     -3.28      0.00
   26    4   10     -3.37      0.00
  -27    5   10     -0.71      0.00
  -25    5   10     -2.18      0.00
  -23    5   10     -3.73      0.00
  -21    5   10     -4.25      0.00
  -19    5   10     -2.24      0.00
  -17    5   10      1.54      0.00
  -15    5   10      3.99      0.00
  -13    5   10      3.14      0.00
  -11    5   10      0.45      0.00
   -9    5   10     -1.39      0.00
   -7    5   10     -1.24      0.00
   -5    5   10      0.60      0.00
   -3    5   10      3.70      0.00
   -1    5   10      7.29      0.00
    1    5   10      9.66      0.00
    3    5   10      9.06      0.00
    5    5   10      5.34      0.00
    7    5   10      0.67      0.00
    9    5   10     -1.71      0.00
   11    5   10     -0.25      0.00
   13    5   10      3.21      0.00
   15    5   10      5.09      0.00
   17    5   10      3.90      0.00
   19    5   10      1.32      0.00
   21    5   10     -0.46      0.00
   23    5   10     -1.17      0.00
   25    5   10     -1.51      0.00
  -26    6   10      0.28      0.00
  -24    6   10      0.02      0.00
  -22    6   10      2.25      0.00
  -20    6   10      4.42      0.00
  -18    6   10      2.94      0.00
  -16    6   10     -1.58      0.00
  -14    6   10     -4.79      0.00
  -12    6   10     -3.82      0.00
  -10    6   10      0.46      0.00
   -8    6   10      5.77      0.00
   -6    6   10     10.05      0.00
   -4    6   10     11.14      0.00
   -2    6   10      7.74      0.00
    0    6   10      1.63      0.00
    2    6   10     -2.95      0.00
    4    6   10     -3.25      0.00
    6    6   10     -0.51      0.00
    8    6   10      1.72      0.00
   10    6   10      1.32      0.00
   12    6   10     -0.67      0.00
   14    6   10     -1.80      0.00
   16    6   10     -1.23      0.00
   18    6   10     -0.29      0.00
   20    6   10     -0.21      0.00
   22    6   10     -0.44      0.00
   24    6   10      0.09      0.00
  -25    7   10      3.07      0.00
  -23    7   10      1.55      0.00
  -21    7   10     -0.81      0.00
  -19    7   10     -1.93      0.00
  -17    7   10     -0.83      0.00
  -15    7   10      1.61      0.00
  -13    7   10      3.98      0.00
  -11    7   10      5.48      0.00
   -9    7   10      5.91      0.00
   -7    7   10      5.52      0.00
   -5    7   10      5.09      0.00
   -3    7   10      5.33      0.00
   -1    7   10      6.23      0.00
    1    7   10      7.02      0.00
    3    7   10      6.93      0.00
    5    7   10      5.91      0.00
    7    7   10      4.69      0.00
    9    7   10      4.09      0.00
   11    7   10      4.01      0.00
   13    7   10      3.47      0.00
   15    7   10      1.82      0.00
   17    7   10     -0.34      0.00
   19    7   10     -1.86      0.00
   21    7   10     -2.37      0.00
   23    7   10     -2.22      0.00
  -24    8   10     -1.12      0.00
  -22    8   10      1.15      0.00
  -20    8   10      2.61      0.00
  -18    8   10      2.76      0.00
  -16    8   10      1.46      0.00
  -14    8   10     -1.31      0.00
  -12    8   10     -4.29      0.00
  -10    8   10     -5.52      0.00
   -8    8   10     -4.77      0.00
   -6    8   10     -3.66      0.00
   -4    8   10     -3.02      0.00
   -2    8   10     -2.09      0.00
    0    8   10     -0.56      0.00
    2    8   10      0.56      0.00
    4    8   10      0.70      0.00
    6    8   10      0.55      0.00
    8    8   10      0.43      0.00
   10    8   10     -0.22      0.00
   12    8   10     -1.18      0.00
   14    8   10     -0.88      0.00
   16    8   10      1.33      0.00
   18    8   10      3.71      0.00
   20    8   10      3.92      0.00
   22    8   10      1.81      0.00
  -23    9   10      1.09      0.00
  -21    9   10      4.96      0.00
  -19    9   10      7.71      0.00
  -17    9   10      7.56      0.00
  -15    9   10      5.29      0.00
  -13    9   10      2.78      0.00
  -11    9   10      1.07      0.00
   -9    9   10      0.47      0.00
   -7    9   10      0.92      0.00
   -5    9   10      1.48      0.00
   -3    9   10      0.80      0.00
   -1    9   10     -1.15      0.00
    1    9   10     -2.78      0.00
    3    9   10     -3.04      0.00
    5    9   10     -2.53      0.00
    7    9   10     -1.97      0.00
    9    9   10     -0.92      0.00
   11    9   10      1.06      0.00
   13    9   10      2.82      0.00
   15    9   10      2.50      0.00
   17    9   10     -0.07      0.00
   19    9   10     -2.78      0.00
   21    9   10     -3.46      0.00
  -22   10   10     -8.95      0.00
  -20   10   10     -9.59      0.00
  -18   10   10     -7.35      0.00
  -16   10   10     -4.08      0.00
  -14   10   10     -1.76      0.00
  -12   10   10     -1.13      0.00
  -10   10   10     -1.80      0.00
   -8   10   10     -2.54      0.00
   -6   10   10     -2.12      0.00
   -4   10   10     -0.78      0.00
   -2   10   10     -0.06      0.00
    0   10   10     -0.69      0.00
    2   10   10     -1.86      0.00
    4   10   10     -2.77      0.00
    6   10   10     -3.38      0.00
    8   10   10     -3.18      0.00
   10   10   10     -1.23      0.00
   12   10   10      1.85      0.00
   14   10   10      3.82      0.00
   16   10   10      3.53      0.00
   18   10   10      2.10      0.00
  -19   11   10      0.01      0.00
  -15   11   10     -3.66      0.00
  -13   11   10     -4.27      0.00
  -11   11   10     -4.17      0.00
   -9   11   10     -3.75      0.00
   -7   11   10     -3.55      0.00
   -5   11   10     -3.26      0.00
   -3   11   10     -1.87      0.00
   -1   11   10      0.36      0.00
    1   11   10      1.76      0.00
    3   11   10      1.77      0.00
    5   11   10      1.71      0.00
    7   11   10      1.91      0.00
    9   11   10      0.57      0.00
   11   11   10     -2.91      0.00
   13   11   10     -5.74      0.00
   15   11   10     -5.15      0.00
   17   11   10     -2.22      0.00
  -14   12   10     -6.29      0.00
  -12   12   10     -4.64      0.00
  -10   12   10     -1.72      0.00
   -8   12   10      0.49      0.00
   -6   12   10      0.85      0.00
   -4   12   10      0.21      0.00
   -2   12   10      0.20      0.00
    0   12   10      0.85      0.00
    2   12   10      0.27      0.00
    4   12   10     -2.43      0.00
    6   12   10     -5.23      0.00
    8   12   10     -5.48      0.00
   10   12   10     -3.28      0.00
   12   12   10     -0.96      0.00
   14   12   10     -0.09      0.00
  -13   13   10      1.22      0.00
  -11   13   10     -3.47      0.00
   -9   13   10     -7.04      0.00
   -7   13   10     -6.01      0.00
   -5   13   10     -1.27      0.00
   -3   13   10      2.67      0.00
   -1   13   10      3.61      0.00
    1   13   10      4.18      0.00
    3   13   10      6.78      0.00
    5   13   10      9.13      0.00
    7   13   10      7.97      0.00
    9   13   10      4.37      0.00
   11   13   10      1.88      0.00
   -8   14   10      6.13      0.00
   -6   14   10      4.67      0.00
   -4   14   10      3.29      0.00
   -2   14   10      3.95      0.00
    0   14   10      5.47      0.00
    2   14   10      5.59      0.00
    4   14   10      4.29      0.00
    6   14   10      3.20      0.00
  -29    1   11     -2.25      0.00
  -27    1   11     -2.42      0.00
  -25    1   11     -2.35      0.00
  -23    1   11     -3.51      0.00
  -21    1   11     -4.73      0.00
  -19    1   11     -3.38      0.00
  -17    1   11      1.00      0.00
  -15    1   11      5.96      0.00
  -13    1   11      7.53      0.00
  -11    1   11      1.75      0.00
   -9    1   11    -11.82      0.00
   -7    1   11    -26.06      0.00
   -5    1   11    -29.62      0.00
   -3    1   11    -18.84      0.00
   -1    1   11     -3.45      0.00
    1    1   11      3.26      0.00
    3    1   11     -2.08      0.00
    5    1   11    -12.25      0.00
    7    1   11    -19.13      0.00
    9    1   11    -19.59      0.00
   11    1   11    -14.24      0.00
   13    1   11     -5.61      0.00
   15    1   11      2.21      0.00
   17    1   11      5.57      0.00
   19    1   11      4.09      0.00
   21    1   11      0.46      0.00
   23    1   11     -2.41      0.00
   25    1   11     -3.24      0.00
   27    1   11     -2.31      0.00
  -28    2   11      2.90      0.00
  -26    2   11      2.65      0.00
  -24    2   11      1.77      0.00
  -22    2   11      1.47      0.00
  -20    2   11      1.16      0.00
  -18    2   11     -0.43      0.00
  -16    2   11     -3.39      0.00
  -14    2   11     -6.32      0.00
  -12    2   11     -6.71      0.00
  -10    2   11     -2.23      0.00
   -8    2   11      5.39      0.00
   -6    2   11      8.68      0.00
   -4    2   11      1.06      0.00
   -2    2   11    -13.87      0.00
    0    2   11    -23.72      0.00
    2    2   11    -19.83      0.00
    4    2   11     -5.67      0.00
    6    2   11      8.27      0.00
    8    2   11     14.48      0.00
   10    2   11     12.18      0.00
   12    2   11      4.84      0.00
   14    2   11     -2.87      0.00
   16    2   11     -6.98      0.00
   18    2   11     -6.04      0.00
   20    2   11     -1.63      0.00
   22    2   11      3.11      0.00
   24    2   11      5.51      0.00
   26    2   11      4.76      0.00
  -29    3   11      1.26      0.00
  -27    3   11      0.51      0.00
  -25    3   11      0.25      0.00
  -23    3   11      0.76      0.00
  -21    3   11      1.05      0.00
  -19    3   11      0.40      0.00
  -17    3   11     -0.08      0.00
  -15    3   11      1.65      0.00
  -13    3   11      5.97      0.00
  -11    3   11     10.83      0.00
   -9    3   11     13.86      0.00
   -7    3   11     14.79      0.00
   -5    3   11     15.23      0.00
   -3    3   11     16.27      0.00
   -1    3   11     16.71      0.00
    1    3   11     14.29      0.00
    3    3   11      8.96      0.00
    5    3   11      3.83      0.00
    7    3   11      1.98      0.00
    9    3   11      2.91      0.00
   11    3   11      3.35      0.00
   13    3   11      1.67      0.00
   15    3   11     -0.48      0.00
   17    3   11     -0.97      0.00
   19    3   11     -0.11      0.00
   21    3   11      0.35      0.00
   23    3   11     -0.15      0.00
   25    3   11     -0.67      0.00
  -28    4   11     -2.70      0.00
  -26    4   11     -0.23      0.00
  -24    4   11      0.81      0.00
  -22    4   11     -1.03      0.00
  -20    4   11     -2.49      0.00
  -18    4   11      0.01      0.00
  -16    4   11      4.75      0.00
  -14    4   11      6.39      0.00
  -12    4   11      2.00      0.00
  -10    4   11     -6.45      0.00
   -8    4   11    -14.21      0.00
   -6    4   11    -16.69      0.00
   -4    4   11    -11.65      0.00
   -2    4   11     -1.22      0.00
    0    4   11      8.68      0.00
    2    4   11     12.51      0.00
    4    4   11      9.14      0.00
    6    4   11      2.24      0.00
    8    4   11     -2.58      0.00
   10    4   11     -1.64      0.00
   12    4   11      3.74      0.00
   14    4   11      8.10      0.00
   16    4   11      7.31      0.00
   18    4   11      2.79      0.00
   20    4   11     -0.85      0.00
   22    4   11     -1.46      0.00
   24    4   11     -0.82      0.00
   26    4   11     -0.98      0.00
  -27    5   11     -2.70      0.00
  -25    5   11     -3.13      0.00
  -23    5   11     -2.09      0.00
  -21    5   11      0.09      0.00
  -19    5   11      0.49      0.00
  -17    5   11     -2.11      0.00
  -15    5   11     -5.11      0.00
  -13    5   11     -5.29      0.00
  -11    5   11     -2.35      0.00
   -9    5   11      1.71      0.00
   -7    5   11      4.79      0.00
   -5    5   11      5.32      0.00
   -3    5   11      2.57      0.00
   -1    5   11     -2.07      0.00
    1    5   11     -5.18      0.00
    3    5   11     -4.22      0.00
    5    5   11     -0.17      0.00
    7    5   11      3.11      0.00
    9    5   11      2.53      0.00
   11    5   11     -1.30      0.00
   13    5   11     -4.52      0.00
   15    5   11     -3.80      0.00
   17    5   11      0.36      0.00
   19    5   11      4.40      0.00
   21    5   11      5.48      0.00
   23    5   11      3.73      0.00
   25    5   11      1.16      0.00
  -26    6   11      2.91      0.00
  -24    6   11      2.12      0.00
  -22    6   11      0.14      0.00
  -20    6   11     -2.15      0.00
  -18    6   11     -3.38      0.00
  -16    6   11     -2.36      0.00
  -14    6   11      0.96      0.00
  -12    6   11      5.01      0.00
  -10    6   11      7.63      0.00
   -8    6   11      7.88      0.00
   -6    6   11      6.52      0.00
   -4    6   11      4.65      0.00
   -2    6   11      2.73      0.00
    0    6   11      0.96      0.00
    2    6   11     -0.17      0.00
    4    6   11     -0.26      0.00
    6    6   11      0.60      0.00
    8    6   11      1.95      0.00
   10    6   11      3.24      0.00
   12    6   11      3.93      0.00
   14    6   11      3.59      0.00
   16    6   11      2.31      0.00
   18    6   11      0.74      0.00
   20    6   11     -0.22      0.00
   22    6   11     -0.03      0.00
   24    6   11      1.01      0.00
  -25    7   11     -0.18      0.00
  -23    7   11     -1.56      0.00
  -21    7   11     -4.14      0.00
  -19    7   11     -4.98      0.00
  -17    7   11     -2.63      0.00
  -15    7   11      0.76      0.00
  -13    7   11      2.46      0.00
  -11    7   11      2.31      0.00
   -9    7   11      1.53      0.00
   -7    7   11      0.65      0.00
   -5    7   11      0.41      0.00
   -3    7   11      2.43      0.00
   -1    7   11      6.74      0.00
    1    7   11     10.15      0.00
    3    7   11      9.42      0.00
    5    7   11      5.32      0.00
    7    7   11      1.80      0.00
    9    7   11      1.51      0.00
   11    7   11      3.61      0.00
   13    7   11      5.69      0.00
   15    7   11      6.39      0.00
   17    7   11      5.75      0.00
   19    7   11      4.05      0.00
   21    7   11      1.52      0.00
   23    7   11     -1.07      0.00
  -24    8   11     -5.97      0.00
  -22    8   11     -0.99      0.00
  -20    8   11      3.94      0.00
  -18    8   11      5.48      0.00
  -16    8   11      3.55      0.00
  -14    8   11      0.58      0.00
  -12    8   11     -1.22      0.00
  -10    8   11     -0.84      0.00
   -8    8   11      1.64      0.00
   -6    8   11      4.68      0.00
   -4    8   11      5.71      0.00
   -2    8   11      3.49      0.00
    0    8   11     -0.17      0.00
    2    8   11     -2.16      0.00
    4    8   11     -1.42      0.00
    6    8   11      0.31      0.00
    8    8   11      0.83      0.00
   10    8   11      0.03      0.00
   12    8   11     -0.52      0.00
   14    8   11      0.20      0.00
   16    8   11      1.50      0.00
   18    8   11      2.18      0.00
   20    8   11      2.17      0.00
   22    8   11      2.10      0.00
  -21    9   11      0.28      0.00
  -19    9   11      0.57      0.00
  -17    9   11      0.46      0.00
  -15    9   11      0.13      0.00
  -13    9   11      0.63      0.00
  -11    9   11      2.06      0.00
   -9    9   11      3.53      0.00
   -7    9   11      4.50      0.00
   -5    9   11      4.89      0.00
   -3    9   11      4.32      0.00
   -1    9   11      2.83      0.00
    1    9   11      1.62      0.00
    3    9   11      1.64      0.00
    5    9   11      2.20      0.00
    7    9   11      2.45      0.00
    9    9   11      2.97      0.00
   11    9   11      4.25      0.00
   13    9   11      5.02      0.00
   15    9   11      3.98      0.00
   17    9   11      2.01      0.00
   19    9   11      1.00      0.00
   21    9   11      1.10      0.00
  -20   10   11     -1.58      0.00
  -18   10   11     -1.19      0.00
  -16   10   11      0.83      0.00
  -14   10   11      2.26      0.00
  -12   10   11      1.82      0.00
  -10   10   11      0.14      0.00
   -8   10   11     -1.62      0.00
   -6   10   11     -2.60      0.00
   -4   10   11     -2.09      0.00
   -2   10   11     -0.32      0.00
    0   10   11      1.03      0.00
    2   10   11      0.69      0.00
    4   10   11     -0.30      0.00
    6   10   11     -0.25      0.00
    8   10   11      0.31      0.00
   10   10   11     -0.40      0.00
   12   10   11     -2.18      0.00
   14   10   11     -2.83      0.00
   16   10   11     -1.53      0.00
   18   10   11     -0.06      0.00
  -15   11   11     -0.67      0.00
  -13   11   11     -1.91      0.00
  -11   11   11     -1.19      0.00
   -9   11   11      0.69      0.00
   -7   11   11      1.76      0.00
   -5   11   11      1.15      0.00
   -3   11   11      0.13      0.00
   -1   11   11      0.29      0.00
    1   11   11      1.22      0.00
    3   11   11      1.48      0.00
    5   11   11      1.02      0.00
    7   11   11      0.92      0.00
    9   11   11      1.24      0.00
   11   11   11      1.11      0.00
   13   11   11      0.49      0.00
   15   11   11      0.25      0.00
   17   11   11      0.54      0.00
  -14   12   11      3.19      0.00
  -12   12   11      2.59      0.00
  -10   12   11      1.41      0.00
   -8   12   11      1.53      0.00
   -6   12   11      3.42      0.00
   -4   12   11      4.59      0.00
   -2   12   11      2.67      0.00
    0   12   11     -0.78      0.00
    2   12   11     -2.40      0.00
    4   12   11     -1.98      0.00
    6   12   11     -1.86      0.00
    8   12   11     -2.10      0.00
   10   12   11     -0.30      0.00
   12   12   11      3.62      0.00
   14   12   11      6.38      0.00
  -13   13   11      1.51      0.00
  -11   13   11      2.41      0.00
   -9   13   11      2.63      0.00
   -7   13   11      1.91      0.00
   -5   13   11      0.99      0.00
   -3   13   11      0.72      0.00
   -1   13   11      0.95      0.00
    1   13   11      1.10      0.00
    3   13   11      1.23      0.00
    5   13   11      1.36      0.00
    7   13   11      0.65      0.00
    9   13   11     -1.58      0.00
   11   13   11     -4.16      0.00
   -8   14   11      3.42      0.00
   -6   14   11      1.96      0.00
   -4   14   11     -0.61      0.00
   -2   14   11     -2.08      0.00
    0   14   11     -3.16      0.00
    2   14   11     -6.21      0.00
    4   14   11    -10.42      0.00
    6   14   11    -11.77      0.00
  -28    0   12     -2.89      0.00
  -26    0   12     -4.67      0.00
  -24    0   12     -7.22      0.00
  -22    0   12     -9.07      0.00
  -20    0   12     -7.37      0.00
  -18    0   12     -1.52      0.00
  -16    0   12      5.63      0.00
  -14    0   12      9.92      0.00
  -12    0   12      7.74      0.00
  -10    0   12     -2.41      0.00
   -8    0   12    -16.04      0.00
   -6    0   12    -22.29      0.00
   -4    0   12    -13.66      0.00
   -2    0   12      3.39      0.00
    0    0   12     13.11      0.00
    2    0   12      7.20      0.00
    4    0   12     -7.31      0.00
    6    0   12    -17.67      0.00
    8    0   12    -18.13      0.00
   10    0   12    -11.60      0.00
   12    0   12     -3.60      0.00
   14    0   12      2.06      0.00
   16    0   12      3.96      0.00
   18    0   12      2.62      0.00
   20    0   12     -0.28      0.00
   22    0   12     -2.97      0.00
   24    0   12     -4.17      0.00
   26    0   12     -3.30      0.00
  -29    1   12      0.24      0.00
  -27    1   12     -0.41      0.00
  -25    1   12     -0.45      0.00
  -23    1   12      0.68      0.00
  -21    1   12      2.09      0.00
  -19    1   12      1.95      0.00
  -17    1   12     -0.80      0.00
  -15    1   12     -5.61      0.00
  -13    1   12    -10.42      0.00
  -11    1   12    -12.55      0.00
   -9    1   12    -11.27      0.00
   -7    1   12    -10.19      0.00
   -5    1   12    -14.68      0.00
   -3    1   12    -24.79      0.00
   -1    1   12    -32.86      0.00
    1    1   12    -30.76      0.00
    3    1   12    -18.91      0.00
    5    1   12     -5.73      0.00
    7    1   12      1.14      0.00
    9    1   12      1.06      0.00
   11    1   12     -1.61      0.00
   13    1   12     -3.16      0.00
   15    1   12     -3.19      0.00
   17    1   12     -3.17      0.00
   19    1   12     -3.82      0.00
   21    1   12     -4.30      0.00
   23    1   12     -3.53      0.00
   25    1   12     -1.66      0.00
  -28    2   12     -0.19      0.00
  -26    2   12     -1.53      0.00
  -24    2   12     -1.13      0.00
  -22    2   12      0.74      0.00
  -20    2   12      1.42      0.00
  -18    2   12     -0.49      0.00
  -16    2   12     -2.78      0.00
  -14    2   12     -2.09      0.00
  -12    2   12      2.70      0.00
  -10    2   12      9.71      0.00
   -8    2   12     15.14      0.00
   -6    2   12     15.15      0.00
   -4    2   12      8.63      0.00
   -2    2   12     -1.03      0.00
    0    2   12     -8.42      0.00
    2    2   12    -10.58      0.00
    4    2   12     -8.41      0.00
    6    2   12     -4.43      0.00
    8    2   12     -1.03      0.00
   10    2   12     -0.10      0.00
   12    2   12     -1.89      0.00
   14    2   12     -3.95      0.00
   16    2   12     -3.41      0.00
   18    2   12     -0.47      0.00
   20    2   12      1.85      0.00
   22    2   12      1.45      0.00
   24    2   12     -0.71      0.00
   26    2   12     -2.47      0.00
  -27    3   12      3.20      0.00
  -25    3   12      3.29      0.00
  -23    3   12      0.40      0.00
  -21    3   12     -3.71      0.00
  -19    3   12     -4.89      0.00
  -17    3   12     -2.19      0.00
  -15    3   12      0.71      0.00
  -13    3   12     -0.33      0.00
  -11    3   12     -6.28      0.00
   -9    3   12    -14.83      0.00
   -7    3   12    -21.64      0.00
   -5    3   12    -22.55      0.00
   -3    3   12    -17.39      0.00
   -1    3   12    -11.21      0.00
    1    3   12     -9.53      0.00
    3    3   12    -12.57      0.00
    5    3   12    -15.72      0.00
    7    3   12    -14.84      0.00
    9    3   12     -9.62      0.00
   11    3   12     -3.00      0.00
   13    3   12      1.22      0.00
   15    3   12      1.12      0.00
   17    3   12     -1.56      0.00
   19    3   12     -3.02      0.00
   21    3   12     -1.50      0.00
   23    3   12      1.18      0.00
   25    3   12      2.34      0.00
  -28    4   12      0.58      0.00
  -26    4   12     -0.71      0.00
  -24    4   12     -2.06      0.00
  -22    4   12     -1.62      0.00
  -20    4   12      0.15      0.00
  -18    4   12      0.94      0.00
  -16    4   12     -0.52      0.00
  -14    4   12     -3.26      0.00
  -12    4   12     -5.28      0.00
  -10    4   12     -5.31      0.00
   -8    4   12     -3.79      0.00
   -6    4   12     -2.80      0.00
   -4    4   12     -4.53      0.00
   -2    4   12     -8.81      0.00
    0    4   12    -12.61      0.00
    2    4   12    -12.74      0.00
    4    4   12     -9.07      0.00
    6    4   12     -4.39      0.00
    8    4   12     -1.41      0.00
   10    4   12     -0.57      0.00
   12    4   12     -0.51      0.00
   14    4   12     -0.10      0.00
   16    4   12      0.60      0.00
   18    4   12      1.14      0.00
   20    4   12      1.66      0.00
   22    4   12      2.62      0.00
   24    4   12      3.89      0.00
  -27    5   12      0.75      0.00
  -25    5   12      2.38      0.00
  -23    5   12      4.69      0.00
  -21    5   12      5.66      0.00
  -19    5   12      3.20      0.00
  -17    5   12     -1.60      0.00
  -15    5   12     -4.79      0.00
  -13    5   12     -3.92      0.00
  -11    5   12     -0.50      0.00
   -9    5   12      2.34      0.00
   -7    5   12      3.02      0.00
   -5    5   12      1.61      0.00
   -3    5   12     -1.61      0.00
   -1    5   12     -5.99      0.00
    1    5   12     -9.73      0.00
    3    5   12    -10.74      0.00
    5    5   12     -8.45      0.00
    7    5   12     -4.65      0.00
    9    5   12     -2.13      0.00
   11    5   12     -2.35      0.00
   13    5   12     -4.13      0.00
   15    5   12     -5.15      0.00
   17    5   12     -4.38      0.00
   19    5   12     -2.59      0.00
   21    5   12     -0.73      0.00
   23    5   12      0.98      0.00
   25    5   12      2.27      0.00
  -26    6   12      1.47      0.00
  -24    6   12      0.94      0.00
  -22    6   12     -2.12      0.00
  -20    6   12     -4.49      0.00
  -18    6   12     -2.77      0.00
  -16    6   12      1.74      0.00
  -14    6   12      4.55      0.00
  -12    6   12      3.34      0.00
  -10    6   12     -0.61      0.00
   -8    6   12     -5.30      0.00
   -6    6   12     -9.23      0.00
   -4    6   12    -10.28      0.00
   -2    6   12     -6.80      0.00
    0    6   12     -0.45      0.00
    2    6   12      4.23      0.00
    4    6   12      4.29      0.00
    6    6   12      1.23      0.00
    8    6   12     -1.18      0.00
   10    6   12     -1.08      0.00
   12    6   12      0.16      0.00
   14    6   12      0.52      0.00
   16    6   12     -0.09      0.00
   18    6   12     -0.27      0.00
   20    6   12      0.45      0.00
   22    6   12      0.94      0.00
   24    6   12      0.42      0.00
  -25    7   12     -1.35      0.00
  -23    7   12      1.00      0.00
  -21    7   12      2.93      0.00
  -19    7   12      2.78      0.00
  -17    7   12      0.62      0.00
  -15    7   12     -2.02      0.00
  -13    7   12     -3.87      0.00
  -11    7   12     -4.70      0.00
   -9    7   12     -4.70      0.00
   -7    7   12     -4.33      0.00
   -5    7   12     -4.39      0.00
   -3    7   12     -5.57      0.00
   -1    7   12     -7.50      0.00
    1    7   12     -8.88      0.00
    3    7   12     -8.55      0.00
    5    7   12     -6.59      0.00
    7    7   12     -4.24      0.00
    9    7   12     -2.63      0.00
   11    7   12     -1.72      0.00
   13    7   12     -0.56      0.00
   15    7   12      1.15      0.00
   17    7   12      2.54      0.00
   19    7   12      2.92      0.00
   21    7   12      2.66      0.00
   23    7   12      2.43      0.00
  -24    8   12      2.34      0.00
  -22    8   12      3.03      0.00
  -16    8   12     -1.21      0.00
  -14    8   12     -0.37      0.00
  -12    8   12      2.39      0.00
  -10    8   12      4.32      0.00
   -8    8   12      4.32      0.00
   -6    8   12      3.69      0.00
   -4    8   12      3.36      0.00
   -2    8   12      2.64      0.00
    0    8   12      1.28      0.00
    2    8   12      0.19      0.00
    4    8   12     -0.32      0.00
    6    8   12     -0.93      0.00
    8    8   12     -1.48      0.00
   10    8   12     -0.86      0.00
   12    8   12      0.63      0.00
   14    8   12      0.94      0.00
   16    8   12     -0.92      0.00
   18    8   12     -3.19      0.00
   20    8   12     -3.48      0.00
   22    8   12     -1.66      0.00
  -15    9   12     -4.66      0.00
  -13    9   12     -2.45      0.00
  -11    9   12     -0.81      0.00
   -9    9   12      0.62      0.00
   -7    9   12      1.31      0.00
   -5    9   12      1.31      0.00
   -3    9   12      1.77      0.00
   -1    9   12      3.11      0.00
    1    9   12      4.19      0.00
    3    9   12      4.17      0.00
    5    9   12      3.66      0.00
    7    9   12      3.23      0.00
    9    9   12      2.16      0.00
   11    9   12     -0.13      0.00
   13    9   12     -2.32      0.00
   15    9   12     -2.27      0.00
   17    9   12      0.18      0.00
   19    9   12      2.71      0.00
  -16   10   12      3.35      0.00
  -14   10   12      1.36      0.00
  -12   10   12      1.09      0.00
  -10   10   12      1.91      0.00
   -8   10   12      2.52      0.00
   -6   10   12      1.86      0.00
   -4   10   12      0.46      0.00
   -2   10   12     -0.06      0.00
    0   10   12      0.82      0.00
    2   10   12      2.10      0.00
    4   10   12      3.09      0.00
    6   10   12      3.85      0.00
    8   10   12      3.74      0.00
   10   10   12      1.62      0.00
   12   10   12     -1.98      0.00
   14   10   12     -4.83      0.00
   16   10   12     -5.62      0.00
   18   10   12     -4.96      0.00
  -15   11   12      3.82      0.00
  -13   11   12      4.82      0.00
  -11   11   12      4.91      0.00
   -9   11   12      4.43      0.00
   -7   11   12      4.41      0.00
   -5   11   12      4.62      0.00
   -3   11   12      3.54      0.00
   -1   11   12      1.04      0.00
    1   11   12     -0.94      0.00
    3   11   12     -1.39      0.00
    5   11   12     -1.48      0.00
    7   11   12     -1.59      0.00
    9   11   12     -0.09      0.00
   11   11   12      3.35      0.00
   13   11   12      5.73      0.00
   15   11   12      4.49      0.00
  -16   12   12      4.51      0.00
  -14   12   12      3.87      0.00
  -12   12   12      1.68      0.00
  -10   12   12     -0.90      0.00
   -8   12   12     -2.54      0.00
   -6   12   12     -2.74      0.00
   -4   12   12     -2.14      0.00
   -2   12   12     -1.77      0.00
    0   12   12     -1.38      0.00
    2   12   12      0.42      0.00
    4   12   12      3.79      0.00
    6   12   12      6.35      0.00
    8   12   12      5.75      0.00
   10   12   12      2.67      0.00
   12   12   12      0.05      0.00
   14   12   12     -0.31      0.00
  -13   13   12      1.91      0.00
  -11   13   12      4.66      0.00
   -9   13   12      6.52      0.00
   -7   13   12      4.95      0.00
   -5   13   12      0.96      0.00
   -3   13   12     -1.56      0.00
   -1   13   12     -1.28      0.00
    1   13   12     -1.39      0.00
    3   13   12     -4.09      0.00
    5   13   12     -6.55      0.00
    7   13   12     -5.27      0.00
    9   13   12     -1.52      0.00
   11   13   12      0.86      0.00
   -8   14   12     -4.32      0.00
   -6   14   12     -2.36      0.00
   -4   14   12     -1.28      0.00
   -2   14   12     -3.05      0.00
    0   14   12     -5.83      0.00
    2   14   12     -6.48      0.00
    4   14   12     -4.72      0.00
  -29    1   13      1.15      0.00
  -27    1   13      0.70      0.00
  -25    1   13      0.46      0.00
  -23    1   13      1.81      0.00
  -21    1   13      3.44      0.00
  -19    1   13      2.72      0.00
  -17    1   13     -0.79      0.00
  -15    1   13     -4.73      0.00
  -13    1   13     -5.51      0.00
  -11    1   13      0.02      0.00
   -9    1   13     11.60      0.00
   -7    1   13     22.75      0.00
   -5    1   13     24.29      0.00
   -3    1   13     13.88      0.00
   -1    1   13      0.16      0.00
    1    1   13     -5.52      0.00
    3    1   13     -0.14      0.00
    5    1   13      9.88      0.00
    7    1   13     16.42      0.00
    9    1   13     15.75      0.00
   11    1   13      9.18      0.00
   13    1   13      1.04      0.00
   15    1   13     -4.03      0.00
   17    1   13     -4.09      0.00
   19    1   13     -0.92      0.00
   21    1   13      2.22      0.00
   23    1   13      3.34      0.00
   25    1   13      2.47      0.00
  -28    2   13     -1.67      0.00
  -26    2   13     -1.93      0.00
  -24    2   13     -2.36      0.00
  -22    2   13     -3.47      0.00
  -20    2   13     -3.79      0.00
  -18    2   13     -1.69      0.00
  -16    2   13      2.38      0.00
  -14    2   13      6.07      0.00
  -12    2   13      6.50      0.00
  -10    2   13      1.95      0.00
   -8    2   13     -5.49      0.00
   -6    2   13     -9.33      0.00
   -4    2   13     -4.20      0.00
   -2    2   13      7.10      0.00
    0    2   13     14.88      0.00
    2    2   13     12.20      0.00
    4    2   13      1.51      0.00
    6    2   13     -8.86      0.00
    8    2   13    -12.57      0.00
   10    2   13     -9.14      0.00
   12    2   13     -2.25      0.00
   14    2   13      3.64      0.00
   16    2   13      5.91      0.00
   18    2   13      4.54      0.00
   20    2   13      1.08      0.00
   22    2   13     -2.57      0.00
   24    2   13     -4.73      0.00
   26    2   13     -4.46      0.00
  -27    3   13      0.37      0.00
  -25    3   13      0.08      0.00
  -23    3   13     -0.81      0.00
  -21    3   13     -1.06      0.00
  -19    3   13     -0.24      0.00
  -17    3   13      0.17      0.00
  -15    3   13     -1.86      0.00
  -13    3   13     -6.59      0.00
  -11    3   13    -11.95      0.00
   -9    3   13    -15.51      0.00
   -7    3   13    -16.57      0.00
   -5    3   13    -16.28      0.00
   -3    3   13    -15.84      0.00
   -1    3   13    -14.90      0.00
    1    3   13    -12.23      0.00
    3    3   13     -7.93      0.00
    5    3   13     -4.21      0.00
    7    3   13     -3.08      0.00
    9    3   13     -3.84      0.00
   11    3   13     -3.84      0.00
   13    3   13     -1.90      0.00
   15    3   13      0.49      0.00
   17    3   13      1.42      0.00
   19    3   13      0.91      0.00
   21    3   13      0.30      0.00
   23    3   13      0.22      0.00
   25    3   13      0.23      0.00
  -28    4   13      1.72      0.00
  -26    4   13     -1.30      0.00
  -24    4   13     -2.63      0.00
  -22    4   13     -0.71      0.00
  -20    4   13      1.31      0.00
  -18    4   13     -0.21      0.00
  -16    4   13     -4.08      0.00
  -14    4   13     -5.62      0.00
  -12    4   13     -1.99      0.00
  -10    4   13      5.48      0.00
   -8    4   13     12.96      0.00
   -6    4   13     16.29      0.00
   -4    4   13     12.72      0.00
   -2    4   13      3.18      0.00
    0    4   13     -7.34      0.00
    2    4   13    -13.01      0.00
    4    4   13    -11.55      0.00
    6    4   13     -5.85      0.00
    8    4   13     -1.35      0.00
   10    4   13     -1.60      0.00
   12    4   13     -5.23      0.00
   14    4   13     -7.66      0.00
   16    4   13     -6.06      0.00
   18    4   13     -2.12      0.00
   20    4   13      0.70      0.00
   22    4   13      1.32      0.00
   24    4   13      1.21      0.00
  -27    5   13      3.78      0.00
  -25    5   13      3.99      0.00
  -23    5   13      2.48      0.00
  -21    5   13     -0.07      0.00
  -19    5   13     -0.61      0.00
  -17    5   13      1.96      0.00
  -15    5   13      4.88      0.00
  -13    5   13      5.04      0.00
  -11    5   13      2.30      0.00
   -9    5   13     -1.34      0.00
   -7    5   13     -3.99      0.00
   -5    5   13     -4.29      0.00
   -3    5   13     -1.59      0.00
   -1    5   13      2.79      0.00
    1    5   13      5.54      0.00
    3    5   13      4.22      0.00
    5    5   13      0.09      0.00
    7    5   13     -2.84      0.00
    9    5   13     -1.84      0.00
   11    5   13      1.69      0.00
   13    5   13      3.75      0.00
   15    5   13      1.95      0.00
   17    5   13     -2.16      0.00
   19    5   13     -5.17      0.00
   21    5   13     -5.33      0.00
   23    5   13     -3.47      0.00
  -26    6   13      2.98      0.00
  -24    6   13      2.90      0.00
  -22    6   13      2.38      0.00
  -20    6   13      2.46      0.00
  -18    6   13      3.08      0.00
  -16    6   13      2.84      0.00
  -14    6   13      0.52      0.00
  -12    6   13     -3.19      0.00
  -10    6   13     -6.12      0.00
   -8    6   13     -6.81      0.00
   -6    6   13     -5.61      0.00
   -4    6   13     -3.74      0.00
   -2    6   13     -2.07      0.00
    0    6   13     -1.09      0.00
    2    6   13     -1.08      0.00
    4    6   13     -1.91      0.00
    6    6   13     -2.94      0.00
    8    6   13     -3.66      0.00
   10    6   13     -3.87      0.00
   12    6   13     -3.48      0.00
   14    6   13     -2.39      0.00
   16    6   13     -0.91      0.00
   18    6   13      0.22      0.00
   20    6   13      0.38      0.00
   22    6   13     -0.37      0.00
  -25    7   13      0.32      0.00
  -23    7   13      4.04      0.00
  -21    7   13      7.81      0.00
  -19    7   13      7.84      0.00
  -17    7   13      3.88      0.00
  -15    7   13     -0.23      0.00
  -13    7   13     -1.48      0.00
  -11    7   13     -0.81      0.00
   -9    7   13     -0.30      0.00
   -7    7   13     -0.24      0.00
   -5    7   13     -0.52      0.00
   -3    7   13     -2.35      0.00
   -1    7   13     -5.96      0.00
    1    7   13     -8.78      0.00
    3    7   13     -8.23      0.00
    5    7   13     -5.34      0.00
    7    7   13     -3.52      0.00
    9    7   13     -4.20      0.00
   11    7   13     -5.66      0.00
   13    7   13     -5.93      0.00
   15    7   13     -4.99      0.00
   17    7   13     -3.88      0.00
   19    7   13     -2.87      0.00
   21    7   13     -1.50      0.00
  -24    8   13      0.97      0.00
  -22    8   13     -4.10      0.00
  -16    8   13     -0.98      0.00
  -14    8   13      2.40      0.00
  -12    8   13      3.59      0.00
  -10    8   13      2.83      0.00
   -8    8   13      0.59      0.00
   -6    8   13     -2.04      0.00
   -4    8   13     -2.97      0.00
   -2    8   13     -1.11      0.00
    0    8   13      1.88      0.00
    2    8   13      3.04      0.00
    4    8   13      1.54      0.00
    6    8   13     -0.65      0.00
    8    8   13     -1.35      0.00
   10    8   13     -0.74      0.00
   12    8   13     -0.66      0.00
   14    8   13     -1.96      0.00
   16    8   13     -3.52      0.00
   18    8   13     -4.05      0.00
   20    8   13     -3.70      0.00
  -17    9   13     -0.42      0.00
  -15    9   13      1.09      0.00
  -13    9   13      1.57      0.00
  -11    9   13      0.86      0.00
   -9    9   13     -0.18      0.00
   -7    9   13     -1.26      0.00
   -5    9   13     -2.27      0.00
   -3    9   13     -2.55      0.00
   -1    9   13     -1.86      0.00
    1    9   13     -1.32      0.00
    3    9   13     -1.80      0.00
    5    9   13     -2.55      0.00
    7    9   13     -2.91      0.00
    9    9   13     -3.58      0.00
   11    9   13     -4.97      0.00
   13    9   13     -5.63      0.00
   15    9   13     -4.35      0.00
   17    9   13     -2.23      0.00
   19    9   13     -1.06      0.00
  -16   10   13     -3.08      0.00
  -14   10   13     -5.48      0.00
  -12   10   13     -4.82      0.00
  -10   10   13     -2.70      0.00
   -8   10   13     -0.51      0.00
   -6   10   13      1.20      0.00
   -4   10   13      1.73      0.00
   -2   10   13      0.86      0.00
    0   10   13     -0.14      0.00
    2   10   13     -0.16      0.00
    4   10   13     -0.13      0.00
    6   10   13     -1.33      0.00
    8   10   13     -2.67      0.00
   10   10   13     -2.01      0.00
   12   10   13      0.27      0.00
   14   10   13      1.56      0.00
   16   10   13      0.78      0.00
   18   10   13     -0.36      0.00
  -17   11   13     -1.85      0.00
  -15   11   13      0.14      0.00
  -13   11   13      1.24      0.00
  -11   11   13      0.80      0.00
   -9   11   13     -0.47      0.00
   -7   11   13     -1.11      0.00
   -5   11   13     -0.53      0.00
   -3   11   13      0.29      0.00
   -1   11   13      0.38      0.00
    1   11   13      0.33      0.00
    3   11   13      1.04      0.00
    5   11   13      1.86      0.00
    7   11   13      1.55      0.00
    9   11   13      0.42      0.00
   11   11   13     -0.07      0.00
   13   11   13      0.43      0.00
   15   11   13      1.02      0.00
  -16   12   13      0.48      0.00
  -14   12   13     -0.98      0.00
  -12   12   13     -1.58      0.00
  -10   12   13     -1.26      0.00
   -8   12   13     -1.66      0.00
   -6   12   13     -3.42      0.00
   -4   12   13     -4.16      0.00
   -2   12   13     -1.75      0.00
    0   12   13      1.83      0.00
    2   12   13      3.02      0.00
    4   12   13      1.99      0.00
    6   12   13      1.64      0.00
    8   12   13      2.34      0.00
   10   12   13      1.56      0.00
   12   12   13     -1.23      0.00
  -13   13   13      1.24      0.00
  -11   13   13      1.64      0.00
   -9   13   13      2.17      0.00
   -7   13   13      3.06      0.00
   -5   13   13      3.46      0.00
   -3   13   13      2.51      0.00
   -1   13   13      0.81      0.00
    1   13   13     -0.24      0.00
    3   13   13     -0.16      0.00
    5   13   13      0.59      0.00
    7   13   13      1.92      0.00
    9   13   13      3.88      0.00
   -6   14   13     -2.70      0.00
   -4   14   13     -0.83      0.00
   -2   14   13      0.50      0.00
    0   14   13      1.97      0.00
    2   14   13      5.36      0.00
    4   14   13      9.37      0.00
  -28    0   14     -1.90      0.00
  -26    0   14     -0.41      0.00
  -24    0   14      3.04      0.00
  -22    0   14      6.31      0.00
  -20    0   14      5.87      0.00
  -18    0   14      0.77      0.00
  -16    0   14     -6.06      0.00
  -14    0   14    -10.23      0.00
  -12    0   14     -8.16      0.00
  -10    0   14      1.03      0.00
   -8    0   14     12.89      0.00
   -6    0   14     18.32      0.00
   -4    0   14     11.77      0.00
   -2    0   14     -1.12      0.00
    0    0   14     -8.01      0.00
    2    0   14     -2.93      0.00
    4    0   14      8.17      0.00
    6    0   14     15.17      0.00
    8    0   14     13.80      0.00
   10    0   14      7.24      0.00
   12    0   14      0.97      0.00
   14    0   14     -1.90      0.00
   16    0   14     -1.54      0.00
   18    0   14      0.25      0.00
   20    0   14      2.06      0.00
   22    0   14      3.37      0.00
   24    0   14      3.70      0.00
   26    0   14      2.52      0.00
  -29    1   14     -1.82      0.00
  -27    1   14     -1.40      0.00
  -25    1   14     -1.40      0.00
  -23    1   14     -2.36      0.00
  -21    1   14     -3.36      0.00
  -19    1   14     -2.59      0.00
  -17    1   14      0.89      0.00
  -15    1   14      6.19      0.00
  -13    1   14     10.88      0.00
  -11    1   14     12.18      0.00
   -9    1   14      9.45      0.00
   -7    1   14      6.04      0.00
   -5    1   14      6.99      0.00
   -3    1   14     13.34      0.00
   -1    1   14     19.89      0.00
    1    1   14     20.46      0.00
    3    1   14     14.51      0.00
    5    1   14      7.23      0.00
    7    1   14      3.57      0.00
    9    1   14      3.83      0.00
   11    1   14      4.99      0.00
   13    1   14      4.79      0.00
   15    1   14      3.63      0.00
   17    1   14      3.09      0.00
   19    1   14      3.53      0.00
   21    1   14      3.68      0.00
   23    1   14      2.45      0.00
   25    1   14      0.36      0.00
  -28    2   14     -0.43      0.00
  -26    2   14      0.60      0.00
  -24    2   14      0.26      0.00
  -22    2   14     -1.34      0.00
  -20    2   14     -2.13      0.00
  -18    2   14     -0.98      0.00
  -16    2   14      0.51      0.00
  -14    2   14     -0.18      0.00
  -12    2   14     -4.13      0.00
  -10    2   14    -10.24      0.00
   -8    2   14    -15.60      0.00
   -6    2   14    -16.68      0.00
   -4    2   14    -11.78      0.00
   -2    2   14     -3.03      0.00
    0    2   14      5.16      0.00
    2    2   14      9.59      0.00
    4    2   14     10.03      0.00
    6    2   14      8.12      0.00
    8    2   14      6.02      0.00
   10    2   14      5.38      0.00
   12    2   14      6.13      0.00
   14    2   14      6.37      0.00
   16    2   14      4.50      0.00
   18    2   14      1.46      0.00
   20    2   14     -0.27      0.00
   22    2   14      0.50      0.00
   24    2   14      2.48      0.00
  -27    3   14     -6.14      0.00
  -25    3   14     -6.33      0.00
  -23    3   14     -2.61      0.00
  -21    3   14      2.81      0.00
  -19    3   14      5.10      0.00
  -17    3   14      2.63      0.00
  -15    3   14     -1.10      0.00
  -13    3   14     -1.35      0.00
  -11    3   14      3.81      0.00
   -9    3   14     12.59      0.00
   -7    3   14     20.51      0.00
   -5    3   14     22.90      0.00
   -3    3   14     18.67      0.00
   -1    3   14     11.80      0.00
    1    3   14      7.76      0.00
    3    3   14      8.32      0.00
    5    3   14     10.66      0.00
    7    3   14     10.96      0.00
    9    3   14      7.94      0.00
   11    3   14      3.50      0.00
   13    3   14      0.70      0.00
   15    3   14      0.85      0.00
   17    3   14      2.30      0.00
   19    3   14      2.50      0.00
   21    3   14      1.00      0.00
   23    3   14     -0.56      0.00
   25    3   14     -0.88      0.00
  -28    4   14     -1.79      0.00
  -26    4   14     -0.18      0.00
  -24    4   14      1.68      0.00
  -22    4   14      1.51      0.00
  -20    4   14     -0.38      0.00
  -18    4   14     -1.41      0.00
  -16    4   14     -0.01      0.00
  -14    4   14      2.91      0.00
  -12    4   14      5.20      0.00
  -10    4   14      5.43      0.00
   -8    4   14      3.84      0.00
   -6    4   14      2.30      0.00
   -4    4   14      2.98      0.00
   -2    4   14      6.21      0.00
    0    4   14      9.75      0.00
    2    4   14     10.77      0.00
    4    4   14      8.59      0.00
    6    4   14      5.02      0.00
    8    4   14      2.24      0.00
   10    4   14      0.82      0.00
   12    4   14      0.00      0.00
   14    4   14     -0.78      0.00
   16    4   14     -1.17      0.00
   18    4   14     -0.93      0.00
   20    4   14     -0.79      0.00
   22    4   14     -1.65      0.00
   24    4   14     -3.23      0.00
  -27    5   14      1.30      0.00
  -25    5   14     -1.16      0.00
  -23    5   14     -5.00      0.00
  -21    5   14     -6.96      0.00
  -19    5   14     -4.39      0.00
  -17    5   14      1.17      0.00
  -15    5   14      5.03      0.00
  -13    5   14      4.33      0.00
  -11    5   14      0.66      0.00
   -9    5   14     -2.65      0.00
   -7    5   14     -3.82      0.00
   -5    5   14     -2.71      0.00
   -3    5   14      0.57      0.00
   -1    5   14      5.37      0.00
    1    5   14      9.67      0.00
    3    5   14     11.21      0.00
    5    5   14      9.49      0.00
    7    5   14      6.32      0.00
    9    5   14      4.06      0.00
   11    5   14      3.65      0.00
   13    5   14      4.21      0.00
   15    5   14      4.47      0.00
   17    5   14      3.96      0.00
   19    5   14      2.86      0.00
   21    5   14      1.25      0.00
   23    5   14     -0.76      0.00
  -26    6   14     -1.91      0.00
  -24    6   14     -1.15      0.00
  -22    6   14      1.67      0.00
  -20    6   14      3.24      0.00
  -18    6   14      0.93      0.00
  -16    6   14     -3.24      0.00
  -14    6   14     -5.15      0.00
  -12    6   14     -3.56      0.00
  -10    6   14     -0.29      0.00
   -8    6   14      3.19      0.00
   -6    6   14      6.27      0.00
   -4    6   14      7.16      0.00
   -2    6   14      3.98      0.00
    0    6   14     -1.91      0.00
    2    6   14     -6.01      0.00
    4    6   14     -5.43      0.00
    6    6   14     -1.87      0.00
    8    6   14      0.89      0.00
   10    6   14      1.24      0.00
   12    6   14      0.54      0.00
   14    6   14      0.33      0.00
   16    6   14      0.27      0.00
   18    6   14     -0.59      0.00
   20    6   14     -1.79      0.00
   22    6   14     -1.93      0.00
  -25    7   14     -0.48      0.00
  -21    7   14     -2.44      0.00
  -19    7   14     -1.12      0.00
  -17    7   14      1.22      0.00
  -15    7   14      3.05      0.00
  -13    7   14      3.73      0.00
  -11    7   14      3.64      0.00
   -9    7   14      3.23      0.00
   -7    7   14      2.88      0.00
   -5    7   14      3.28      0.00
   -3    7   14      4.96      0.00
   -1    7   14      7.34      0.00
    1    7   14      8.81      0.00
    3    7   14      8.04      0.00
    5    7   14      5.25      0.00
    7    7   14      2.05      0.00
    9    7   14     -0.15      0.00
   11    7   14     -1.35      0.00
   13    7   14     -2.39      0.00
   15    7   14     -3.33      0.00
   17    7   14     -3.34      0.00
   19    7   14     -2.30      0.00
   21    7   14     -1.33      0.00
  -24    8   14     -3.31      0.00
  -22    8   14     -5.50      0.00
  -16    8   14      3.84      0.00
  -14    8   14      4.13      0.00
  -12    8   14      1.13      0.00
  -10    8   14     -1.63      0.00
   -8    8   14     -2.53      0.00
   -6    8   14     -2.78      0.00
   -4    8   14     -3.24      0.00
   -2    8   14     -3.06      0.00
    0    8   14     -1.89      0.00
    2    8   14     -0.63      0.00
    4    8   14      0.36      0.00
    6    8   14      1.47      0.00
    8    8   14      2.06      0.00
   10    8   14      0.88      0.00
   12    8   14     -1.43      0.00
   14    8   14     -2.26      0.00
   16    8   14     -0.37      0.00
   18    8   14      2.36      0.00
   20    8   14      3.36      0.00
  -17    9   14      4.76      0.00
  -15    9   14      2.00      0.00
  -13    9   14      1.40      0.00
  -11    9   14      0.83      0.00
   -9    9   14     -0.91      0.00
   -7    9   14     -2.48      0.00
   -5    9   14     -2.69      0.00
   -3    9   14     -2.44      0.00
   -1    9   14     -2.84      0.00
    1    9   14     -3.56      0.00
    3    9   14     -3.94      0.00
    5    9   14     -4.14      0.00
    7    9   14     -4.18      0.00
    9    9   14     -3.10      0.00
   11    9   14     -0.53      0.00
   13    9   14      1.86      0.00
   15    9   14      1.85      0.00
   17    9   14     -0.47      0.00
   19    9   14     -2.61      0.00
  -16   10   14     -2.29      0.00
  -14   10   14     -0.86      0.00
  -12   10   14     -0.79      0.00
  -10   10   14     -1.42      0.00
   -8   10   14     -1.75      0.00
   -6   10   14     -1.16      0.00
   -4   10   14     -0.33      0.00
   -2   10   14     -0.47      0.00
    0   10   14     -1.42      0.00
    2   10   14     -2.08      0.00
    4   10   14     -2.36      0.00
    6   10   14     -2.98      0.00
    8   10   14     -3.36      0.00
   10   10   14     -1.94      0.00
   12   10   14      1.25      0.00
   14   10   14      4.31      0.00
   16   10   14      5.81      0.00
   18   10   14      5.76      0.00
  -17   11   14     -1.33      0.00
  -15   11   14     -2.62      0.00
  -13   11   14     -3.81      0.00
  -11   11   14     -3.94      0.00
   -9   11   14     -3.36      0.00
   -7   11   14     -3.46      0.00
   -5   11   14     -4.03      0.00
   -3   11   14     -3.10      0.00
   -1   11   14     -0.39      0.00
    1   11   14      1.83      0.00
    3   11   14      2.24      0.00
    5   11   14      2.03      0.00
    7   11   14      1.88      0.00
    9   11   14      0.45      0.00
   11   11   14     -2.45      0.00
   13   11   14     -4.13      0.00
   15   11   14     -2.59      0.00
  -16   12   14     -1.66      0.00
  -14   12   14      0.07      0.00
  -12   12   14      2.66      0.00
  -10   12   14      4.92      0.00
   -8   12   14      6.08      0.00
   -6   12   14      5.99      0.00
   -4   12   14      5.08      0.00
   -2   12   14      3.93      0.00
    0   12   14      2.37      0.00
    2   12   14     -0.34      0.00
    4   12   14     -3.75      0.00
    6   12   14     -5.64      0.00
    8   12   14     -4.36      0.00
   10   12   14     -1.19      0.00
   12   12   14      0.89      0.00
  -11   13   14     -4.04      0.00
   -9   13   14     -5.39      0.00
   -7   13   14     -4.90      0.00
   -5   13   14     -2.97      0.00
   -3   13   14     -2.26      0.00
   -1   13   14     -3.07      0.00
    1   13   14     -2.24      0.00
    3   13   14      1.51      0.00
    5   13   14      4.49      0.00
    7   13   14      3.12      0.00
    9   13   14     -0.82      0.00
   -6   14   14      0.83      0.00
   -4   14   14      0.41      0.00
   -2   14   14      2.63      0.00
    0   14   14      5.41      0.00
    2   14   14      5.60      0.00
  -29    1   15     -0.10      0.00
  -27    1   15      1.30      0.00
  -25    1   15      2.36      0.00
  -23    1   15      1.56      0.00
  -21    1   15     -0.16      0.00
  -19    1   15     -0.59      0.00
  -17    1   15      0.95      0.00
  -15    1   15      2.97      0.00
  -13    1   15      2.81      0.00
  -11    1   15     -2.00      0.00
   -9    1   15    -11.13      0.00
   -7    1   15    -19.25      0.00
   -5    1   15    -19.35      0.00
   -3    1   15    -10.24      0.00
   -1    1   15      0.81      0.00
    1    1   15      4.99      0.00
    3    1   15      0.47      0.00
    5    1   15     -7.12      0.00
    7    1   15    -11.16      0.00
    9    1   15     -9.32      0.00
   11    1   15     -3.83      0.00
   13    1   15      1.25      0.00
   15    1   15      3.09      0.00
   17    1   15      1.65      0.00
   19    1   15     -1.06      0.00
   21    1   15     -2.91      0.00
   23    1   15     -2.97      0.00
   25    1   15     -1.61      0.00
  -28    2   15      1.15      0.00
  -26    2   15      1.37      0.00
  -24    2   15      2.25      0.00
  -22    2   15      3.93      0.00
  -20    2   15      4.39      0.00
  -18    2   15      1.72      0.00
  -16    2   15     -3.34      0.00
  -14    2   15     -7.63      0.00
  -12    2   15     -7.75      0.00
  -10    2   15     -2.41      0.00
   -8    2   15      5.59      0.00
   -6    2   15      9.97      0.00
   -4    2   15      6.23      0.00
   -2    2   15     -3.09      0.00
    0    2   15    -10.00      0.00
    2    2   15     -8.87      0.00
    4    2   15     -1.47      0.00
    6    2   15      5.84      0.00
    8    2   15      8.36      0.00
   10    2   15      6.01      0.00
   12    2   15      1.72      0.00
   14    2   15     -1.70      0.00
   16    2   15     -3.20      0.00
   18    2   15     -2.90      0.00
   20    2   15     -1.06      0.00
   22    2   15      1.74      0.00
   24    2   15      3.99      0.00
  -27    3   15     -1.65      0.00
  -25    3   15     -0.95      0.00
  -23    3   15      0.35      0.00
  -21    3   15      0.82      0.00
  -19    3   15      0.15      0.00
  -17    3   15     -0.12      0.00
  -15    3   15      1.81      0.00
  -13    3   15      6.08      0.00
  -11    3   15     10.96      0.00
   -9    3   15     14.37      0.00
   -7    3   15     15.43      0.00
   -5    3   15     14.64      0.00
   -3    3   15     12.97      0.00
   -1    3   15     10.85      0.00
    1    3   15      8.20      0.00
    3    3   15      5.47      0.00
    5    3   15      3.75      0.00
    7    3   15      3.59      0.00
    9    3   15      3.96      0.00
   11    3   15      3.19      0.00
   13    3   15      1.02      0.00
   15    3   15     -1.12      0.00
   17    3   15     -1.82      0.00
   19    3   15     -1.22      0.00
   21    3   15     -0.33      0.00
   23    3   15      0.34      0.00
   25    3   15      0.97      0.00
  -26    4   15      3.13      0.00
  -24    4   15      4.26      0.00
  -22    4   15      2.05      0.00
  -20    4   15     -0.34      0.00
  -18    4   15      0.54      0.00
  -16    4   15      3.75      0.00
  -14    4   15      5.22      0.00
  -12    4   15      2.32      0.00
  -10    4   15     -4.03      0.00
   -8    4   15    -10.68      0.00
   -6    4   15    -13.78      0.00
   -4    4   15    -10.51      0.00
   -2    4   15     -1.37      0.00
    0    4   15      8.94      0.00
    2    4   15     14.52      0.00
    4    4   15     13.05      0.00
    6    4   15      7.53      0.00
    8    4   15      3.35      0.00
   10    4   15      3.40      0.00
   12    4   15      5.98      0.00
   14    4   15      7.28      0.00
   16    4   15      5.54      0.00
   18    4   15      2.32      0.00
   20    4   15     -0.08      0.00
   22    4   15     -1.12      0.00
   24    4   15     -1.53      0.00
  -27    5   15     -3.13      0.00
  -25    5   15     -4.26      0.00
  -23    5   15     -3.11      0.00
  -21    5   15     -0.34      0.00
  -19    5   15      0.65      0.00
  -17    5   15     -1.67      0.00
  -15    5   15     -4.84      0.00
  -13    5   15     -5.66      0.00
  -11    5   15     -3.57      0.00
   -9    5   15     -0.17      0.00
   -7    5   15      2.73      0.00
   -5    5   15      3.56      0.00
   -3    5   15      1.42      0.00
   -1    5   15     -2.49      0.00
    1    5   15     -4.89      0.00
    3    5   15     -3.43      0.00
    5    5   15      0.51      0.00
    7    5   15      3.04      0.00
    9    5   15      1.96      0.00
   11    5   15     -0.94      0.00
   13    5   15     -2.07      0.00
   15    5   15     -0.08      0.00
   17    5   15      3.00      0.00
   19    5   15      4.50      0.00
   21    5   15      3.86      0.00
   23    5   15      2.24      0.00
  -26    6   15     -7.50      0.00
  -24    6   15     -5.65      0.00
  -22    6   15     -2.42      0.00
  -20    6   15     -0.59      0.00
  -18    6   15     -1.12      0.00
  -16    6   15     -2.33      0.00
  -14    6   15     -2.05      0.00
  -12    6   15     -0.07      0.00
  -10    6   15      1.93      0.00
   -8    6   15      2.56      0.00
   -6    6   15      1.99      0.00
   -4    6   15      1.05      0.00
   -2    6   15      0.31      0.00
    0    6   15      0.15      0.00
    2    6   15      0.81      0.00
    4    6   15      2.02      0.00
    6    6   15      2.96      0.00
    8    6   15      3.19      0.00
   10    6   15      2.87      0.00
   12    6   15      2.25      0.00
   14    6   15      1.36      0.00
   16    6   15      0.44      0.00
   18    6   15      0.03      0.00
   20    6   15      0.40      0.00
   22    6   15      1.18      0.00
  -25    7   15     -0.46      0.00
  -23    7   15     -5.13      0.00
  -21    7   15     -8.58      0.00
  -19    7   15     -7.24      0.00
  -17    7   15     -2.37      0.00
  -15    7   15      1.15      0.00
  -13    7   15      0.96      0.00
  -11    7   15     -0.60      0.00
   -9    7   15     -0.92      0.00
   -7    7   15     -0.43      0.00
   -5    7   15     -0.15      0.00
   -3    7   15      0.88      0.00
   -1    7   15      3.44      0.00
    1    7   15      5.75      0.00
    3    7   15      5.70      0.00
    5    7   15      4.19      0.00
    7    7   15      3.75      0.00
    9    7   15      4.78      0.00
   11    7   15      5.30      0.00
   13    7   15      4.09      0.00
   15    7   15      2.28      0.00
   17    7   15      1.49      0.00
   19    7   15      1.64      0.00
   21    7   15      1.56      0.00
  -24    8   15      3.36      0.00
  -22    8   15      6.60      0.00
  -18    8   15      2.00      0.00
  -16    8   15     -2.82      0.00
  -14    8   15     -5.28      0.00
  -12    8   15     -5.49      0.00
  -10    8   15     -4.77      0.00
   -8    8   15     -3.26      0.00
   -6    8   15     -0.88      0.00
   -4    8   15      0.92      0.00
   -2    8   15      0.60      0.00
    0    8   15     -1.17      0.00
    2    8   15     -2.05      0.00
    4    8   15     -0.98      0.00
    6    8   15      0.69      0.00
    8    8   15      1.30      0.00
   10    8   15      1.07      0.00
   12    8   15      1.44      0.00
   14    8   15      2.78      0.00
   16    8   15      3.87      0.00
   18    8   15      3.76      0.00
   20    8   15      3.09      0.00
  -17    9   15     -0.67      0.00
  -15    9   15     -3.23      0.00
  -13    9   15     -4.40      0.00
  -11    9   15     -4.14      0.00
   -9    9   15     -3.29      0.00
   -7    9   15     -2.03      0.00
   -5    9   15     -0.59      0.00
   -3    9   15      0.09      0.00
   -1    9   15     -0.24      0.00
    1    9   15     -0.32      0.00
    3    9   15      0.70      0.00
    5    9   15      1.92      0.00
    7    9   15      2.61      0.00
    9    9   15      3.44      0.00
   11    9   15      4.66      0.00
   13    9   15      4.86      0.00
   15    9   15      3.10      0.00
   17    9   15      0.76      0.00
   19    9   15     -0.38      0.00
  -18   10   15      1.39      0.00
  -16   10   15      7.20      0.00
  -14   10   15      9.35      0.00
  -12   10   15      7.65      0.00
  -10   10   15      4.60      0.00
   -8   10   15      1.72      0.00
   -6   10   15     -0.72      0.00
   -4   10   15     -2.01      0.00
   -2   10   15     -1.62      0.00
    0   10   15     -0.64      0.00
    2   10   15     -0.22      0.00
    4   10   15      0.33      0.00
    6   10   15      2.04      0.00
    8   10   15      3.63      0.00
   10   10   15      3.03      0.00
   12   10   15      0.69      0.00
   14   10   15     -0.82      0.00
   16   10   15     -0.46      0.00
  -17   11   15      1.92      0.00
  -15   11   15      0.19      0.00
  -13   11   15     -0.46      0.00
  -11   11   15      0.08      0.00
   -9   11   15      1.05      0.00
   -7   11   15      1.41      0.00
   -5   11   15      0.82      0.00
   -3   11   15     -0.05      0.00
   -1   11   15     -0.74      0.00
    1   11   15     -1.85      0.00
    3   11   15     -3.60      0.00
    5   11   15     -4.56      0.00
    7   11   15     -3.44      0.00
    9   11   15     -1.22      0.00
   11   11   15     -0.04      0.00
   13   11   15     -0.50      0.00
   15   11   15     -1.42      0.00
  -14   12   15      0.64      0.00
  -12   12   15      1.54      0.00
  -10   12   15      0.77      0.00
   -8   12   15      0.11      0.00
   -6   12   15      0.73      0.00
   -4   12   15      0.86      0.00
   -2   12   15     -1.23      0.00
    0   12   15     -3.56      0.00
    2   12   15     -3.16      0.00
    4   12   15     -1.06      0.00
    6   12   15     -0.65      0.00
    8   12   15     -2.23      0.00
   10   12   15     -2.81      0.00
   12   12   15     -1.24      0.00
  -11   13   15     -6.10      0.00
   -9   13   15     -6.78      0.00
   -7   13   15     -7.15      0.00
   -5   13   15     -6.60      0.00
   -3   13   15     -4.58      0.00
   -1   13   15     -2.13      0.00
    1   13   15     -1.00      0.00
    3   13   15     -1.58      0.00
    5   13   15     -2.84      0.00
    7   13   15     -3.98      0.00
   -4   14   15      3.79      0.00
   -2   14   15      2.72      0.00
    0   14   15      1.16      0.00
  -28    0   16      5.33      0.00
  -26    0   16      5.00      0.00
  -24    0   16      1.82      0.00
  -22    0   16     -2.04      0.00
  -20    0   16     -2.84      0.00
  -18    0   16      0.95      0.00
  -16    0   16      7.21      0.00
  -14    0   16     11.80      0.00
  -12    0   16     10.79      0.00
  -10    0   16      2.90      0.00
   -8    0   16     -7.84      0.00
   -6    0   16    -13.46      0.00
   -4    0   16     -9.25      0.00
   -2    0   16      0.40      0.00
    0    0   16      6.04      0.00
    2    0   16      3.26      0.00
    4    0   16     -3.60      0.00
    6    0   16     -7.57      0.00
    8    0   16     -6.51      0.00
   10    0   16     -3.52      0.00
   12    0   16     -2.13      0.00
   14    0   16     -2.71      0.00
   16    0   16     -3.42      0.00
   18    0   16     -3.18      0.00
   20    0   16     -2.80      0.00
   22    0   16     -3.15      0.00
   24    0   16     -3.50      0.00
  -27    1   16      2.44      0.00
  -25    1   16      2.46      0.00
  -23    1   16      3.07      0.00
  -21    1   16      3.41      0.00
  -19    1   16      1.95      0.00
  -17    1   16     -1.88      0.00
  -15    1   16     -6.92      0.00
  -13    1   16    -10.66      0.00
  -11    1   16    -10.67      0.00
   -9    1   16     -6.74      0.00
   -7    1   16     -2.13      0.00
   -5    1   16     -1.34      0.00
   -3    1   16     -5.59      0.00
   -1    1   16    -11.24      0.00
    1    1   16    -13.61      0.00
    3    1   16    -11.76      0.00
    5    1   16     -8.52      0.00
    7    1   16     -6.68      0.00
    9    1   16     -6.24      0.00
   11    1   16     -5.62      0.00
   13    1   16     -4.26      0.00
   15    1   16     -3.23      0.00
   17    1   16     -3.40      0.00
   19    1   16     -3.99      0.00
   21    1   16     -3.42      0.00
   23    1   16     -1.37      0.00
   25    1   16      0.78      0.00
  -28    2   16      0.28      0.00
  -26    2   16     -0.53      0.00
  -24    2   16     -0.13      0.00
  -22    2   16      1.39      0.00
  -20    2   16      2.44      0.00
  -18    2   16      2.16      0.00
  -16    2   16      1.47      0.00
  -14    2   16      2.05      0.00
  -12    2   16      4.93      0.00
  -10    2   16      9.79      0.00
   -8    2   16     14.56      0.00
   -6    2   16     16.06      0.00
   -4    2   16     12.26      0.00
   -2    2   16      4.45      0.00
    0    2   16     -3.68      0.00
    2    2   16     -9.01      0.00
    4    2   16    -10.88      0.00
    6    2   16    -10.55      0.00
    8    2   16     -9.64      0.00
   10    2   16     -9.09      0.00
   12    2   16     -8.63      0.00
   14    2   16     -7.38      0.00
   16    2   16     -5.06      0.00
   18    2   16     -2.73      0.00
   20    2   16     -1.75      0.00
   22    2   16     -2.40      0.00
   24    2   16     -3.57      0.00
  -27    3   16      7.50      0.00
  -25    3   16      8.51      0.00
  -23    3   16      4.89      0.00
  -21    3   16     -0.91      0.00
  -19    3   16     -3.58      0.00
  -17    3   16     -0.96      0.00
  -15    3   16      3.65      0.00
  -13    3   16      4.93      0.00
  -11    3   16      0.14      0.00
   -9    3   16     -9.02      0.00
   -7    3   16    -17.44      0.00
   -5    3   16    -19.86      0.00
   -3    3   16    -14.96      0.00
   -1    3   16     -6.81      0.00
    1    3   16     -1.44      0.00
    3    3   16     -1.52      0.00
    5    3   16     -4.87      0.00
    7    3   16     -7.35      0.00
    9    3   16     -6.87      0.00
   11    3   16     -4.48      0.00
   13    3   16     -2.49      0.00
   15    3   16     -1.87      0.00
   17    3   16     -1.78      0.00
   19    3   16     -1.36      0.00
   21    3   16     -0.90      0.00
   23    3   16     -0.94      0.00
  -26    4   16      0.01      0.00
  -24    4   16     -2.10      0.00
  -22    4   16     -1.60      0.00
  -20    4   16      0.81      0.00
  -18    4   16      2.06      0.00
  -16    4   16      0.48      0.00
  -14    4   16     -2.54      0.00
  -12    4   16     -4.38      0.00
  -10    4   16     -3.63      0.00
   -8    4   16     -0.99      0.00
   -6    4   16      1.35      0.00
   -4    4   16      1.30      0.00
   -2    4   16     -1.39      0.00
    0    4   16     -4.78      0.00
    2    4   16     -6.41      0.00
    4    4   16     -5.39      0.00
    6    4   16     -2.84      0.00
    8    4   16     -0.42      0.00
   10    4   16      1.14      0.00
   12    4   16      1.99      0.00
   14    4   16      2.20      0.00
   16    4   16      1.47      0.00
   18    4   16      0.06      0.00
   20    4   16     -0.84      0.00
   22    4   16     -0.26      0.00
   24    4   16      1.22      0.00
  -27    5   16     -2.25      0.00
  -25    5   16      1.51      0.00
  -23    5   16      6.81      0.00
  -21    5   16      9.39      0.00
  -19    5   16      6.40      0.00
  -17    5   16     -0.09      0.00
  -15    5   16     -4.95      0.00
  -13    5   16     -5.20      0.00
  -11    5   16     -2.27      0.00
   -9    5   16      0.72      0.00
   -7    5   16      2.07      0.00
   -5    5   16      1.41      0.00
   -3    5   16     -1.42      0.00
   -1    5   16     -5.76      0.00
    1    5   16     -9.50      0.00
    3    5   16    -10.47      0.00
    5    5   16     -8.71      0.00
    7    5   16     -6.24      0.00
    9    5   16     -4.79      0.00
   11    5   16     -4.38      0.00
   13    5   16     -4.07      0.00
   15    5   16     -3.48      0.00
   17    5   16     -2.85      0.00
   19    5   16     -2.19      0.00
   21    5   16     -1.05      0.00
   23    5   16      0.63      0.00
  -26    6   16      2.12      0.00
  -24    6   16      1.73      0.00
  -22    6   16     -0.32      0.00
  -20    6   16     -0.99      0.00
  -18    6   16      1.58      0.00
  -16    6   16      5.01      0.00
  -14    6   16      5.91      0.00
  -12    6   16      4.10      0.00
  -10    6   16      1.67      0.00
   -8    6   16     -0.66      0.00
   -6    6   16     -3.12      0.00
   -4    6   16     -4.23      0.00
   -2    6   16     -1.80      0.00
    0    6   16      3.20      0.00
    2    6   16      6.56      0.00
    4    6   16      5.47      0.00
    6    6   16      1.60      0.00
    8    6   16     -1.37      0.00
   10    6   16     -1.95      0.00
   12    6   16     -1.29      0.00
   14    6   16     -0.49      0.00
   16    6   16      0.69      0.00
   18    6   16      2.39      0.00
   20    6   16      3.41      0.00
   22    6   16      2.56      0.00
  -25    7   16      0.21      0.00
  -23    7   16      0.05      0.00
  -21    7   16     -0.53      0.00
  -19    7   16     -1.78      0.00
  -17    7   16     -3.00      0.00
  -15    7   16     -3.31      0.00
  -13    7   16     -2.82      0.00
  -11    7   16     -2.25      0.00
   -9    7   16     -1.89      0.00
   -7    7   16     -1.69      0.00
   -5    7   16     -1.98      0.00
   -3    7   16     -3.22      0.00
   -1    7   16     -5.02      0.00
    1    7   16     -6.01      0.00
    3    7   16     -5.00      0.00
    5    7   16     -2.18      0.00
    7    7   16      0.91      0.00
    9    7   16      2.83      0.00
   11    7   16      3.56      0.00
   13    7   16      3.89      0.00
   15    7   16      3.82      0.00
   17    7   16      2.68      0.00
   19    7   16      0.71      0.00
   21    7   16     -0.57      0.00
  -22    8   16      4.74      0.00
  -18    8   16     -2.55      0.00
  -16    8   16     -6.98      0.00
  -14    8   16     -6.95      0.00
  -12    8   16     -3.61      0.00
  -10    8   16     -0.68      0.00
   -8    8   16      0.50      0.00
   -6    8   16      1.42      0.00
   -4    8   16      2.58      0.00
   -2    8   16      2.72      0.00
    0    8   16      1.42      0.00
    2    8   16     -0.12      0.00
    4    8   16     -1.17      0.00
    6    8   16     -1.89      0.00
    8    8   16     -1.69      0.00
   10    8   16      0.31      0.00
   12    8   16      2.99      0.00
   14    8   16      3.64      0.00
   16    8   16      1.31      0.00
   18    8   16     -1.88      0.00
   20    8   16     -3.32      0.00
  -17    9   16     -1.08      0.00
  -15    9   16     -0.25      0.00
  -13    9   16     -2.18      0.00
  -11    9   16     -2.98      0.00
   -9    9   16     -1.13      0.00
   -7    9   16      0.91      0.00
   -5    9   16      0.92      0.00
   -3    9   16     -0.14      0.00
   -1    9   16     -0.24      0.00
    1    9   16      0.95      0.00
    3    9   16      2.50      0.00
    5    9   16      3.70      0.00
    7    9   16      3.98      0.00
    9    9   16      2.65      0.00
   11    9   16      0.09      0.00
   13    9   16     -1.70      0.00
   15    9   16     -0.99      0.00
   17    9   16      1.49      0.00
  -18   10   16      2.75      0.00
  -16   10   16      1.09      0.00
  -14   10   16      0.38      0.00
  -12   10   16      0.40      0.00
  -10   10   16      0.61      0.00
   -8   10   16      0.55      0.00
   -6   10   16      0.22      0.00
   -4   10   16      0.38      0.00
   -2   10   16      1.46      0.00
    0   10   16      2.41      0.00
    2   10   16      2.10      0.00
    4   10   16      1.35      0.00
    6   10   16      1.78      0.00
    8   10   16      2.95      0.00
   10   10   16      2.74      0.00
   12   10   16      0.47      0.00
   14   10   16     -2.37      0.00
   16   10   16     -4.26      0.00
  -17   11   16      1.18      0.00
  -15   11   16      2.76      0.00
  -13   11   16      3.91      0.00
  -11   11   16      3.35      0.00
   -9   11   16      1.81      0.00
   -7   11   16      1.31      0.00
   -5   11   16      1.77      0.00
   -3   11   16      1.06      0.00
   -1   11   16     -1.24      0.00
    1   11   16     -2.89      0.00
    3   11   16     -2.70      0.00
    5   11   16     -2.08      0.00
    7   11   16     -1.91      0.00
    9   11   16     -0.97      0.00
   11   11   16      1.09      0.00
   13   11   16      2.14      0.00
  -14   12   16     -3.62      0.00
  -12   12   16     -6.26      0.00
  -10   12   16     -8.04      0.00
   -8   12   16     -8.64      0.00
   -6   12   16     -8.09      0.00
   -4   12   16     -6.71      0.00
   -2   12   16     -4.95      0.00
    0   12   16     -2.90      0.00
    2   12   16     -0.28      0.00
    4   12   16      2.29      0.00
    6   12   16      3.12      0.00
    8   12   16      1.40      0.00
   10   12   16     -1.25      0.00
  -11   13   16      3.02      0.00
   -9   13   16      5.22      0.00
   -7   13   16      6.62      0.00
   -5   13   16      6.74      0.00
   -3   13   16      7.04      0.00
   -1   13   16      7.28      0.00
    1   13   16      4.89      0.00
    3   13   16     -0.23      0.00
    5   13   16     -3.73      0.00
    7   13   16     -2.33      0.00
  -27    1   17     -3.13      0.00
  -25    1   17     -5.29      0.00
  -23    1   17     -5.18      0.00
  -21    1   17     -3.28      0.00
  -19    1   17     -1.46      0.00
  -17    1   17     -0.98      0.00
  -15    1   17     -1.49      0.00
  -13    1   17     -1.10      0.00
  -11    1   17      2.58      0.00
   -9    1   17      9.59      0.00
   -7    1   17     15.70      0.00
   -5    1   17     15.34      0.00
   -3    1   17      7.80      0.00
   -1    1   17     -1.15      0.00
    1    1   17     -4.80      0.00
    3    1   17     -1.93      0.00
    5    1   17      3.14      0.00
    7    1   17      5.80      0.00
    9    1   17      4.97      0.00
   11    1   17      2.57      0.00
   13    1   17      0.66      0.00
   15    1   17     -0.08      0.00
   17    1   17      0.05      0.00
   19    1   17      0.74      0.00
   21    1   17      1.63      0.00
   23    1   17      1.94      0.00
  -28    2   17     -1.29      0.00
  -26    2   17     -0.67      0.00
  -24    2   17     -1.05      0.00
  -22    2   17     -2.62      0.00
  -20    2   17     -3.10      0.00
  -18    2   17     -0.25      0.00
  -16    2   17      5.28      0.00
  -14    2   17     10.01      0.00
  -12    2   17     10.18      0.00
  -10    2   17      4.77      0.00
   -8    2   17     -2.94      0.00
   -6    2   17     -6.98      0.00
   -4    2   17     -3.77      0.00
   -2    2   17      4.10      0.00
    0    2   17      9.92      0.00
    2    2   17      9.25      0.00
    4    2   17      3.55      0.00
    6    2   17     -2.34      0.00
    8    2   17     -5.07      0.00
   10    2   17     -4.71      0.00
   12    2   17     -3.02      0.00
   14    2   17     -1.09      0.00
   16    2   17      0.78      0.00
   18    2   17      1.90      0.00
   20    2   17      1.17      0.00
   22    2   17     -1.27      0.00
   24    2   17     -3.43      0.00
  -27    3   17      1.16      0.00
  -25    3   17      0.31      0.00
  -23    3   17     -0.97      0.00
  -21    3   17     -1.30      0.00
  -19    3   17     -0.56      0.00
  -17    3   17     -0.01      0.00
  -15    3   17     -0.91      0.00
  -13    3   17     -3.28      0.00
  -11    3   17     -6.17      0.00
   -9    3   17     -8.42      0.00
   -7    3   17     -9.30      0.00
   -5    3   17     -8.66      0.00
   -3    3   17     -6.90      0.00
   -1    3   17     -4.71      0.00
    1    3   17     -2.89      0.00
    3    3   17     -2.02      0.00
    5    3   17     -2.15      0.00
    7    3   17     -2.62      0.00
    9    3   17     -2.47      0.00
   11    3   17     -1.28      0.00
   13    3   17      0.36      0.00
   15    3   17      1.38      0.00
   17    3   17      1.24      0.00
   19    3   17      0.32      0.00
   21    3   17     -0.72      0.00
   23    3   17     -1.68      0.00
  -26    4   17     -4.69      0.00
  -24    4   17     -5.21      0.00
  -22    4   17     -2.59      0.00
  -20    4   17     -0.11      0.00
  -18    4   17     -0.86      0.00
  -16    4   17     -3.90      0.00
  -14    4   17     -5.57      0.00
  -12    4   17     -3.48      0.00
  -10    4   17      1.64      0.00
   -8    4   17      6.99      0.00
   -6    4   17      9.20      0.00
   -4    4   17      5.86      0.00
   -2    4   17     -2.28      0.00
    0    4   17    -10.74      0.00
    2    4   17    -14.31      0.00
    4    4   17    -11.59      0.00
    6    4   17     -6.17      0.00
    8    4   17     -2.96      0.00
   10    4   17     -3.63      0.00
   12    4   17     -5.89      0.00
   14    4   17     -6.67      0.00
   16    4   17     -5.18      0.00
   18    4   17     -2.69      0.00
   20    4   17     -0.54      0.00
   22    4   17      0.88      0.00
  -25    5   17      3.92      0.00
  -23    5   17      3.25      0.00
  -21    5   17      0.21      0.00
  -19    5   17     -1.30      0.00
  -17    5   17      0.86      0.00
  -15    5   17      4.58      0.00
  -13    5   17      6.45      0.00
  -11    5   17      5.29      0.00
   -9    5   17      2.20      0.00
   -7    5   17     -1.08      0.00
   -5    5   17     -2.74      0.00
   -3    5   17     -1.63      0.00
   -1    5   17      1.31      0.00
    1    5   17      3.16      0.00
    3    5   17      1.83      0.00
    5    5   17     -1.39      0.00
    7    5   17     -3.19      0.00
    9    5   17     -2.00      0.00
   11    5   17      0.25      0.00
   13    5   17      0.69      0.00
   15    5   17     -1.15      0.00
   17    5   17     -3.15      0.00
   19    5   17     -3.49      0.00
   21    5   17     -2.38      0.00
   23    5   17     -1.03      0.00
  -26    6   17      7.62      0.00
  -24    6   17      4.51      0.00
  -22    6   17      0.12      0.00
  -20    6   17     -2.08      0.00
  -18    6   17     -0.94      0.00
  -16    6   17      1.77      0.00
  -14    6   17      3.58      0.00
  -12    6   17      3.78      0.00
  -10    6   17      3.26      0.00
   -8    6   17      2.85      0.00
   -6    6   17      2.55      0.00
   -4    6   17      2.26      0.00
   -2    6   17      2.15      0.00
    0    6   17      1.97      0.00
    2    6   17      1.21      0.00
    4    6   17     -0.02      0.00
    6    6   17     -0.90      0.00
    8    6   17     -0.99      0.00
   10    6   17     -0.73      0.00
   12    6   17     -0.57      0.00
   14    6   17     -0.50      0.00
   16    6   17     -0.49      0.00
   18    6   17     -0.78      0.00
   20    6   17     -1.38      0.00
   22    6   17     -1.87      0.00
  -23    7   17      4.04      0.00
  -21    7   17      6.96      0.00
  -19    7   17      5.29      0.00
  -17    7   17      1.03      0.00
  -15    7   17     -1.12      0.00
  -13    7   17      0.20      0.00
  -11    7   17      2.00      0.00
   -9    7   17      2.06      0.00
   -7    7   17      1.67      0.00
   -5    7   17      2.16      0.00
   -3    7   17      2.15      0.00
   -1    7   17      0.18      0.00
    1    7   17     -2.30      0.00
    3    7   17     -3.08      0.00
    5    7   17     -2.53      0.00
    7    7   17     -2.56      0.00
    9    7   17     -3.33      0.00
   11    7   17     -3.18      0.00
   13    7   17     -1.55      0.00
   15    7   17      0.01      0.00
   17    7   17      0.09      0.00
   19    7   17     -0.83      0.00
   21    7   17     -1.34      0.00
  -22    8   17     -5.58      0.00
  -18    8   17      1.40      0.00
  -16    8   17      4.88      0.00
  -14    8   17      5.57      0.00
  -12    8   17      5.10      0.00
  -10    8   17      5.06      0.00
   -8    8   17      4.48      0.00
   -6    8   17      1.95      0.00
   -4    8   17     -1.43      0.00
   -2    8   17     -3.07      0.00
    0    8   17     -2.18      0.00
    2    8   17     -0.53      0.00
    4    8   17      0.07      0.00
    6    8   17     -0.36      0.00
    8    8   17     -0.83      0.00
   10    8   17     -1.12      0.00
   12    8   17     -1.77      0.00
   14    8   17     -2.65      0.00
   16    8   17     -2.82      0.00
   18    8   17     -2.01      0.00
  -19    9   17     -1.01      0.00
  -17    9   17      1.46      0.00
  -15    9   17      3.91      0.00
  -13    9   17      5.10      0.00
  -11    9   17      5.15      0.00
   -9    9   17      4.64      0.00
   -7    9   17      3.54      0.00
   -5    9   17      2.25      0.00
   -3    9   17      1.84      0.00
   -1    9   17      2.29      0.00
    1    9   17      2.03      0.00
    3    9   17      0.35      0.00
    5    9   17     -1.49      0.00
    7    9   17     -2.42      0.00
    9    9   17     -2.99      0.00
   11    9   17     -3.51      0.00
   13    9   17     -2.84      0.00
   15    9   17     -0.51      0.00
   17    9   17      1.82      0.00
  -18   10   17     -4.45      0.00
  -16   10   17     -9.64      0.00
  -14   10   17    -10.61      0.00
  -12   10   17     -8.13      0.00
  -10   10   17     -4.94      0.00
   -8   10   17     -2.12      0.00
   -6   10   17      0.39      0.00
   -4   10   17      1.82      0.00
   -2   10   17      1.46      0.00
    0   10   17      0.43      0.00
    2   10   17      0.07      0.00
    4   10   17     -0.20      0.00
    6   10   17     -1.44      0.00
    8   10   17     -2.73      0.00
   10   10   17     -2.35      0.00
   12   10   17     -0.65      0.00
   14   10   17      0.39      0.00
   16   10   17      0.18      0.00
  -17   11   17     -1.25      0.00
  -15   11   17     -0.17      0.00
  -13   11   17     -0.24      0.00
  -11   11   17     -1.04      0.00
   -9   11   17     -1.76      0.00
   -7   11   17     -1.70      0.00
   -5   11   17     -0.87      0.00
   -3   11   17      0.10      0.00
   -1   11   17      1.07      0.00
    1   11   17      2.73      0.00
    3   11   17      4.84      0.00
    5   11   17      5.56      0.00
    7   11   17      3.70      0.00
    9   11   17      0.78      0.00
   11   11   17     -0.67      0.00
   13   11   17     -0.05      0.00
  -14   12   17     -1.97      0.00
  -12   12   17     -1.76      0.00
  -10   12   17      0.71      0.00
   -8   12   17      3.05      0.00
   -6   12   17      3.39      0.00
   -4   12   17      3.05      0.00
   -2   12   17      3.68      0.00
    0   12   17      3.92      0.00
    2   12   17      1.85      0.00
    4   12   17     -0.74      0.00
    6   12   17     -0.54      0.00
    8   12   17      2.12      0.00
   10   12   17      3.77      0.00
   -9   13   17      8.47      0.00
   -7   13   17      7.99      0.00
   -5   13   17      6.80      0.00
   -3   13   17      4.69      0.00
   -1   13   17      2.71      0.00
    1   13   17      2.27      0.00
    3   13   17      3.26      0.00
    5   13   17      4.33      0.00
  -28    0   18     -6.19      0.00
  -26    0   18     -7.06      0.00
  -24    0   18     -4.54      0.00
  -22    0   18     -0.54      0.00
  -20    0   18      1.19      0.00
  -18    0   18     -1.65      0.00
  -16    0   18     -8.08      0.00
  -14    0   18    -14.25      0.00
  -12    0   18    -15.36      0.00
  -10    0   18     -9.14      0.00
   -8    0   18      0.99      0.00
   -6    0   18      7.41      0.00
   -4    0   18      5.24      0.00
   -2    0   18     -2.58      0.00
    0    0   18     -8.51      0.00
    2    0   18     -8.35      0.00
    4    0   18     -4.31      0.00
    6    0   18     -0.66      0.00
    8    0   18      1.40      0.00
   10    0   18      3.55      0.00
   12    0   18      6.43      0.00
   14    0   18      8.08      0.00
   16    0   18      6.75      0.00
   18    0   18      3.76      0.00
   20    0   18      2.18      0.00
   22    0   18      2.95      0.00
   24    0   18      3.90      0.00
  -27    1   18     -1.15      0.00
  -25    1   18     -1.20      0.00
  -23    1   18     -1.90      0.00
  -21    1   18     -2.30      0.00
  -19    1   18     -0.98      0.00
  -17    1   18      2.44      0.00
  -15    1   18      6.67      0.00
  -13    1   18      9.27      0.00
  -11    1   18      8.21      0.00
   -9    1   18      3.80      0.00
   -7    1   18     -0.82      0.00
   -5    1   18     -1.93      0.00
   -3    1   18      1.32      0.00
   -1    1   18      6.08      0.00
    1    1   18      8.77      0.00
    3    1   18      8.43      0.00
    5    1   18      6.65      0.00
    7    1   18      5.08      0.00
    9    1   18      3.90      0.00
   11    1   18      2.76      0.00
   13    1   18      2.12      0.00
   15    1   18      2.80      0.00
   17    1   18      4.31      0.00
   19    1   18      4.83      0.00
   21    1   18      3.15      0.00
   23    1   18      0.34      0.00
  -28    2   18      0.57      0.00
  -26    2   18      1.17      0.00
  -24    2   18      0.36      0.00
  -22    2   18     -1.49      0.00
  -20    2   18     -2.97      0.00
  -18    2   18     -3.21      0.00
  -16    2   18     -2.57      0.00
  -14    2   18     -2.24      0.00
  -12    2   18     -3.53      0.00
  -10    2   18     -6.93      0.00
   -8    2   18    -11.02      0.00
   -6    2   18    -12.81      0.00
   -4    2   18    -10.07      0.00
   -2    2   18     -3.51      0.00
    0    2   18      3.68      0.00
    2    2   18      8.60      0.00
    4    2   18     10.53      0.00
    6    2   18     10.57      0.00
    8    2   18      9.93      0.00
   10    2   18      8.98      0.00
   12    2   18      7.62      0.00
   14    2   18      6.01      0.00
   16    2   18      4.64      0.00
   18    2   18      3.86      0.00
   20    2   18      3.64      0.00
   22    2   18      3.77      0.00
   24    2   18      3.91      0.00
  -27    3   18     -7.55      0.00
  -25    3   18     -9.52      0.00
  -23    3   18     -6.58      0.00
  -21    3   18     -1.23      0.00
  -19    3   18      1.21      0.00
  -17    3   18     -1.69      0.00
  -15    3   18     -6.89      0.00
  -13    3   18     -8.94      0.00
  -11    3   18     -4.83      0.00
   -9    3   18      3.66      0.00
   -7    3   18     11.21      0.00
   -5    3   18     12.74      0.00
   -3    3   18      7.45      0.00
   -1    3   18     -0.34      0.00
    1    3   18     -4.76      0.00
    3    3   18     -3.32      0.00
    5    3   18      1.54      0.00
    7    3   18      5.49      0.00
    9    3   18      6.30      0.00
   11    3   18      4.85      0.00
   13    3   18      3.02      0.00
   15    3   18      1.65      0.00
   17    3   18      0.81      0.00
   19    3   18      0.76      0.00
   21    3   18      1.71      0.00
   23    3   18      2.78      0.00
  -26    4   18      1.49      0.00
  -24    4   18      2.83      0.00
  -22    4   18      1.03      0.00
  -20    4   18     -2.29      0.00
  -18    4   18     -3.58      0.00
  -16    4   18     -1.59      0.00
  -14    4   18      1.41      0.00
  -12    4   18      2.32      0.00
  -10    4   18      0.17      0.00
   -8    4   18     -3.50      0.00
   -6    4   18     -6.15      0.00
   -4    4   18     -6.10      0.00
   -2    4   18     -3.59      0.00
    0    4   18     -0.48      0.00
    2    4   18      1.22      0.00
    4    4   18      0.78      0.00
    6    4   18     -1.01      0.00
    8    4   18     -2.80      0.00
   10    4   18     -3.76      0.00
   12    4   18     -3.71      0.00
   14    4   18     -2.68      0.00
   16    4   18     -0.80      0.00
   18    4   18      1.28      0.00
   20    4   18      2.41      0.00
   22    4   18      2.03      0.00
  -25    5   18     -3.93      0.00
  -23    5   18     -9.76      0.00
  -21    5   18    -12.14      0.00
  -19    5   18     -8.58      0.00
  -17    5   18     -1.42      0.00
  -15    5   18      4.34      0.00
  -13    5   18      5.89      0.00
  -11    5   18      4.28      0.00
   -9    5   18      1.99      0.00
   -7    5   18      0.42      0.00
   -5    5   18      0.23      0.00
   -3    5   18      2.00      0.00
   -1    5   18      5.26      0.00
    1    5   18      7.92      0.00
    3    5   18      8.17      0.00
    5    5   18      6.60      0.00
    7    5   18      5.34      0.00
    9    5   18      5.25      0.00
   11    5   18      5.25      0.00
   13    5   18      4.26      0.00
   15    5   18      2.69      0.00
   17    5   18      1.58      0.00
   19    5   18      1.08      0.00
   21    5   18      0.48      0.00
  -24    6   18     -2.97      0.00
  -22    6   18     -1.23      0.00
  -20    6   18     -0.72      0.00
  -18    6   18     -2.91      0.00
  -16    6   18     -5.53      0.00
  -14    6   18     -5.84      0.00
  -12    6   18     -4.21      0.00
  -10    6   18     -2.49      0.00
   -8    6   18     -0.79      0.00
   -6    6   18      1.60      0.00
   -4    6   18      3.21      0.00
   -2    6   18      1.56      0.00
    0    6   18     -2.75      0.00
    2    6   18     -5.73      0.00
    4    6   18     -4.59      0.00
    6    6   18     -0.78      0.00
    8    6   18      2.29      0.00
   10    6   18      3.06      0.00
   12    6   18      2.25      0.00
   14    6   18      0.72      0.00
   16    6   18     -1.42      0.00
   18    6   18     -3.50      0.00
   20    6   18     -3.98      0.00
  -23    7   18      2.47      0.00
  -21    7   18      2.85      0.00
  -19    7   18      2.90      0.00
  -17    7   18      2.58      0.00
  -15    7   18      1.80      0.00
  -13    7   18      1.06      0.00
  -11    7   18      0.93      0.00
   -9    7   18      1.20      0.00
   -7    7   18      1.21      0.00
   -5    7   18      0.93      0.00
   -3    7   18      0.98      0.00
   -1    7   18      1.63      0.00
    1    7   18      2.19      0.00
    3    7   18      1.61      0.00
    5    7   18     -0.32      0.00
    7    7   18     -2.51      0.00
    9    7   18     -3.70      0.00
   11    7   18     -3.79      0.00
   13    7   18     -3.48      0.00
   15    7   18     -2.86      0.00
   17    7   18     -1.42      0.00
   19    7   18      0.55      0.00
  -22    8   18     -1.71      0.00
  -18    8   18      4.31      0.00
  -16    8   18      6.88      0.00
  -14    8   18      5.90      0.00
  -12    8   18      3.06      0.00
  -10    8   18      1.30      0.00
   -8    8   18      0.76      0.00
   -6    8   18     -0.23      0.00
   -4    8   18     -1.52      0.00
   -2    8   18     -1.35      0.00
    0    8   18      0.41      0.00
    2    8   18      1.93      0.00
    4    8   18      2.21      0.00
    6    8   18      1.70      0.00
    8    8   18      0.53      0.00
   10    8   18     -1.57      0.00
   12    8   18     -3.48      0.00
   14    8   18     -3.24      0.00
   16    8   18     -0.69      0.00
   18    8   18      1.98      0.00
  -19    9   18      2.02      0.00
  -17    9   18     -0.14      0.00
  -15    9   18      1.69      0.00
  -13    9   18      5.29      0.00
  -11    9   18      6.24      0.00
   -9    9   18      3.86      0.00
   -7    9   18      1.67      0.00
   -5    9   18      2.19      0.00
   -3    9   18      3.85      0.00
   -1    9   18      3.82      0.00
    1    9   18      1.58      0.00
    3    9   18     -1.29      0.00
    5    9   18     -3.14      0.00
    7    9   18     -3.15      0.00
    9    9   18     -1.44      0.00
   11    9   18      0.68      0.00
   13    9   18      1.19      0.00
   15    9   18     -0.65      0.00
   17    9   18     -3.24      0.00
  -18   10   18     -0.67      0.00
  -16   10   18      0.04      0.00
  -14   10   18      0.00      0.00
  -12   10   18     -0.13      0.00
  -10   10   18      0.14      0.00
   -8   10   18      0.73      0.00
   -6   10   18      0.94      0.00
   -4   10   18     -0.14      0.00
   -2   10   18     -2.25      0.00
    0   10   18     -3.43      0.00
    2   10   18     -2.44      0.00
    4   10   18     -0.89      0.00
    6   10   18     -1.20      0.00
    8   10   18     -3.06      0.00
   10   10   18     -3.90      0.00
   12   10   18     -2.52      0.00
   14   10   18     -0.05      0.00
  -17   11   18     -3.31      0.00
  -15   11   18     -5.34      0.00
  -13   11   18     -5.73      0.00
  -11   11   18     -3.43      0.00
   -9   11   18     -0.16      0.00
   -7   11   18      1.24      0.00
   -5   11   18      0.72      0.00
   -3   11   18      0.66      0.00
   -1   11   18      1.77      0.00
    1   11   18      2.25      0.00
    3   11   18      1.39      0.00
    5   11   18      0.77      0.00
    7   11   18      1.15      0.00
    9   11   18      1.12      0.00
   11   11   18      0.04      0.00
   13   11   18     -0.53      0.00
  -14   12   18      4.80      0.00
  -12   12   18      6.45      0.00
  -10   12   18      7.12      0.00
   -8   12   18      6.97      0.00
   -6   12   18      6.15      0.00
   -4   12   18      4.81      0.00
   -2   12   18      3.36      0.00
    0   12   18      1.93      0.00
    2   12   18      0.37      0.00
    4   12   18     -0.87      0.00
    6   12   18     -0.63      0.00
    8   12   18      1.30      0.00
   10   12   18      3.29      0.00
   -9   13   18     -6.25      0.00
   -7   13   18     -8.86      0.00
   -5   13   18     -9.79      0.00
   -3   13   18    -10.01      0.00
   -1   13   18     -9.26      0.00
    1   13   18     -5.67      0.00
    3   13   18      0.08      0.00
    5   13   18      3.64      0.00
  -27    1   19      4.53      0.00
  -25    1   19      7.21      0.00
  -23    1   19      7.25      0.00
  -21    1   19      4.93      0.00
  -19    1   19      2.08      0.00
  -17    1   19      0.56      0.00
  -15    1   19      0.81      0.00
  -13    1   19      1.11      0.00
  -11    1   19     -1.28      0.00
   -9    1   19     -6.85      0.00
   -7    1   19    -12.04      0.00
   -5    1   19    -12.05      0.00
   -3    1   19     -6.07      0.00
   -1    1   19      1.37      0.00
    1    1   19      4.87      0.00
    3    1   19      3.15      0.00
    5    1   19     -0.87      0.00
    7    1   19     -3.93      0.00
    9    1   19     -5.18      0.00
   11    1   19     -5.28      0.00
   13    1   19     -4.34      0.00
   15    1   19     -2.05      0.00
   17    1   19      0.66      0.00
   19    1   19      1.79      0.00
   21    1   19      0.70      0.00
   23    1   19     -0.83      0.00
  -26    2   19     -0.45      0.00
  -24    2   19     -0.43      0.00
  -22    2   19      1.28      0.00
  -20    2   19      2.29      0.00
  -18    2   19      0.01      0.00
  -16    2   19     -5.35      0.00
  -14    2   19    -10.50      0.00
  -12    2   19    -11.66      0.00
  -10    2   19     -7.77      0.00
   -8    2   19     -1.85      0.00
   -6    2   19      1.09      0.00
   -4    2   19     -1.47      0.00
   -2    2   19     -7.10      0.00
    0    2   19    -10.63      0.00
    2    2   19     -9.08      0.00
    4    2   19     -3.98      0.00
    6    2   19      0.97      0.00
    8    2   19      3.56      0.00
   10    2   19      4.10      0.00
   12    2   19      3.56      0.00
   14    2   19      2.10      0.00
   16    2   19     -0.08      0.00
   18    2   19     -1.60      0.00
   20    2   19     -0.94      0.00
   22    2   19      1.30      0.00
  -27    3   19      1.15      0.00
  -25    3   19      1.84      0.00
  -23    3   19      2.52      0.00
  -21    3   19      2.29      0.00
  -19    3   19      1.22      0.00
  -17    3   19      0.08      0.00
  -15    3   19     -0.65      0.00
  -13    3   19     -0.92      0.00
  -11    3   19     -0.67      0.00
   -9    3   19      0.13      0.00
   -7    3   19      1.02      0.00
   -5    3   19      1.21      0.00
   -3    3   19      0.27      0.00
   -1    3   19     -1.19      0.00
    1    3   19     -1.93      0.00
    3    3   19     -1.32      0.00
    5    3   19     -0.02      0.00
    7    3   19      0.67      0.00
    9    3   19      0.16      0.00
   11    3   19     -0.97      0.00
   13    3   19     -1.66      0.00
   15    3   19     -1.43      0.00
   17    3   19     -0.49      0.00
   19    3   19      0.65      0.00
   21    3   19      1.73      0.00
   23    3   19      2.70      0.00
  -26    4   19      6.12      0.00
  -24    4   19      6.01      0.00
  -22    4   19      3.02      0.00
  -20    4   19      0.46      0.00
  -18    4   19      1.13      0.00
  -16    4   19      4.08      0.00
  -14    4   19      5.96      0.00
  -12    4   19      4.60      0.00
  -10    4   19      0.60      0.00
   -8    4   19     -3.65      0.00
   -6    4   19     -5.39      0.00
   -4    4   19     -2.90      0.00
   -2    4   19      2.99      0.00
    0    4   19      8.54      0.00
    2    4   19      9.86      0.00
    4    4   19      6.65      0.00
    6    4   19      2.51      0.00
    8    4   19      1.10      0.00
   10    4   19      2.59      0.00
   12    4   19      4.43      0.00
   14    4   19      4.68      0.00
   16    4   19      3.54      0.00
   18    4   19      2.03      0.00
   20    4   19      0.62      0.00
   22    4   19     -0.50      0.00
  -25    5   19     -2.51      0.00
  -23    5   19     -1.74      0.00
  -21    5   19      1.64      0.00
  -19    5   19      3.37      0.00
  -17    5   19      1.05      0.00
  -15    5   19     -3.29      0.00
  -13    5   19     -6.09      0.00
  -11    5   19     -5.86      0.00
   -9    5   19     -3.39      0.00
   -7    5   19     -0.26      0.00
   -5    5   19      1.82      0.00
   -3    5   19      1.66      0.00
   -1    5   19     -0.23      0.00
    1    5   19     -1.62      0.00
    3    5   19     -0.81      0.00
    5    5   19      1.29      0.00
    7    5   19      2.25      0.00
    9    5   19      1.15      0.00
   11    5   19     -0.27      0.00
   13    5   19      0.04      0.00
   15    5   19      1.89      0.00
   17    5   19      3.33      0.00
   19    5   19      3.12      0.00
   21    5   19      1.82      0.00
  -24    6   19     -1.65      0.00
  -22    6   19      1.91      0.00
  -20    6   19      3.26      0.00
  -18    6   19      1.62      0.00
  -16    6   19     -1.52      0.00
  -14    6   19     -4.22      0.00
  -12    6   19     -5.72      0.00
  -10    6   19     -6.20      0.00
   -8    6   19     -5.87      0.00
   -6    6   19     -4.94      0.00
   -4    6   19     -4.09      0.00
   -2    6   19     -3.99      0.00
    0    6   19     -4.22      0.00
    2    6   19     -3.75      0.00
    4    6   19     -2.53      0.00
    6    6   19     -1.58      0.00
    8    6   19     -1.46      0.00
   10    6   19     -1.57      0.00
   12    6   19     -1.23      0.00
   14    6   19     -0.50      0.00
   16    6   19      0.31      0.00
   18    6   19      1.13      0.00
   20    6   19      1.83      0.00
  -23    7   19     -1.99      0.00
  -21    7   19     -5.48      0.00
  -19    7   19     -5.20      0.00
  -17    7   19     -2.55      0.00
  -15    7   19     -1.19      0.00
  -13    7   19     -1.97      0.00
  -11    7   19     -2.69      0.00
   -9    7   19     -2.41      0.00
   -7    7   19     -2.85      0.00
   -5    7   19     -4.63      0.00
   -3    7   19     -5.38      0.00
   -1    7   19     -3.30      0.00
    1    7   19     -0.12      0.00
    3    7   19      1.34      0.00
    5    7   19      1.00      0.00
    7    7   19      0.71      0.00
    9    7   19      1.02      0.00
   11    7   19      0.84      0.00
   13    7   19     -0.21      0.00
   15    7   19     -1.02      0.00
   17    7   19     -0.73      0.00
   19    7   19      0.11      0.00
  -22    8   19      2.97      0.00
  -20    8   19      0.52      0.00
  -18    8   19     -2.59      0.00
  -16    8   19     -3.94      0.00
  -14    8   19     -3.32      0.00
  -12    8   19     -3.03      0.00
  -10    8   19     -4.09      0.00
   -8    8   19     -4.29      0.00
   -6    8   19     -1.35      0.00
   -4    8   19      3.45      0.00
   -2    8   19      6.43      0.00
    0    8   19      5.59      0.00
    2    8   19      2.49      0.00
    4    8   19     -0.04      0.00
    6    8   19     -0.64      0.00
    8    8   19      0.07      0.00
   10    8   19      1.11      0.00
   12    8   19      1.94      0.00
   14    8   19      2.19      0.00
   16    8   19      1.51      0.00
   18    8   19      0.28      0.00
  -19    9   19      0.63      0.00
  -17    9   19     -0.57      0.00
  -15    9   19     -2.04      0.00
  -13    9   19     -3.05      0.00
  -11    9   19     -3.57      0.00
   -9    9   19     -3.56      0.00
   -7    9   19     -2.82      0.00
   -5    9   19     -2.02      0.00
   -3    9   19     -2.28      0.00
   -1    9   19     -3.09      0.00
    1    9   19     -2.47      0.00
    3    9   19      0.02      0.00
    5    9   19      2.39      0.00
    7    9   19      3.11      0.00
    9    9   19      2.75      0.00
   11    9   19      1.98      0.00
   13    9   19      0.28      0.00
   15    9   19     -2.31      0.00
   17    9   19     -4.17      0.00
  -18   10   19      4.84      0.00
  -16   10   19      8.37      0.00
  -14   10   19      8.82      0.00
  -12   10   19      7.23      0.00
  -10   10   19      5.36      0.00
   -8   10   19      3.32      0.00
   -6   10   19      0.98      0.00
   -4   10   19     -0.42      0.00
   -2   10   19     -0.03      0.00
    0   10   19      0.83      0.00
    2   10   19      0.61      0.00
    4   10   19     -0.06      0.00
    6   10   19      0.20      0.00
    8   10   19      1.09      0.00
   10   10   19      1.31      0.00
   12   10   19      0.86      0.00
   14   10   19      0.70      0.00
  -15   11   19     -0.50      0.00
  -13   11   19     -0.03      0.00
  -11   11   19      0.63      0.00
   -9   11   19      0.79      0.00
   -7   11   19      0.13      0.00
   -5   11   19     -0.86      0.00
   -3   11   19     -1.39      0.00
   -1   11   19     -1.60      0.00
    1   11   19     -2.58      0.00
    3   11   19     -4.25      0.00
    5   11   19     -4.74      0.00
    7   11   19     -2.88      0.00
    9   11   19     -0.15      0.00
   11   11   19      1.05      0.00
  -12   12   19      0.62      0.00
  -10   12   19     -3.59      0.00
   -8   12   19     -6.71      0.00
   -6   12   19     -6.66      0.00
   -4   12   19     -4.93      0.00
   -2   12   19     -3.68      0.00
    0   12   19     -2.30      0.00
    2   12   19      0.29      0.00
    4   12   19      2.23      0.00
    6   12   19      0.97      0.00
    8   12   19     -2.35      0.00
   -7   13   19     -5.19      0.00
   -5   13   19     -4.29      0.00
   -3   13   19     -3.18      0.00
   -1   13   19     -2.49      0.00
    1   13   19     -2.90      0.00
    3   13   19     -3.87      0.00
  -26    0   20      5.76      0.00
  -24    0   20      3.08      0.00
  -22    0   20     -1.10      0.00
  -20    0   20     -3.11      0.00
  -18    0   20     -0.21      0.00
  -16    0   20      7.35      0.00
  -14    0   20     15.72      0.00
  -12    0   20     19.27      0.00
  -10    0   20     14.88      0.00
   -8    0   20      5.62      0.00
   -6    0   20     -1.06      0.00
   -4    0   20      0.03      0.00
   -2    0   20      7.01      0.00
    0    0   20     13.36      0.00
    2    0   20     14.44      0.00
    4    0   20     10.75      0.00
    6    0   20      5.35      0.00
    8    0   20     -0.03      0.00
   10    0   20     -5.16      0.00
   12    0   20     -8.88      0.00
   14    0   20     -8.95      0.00
   16    0   20     -5.26      0.00
   18    0   20     -1.36      0.00
   20    0   20     -0.87      0.00
   22    0   20     -3.17      0.00
  -27    1   20     -1.97      0.00
  -25    1   20     -1.55      0.00
  -23    1   20      0.04      0.00
  -21    1   20      1.41      0.00
  -19    1   20      0.99      0.00
  -17    1   20     -1.63      0.00
  -15    1   20     -5.06      0.00
  -13    1   20     -6.91      0.00
  -11    1   20     -5.45      0.00
   -9    1   20     -1.24      0.00
   -7    1   20      2.93      0.00
   -5    1   20      4.18      0.00
   -3    1   20      2.10      0.00
   -1    1   20     -1.04      0.00
    1    1   20     -2.68      0.00
    3    1   20     -2.16      0.00
    5    1   20     -0.66      0.00
    7    1   20      0.58      0.00
    9    1   20      1.23      0.00
   11    1   20      1.19      0.00
   13    1   20     -0.05      0.00
   15    1   20     -2.51      0.00
   17    1   20     -4.71      0.00
   19    1   20     -4.63      0.00
   21    1   20     -2.07      0.00
   23    1   20      0.73      0.00
  -26    2   20     -2.19      0.00
  -24    2   20     -0.84      0.00
  -22    2   20      1.47      0.00
  -20    2   20      3.33      0.00
  -18    2   20      3.66      0.00
  -16    2   20      2.42      0.00
  -14    2   20      0.72      0.00
  -12    2   20      0.45      0.00
  -10    2   20      2.74      0.00
   -8    2   20      6.58      0.00
   -6    2   20      9.03      0.00
   -4    2   20      7.67      0.00
   -2    2   20      2.81      0.00
    0    2   20     -2.85      0.00
    2    2   20     -6.62      0.00
    4    2   20     -7.85      0.00
    6    2   20     -7.55      0.00
    8    2   20     -6.71      0.00
   10    2   20     -5.49      0.00
   12    2   20     -4.08      0.00
   14    2   20     -3.31      0.00
   16    2   20     -3.72      0.00
   18    2   20     -4.60      0.00
   20    2   20     -4.85      0.00
   22    2   20     -4.32      0.00
  -27    3   20      6.93      0.00
  -25    3   20      9.10      0.00
  -23    3   20      6.70      0.00
  -21    3   20      2.06      0.00
  -19    3   20      0.07      0.00
  -17    3   20      3.03      0.00
  -15    3   20      8.26      0.00
  -13    3   20     10.75      0.00
  -11    3   20      7.74      0.00
   -9    3   20      0.96      0.00
   -7    3   20     -4.88      0.00
   -5    3   20     -5.76      0.00
   -3    3   20     -1.48      0.00
   -1    3   20      4.18      0.00
    1    3   20      6.57      0.00
    3    3   20      4.08      0.00
    5    3   20     -0.78      0.00
    7    3   20     -4.26      0.00
    9    3   20     -4.84      0.00
   11    3   20     -3.65      0.00
   13    3   20     -2.20      0.00
   15    3   20     -1.05      0.00
   17    3   20     -0.57      0.00
   19    3   20     -1.35      0.00
   21    3   20     -3.08      0.00
  -26    4   20     -2.92      0.00
  -24    4   20     -2.56      0.00
  -22    4   20      0.92      0.00
  -20    4   20      4.88      0.00
  -18    4   20      5.72      0.00
  -16    4   20      3.08      0.00
  -14    4   20      0.12      0.00
  -12    4   20      0.01      0.00
  -10    4   20      3.01      0.00
   -8    4   20      6.86      0.00
   -6    4   20      9.11      0.00
   -4    4   20      8.82      0.00
   -2    4   20      6.71      0.00
    0    4   20      4.39      0.00
    2    4   20      3.17      0.00
    4    4   20      3.44      0.00
    6    4   20      4.56      0.00
    8    4   20      5.43      0.00
   10    4   20      5.26      0.00
   12    4   20      3.95      0.00
   14    4   20      1.91      0.00
   16    4   20     -0.32      0.00
   18    4   20     -2.08      0.00
   20    4   20     -2.83      0.00
   22    4   20     -2.54      0.00
  -25    5   20      6.12      0.00
  -23    5   20     11.28      0.00
  -21    5   20     13.07      0.00
  -19    5   20      9.60      0.00
  -17    5   20      3.00      0.00
  -15    5   20     -2.64      0.00
  -13    5   20     -4.93      0.00
  -11    5   20     -4.38      0.00
   -9    5   20     -2.57      0.00
   -7    5   20     -0.61      0.00
   -5    5   20      0.55      0.00
   -3    5   20     -0.14      0.00
   -1    5   20     -2.47      0.00
    1    5   20     -4.50      0.00
    3    5   20     -4.69      0.00
    5    5   20     -3.96      0.00
    7    5   20     -4.21      0.00
    9    5   20     -5.46      0.00
   11    5   20     -5.86      0.00
   13    5   20     -4.34      0.00
   15    5   20     -2.00      0.00
   17    5   20     -0.45      0.00
   19    5   20      0.01      0.00
   21    5   20      0.10      0.00
  -24    6   20      3.59      0.00
  -22    6   20      1.38      0.00
  -20    6   20      0.33      0.00
  -18    6   20      1.97      0.00
  -16    6   20      4.30      0.00
  -14    6   20      4.83      0.00
  -12    6   20      3.75      0.00
  -10    6   20      2.46      0.00
   -8    6   20      0.83      0.00
   -6    6   20     -1.72      0.00
   -4    6   20     -3.55      0.00
   -2    6   20     -2.16      0.00
    0    6   20      1.93      0.00
    2    6   20      4.88      0.00
    4    6   20      3.88      0.00
    6    6   20      0.10      0.00
    8    6   20     -3.28      0.00
   10    6   20     -4.51      0.00
   12    6   20     -3.89      0.00
   14    6   20     -2.07      0.00
   16    6   20      0.46      0.00
   18    6   20      2.61      0.00
   20    6   20      2.90      0.00
  -23    7   20     -2.94      0.00
  -21    7   20     -2.15      0.00
  -19    7   20     -0.92      0.00
  -17    7   20      0.11      0.00
  -15    7   20      0.71      0.00
  -13    7   20      0.57      0.00
  -11    7   20     -0.39      0.00
   -9    7   20     -1.44      0.00
   -7    7   20     -1.50      0.00
   -5    7   20     -0.45      0.00
   -3    7   20      0.73      0.00
   -1    7   20      0.93      0.00
    1    7   20      0.20      0.00
    3    7   20     -0.29      0.00
    5    7   20      0.38      0.00
    7    7   20      1.73      0.00
    9    7   20      2.50      0.00
   11    7   20      2.27      0.00
   13    7   20      1.66      0.00
   15    7   20      1.04      0.00
   17    7   20      0.10      0.00
   19    7   20     -1.09      0.00
  -22    8   20     -0.98      0.00
  -18    8   20     -2.66      0.00
  -16    8   20     -2.96      0.00
  -14    8   20     -1.86      0.00
  -12    8   20     -0.82      0.00
  -10    8   20     -1.02      0.00
   -8    8   20     -1.34      0.00
   -6    8   20     -0.43      0.00
   -4    8   20      0.52      0.00
   -2    8   20     -0.41      0.00
    0    8   20     -2.59      0.00
    2    8   20     -3.53      0.00
    4    8   20     -2.40      0.00
    6    8   20     -0.55      0.00
    8    8   20      0.90      0.00
   10    8   20      1.89      0.00
   12    8   20      2.05      0.00
   14    8   20      0.81      0.00
   16    8   20     -1.15      0.00
   18    8   20     -2.13      0.00
  -19    9   20     -1.36      0.00
  -17    9   20     -2.11      0.00
  -15    9   20     -5.29      0.00
  -13    9   20     -8.13      0.00
  -11    9   20     -7.42      0.00
   -9    9   20     -4.12      0.00
   -7    9   20     -2.27      0.00
   -5    9   20     -3.64      0.00
   -3    9   20     -5.74      0.00
   -1    9   20     -5.35      0.00
    1    9   20     -2.20      0.00
    3    9   20      1.44      0.00
    5    9   20      3.38      0.00
    7    9   20      2.92      0.00
    9    9   20      1.00      0.00
   11    9   20     -0.44      0.00
   13    9   20      0.21      0.00
   15    9   20      2.66      0.00
  -18   10   20     -1.04      0.00
  -16   10   20     -0.99      0.00
  -14   10   20     -0.27      0.00
  -12   10   20      0.04      0.00
  -10   10   20     -0.65      0.00
   -8   10   20     -1.89      0.00
   -6   10   20     -2.30      0.00
   -4   10   20     -0.58      0.00
   -2   10   20      2.53      0.00
    0   10   20      4.29      0.00
    2   10   20      3.16      0.00
    4   10   20      1.17      0.00
    6   10   20      1.25      0.00
    8   10   20      3.32      0.00
   10   10   20      4.71      0.00
   12   10   20      3.93      0.00
   14   10   20      1.88      0.00
  -15   11   20      8.34      0.00
  -13   11   20      7.13      0.00
  -11   11   20      2.79      0.00
   -9   11   20     -1.64      0.00
   -7   11   20     -2.93      0.00
   -5   11   20     -1.46      0.00
   -3   11   20     -0.12      0.00
   -1   11   20      0.09      0.00
    1   11   20      0.56      0.00
    3   11   20      1.62      0.00
    5   11   20      1.71      0.00
    7   11   20      0.42      0.00
    9   11   20     -0.58      0.00
   11   11   20     -0.45      0.00
  -12   12   20     -2.15      0.00
  -10   12   20     -1.31      0.00
   -8   12   20     -0.78      0.00
   -6   12   20     -0.51      0.00
   -4   12   20     -0.24      0.00
   -2   12   20     -0.04      0.00
    0   12   20      0.13      0.00
    2   12   20      0.54      0.00
    4   12   20      0.83      0.00
    6   12   20      0.02      0.00
    8   12   20     -1.94      0.00
   -5   13   20      9.89      0.00
   -3   13   20      9.60      0.00
   -1   13   20      8.53      0.00
    1   13   20      5.11      0.00
  -27    1   21     -4.75      0.00
  -25    1   21     -6.91      0.00
  -23    1   21     -6.61      0.00
  -21    1   21     -4.15      0.00
  -19    1   21     -1.22      0.00
  -17    1   21      0.11      0.00
  -15    1   21     -0.80      0.00
  -13    1   21     -2.06      0.00
  -11    1   21     -0.66      0.00
   -9    1   21      4.08      0.00
   -7    1   21      8.96      0.00
   -5    1   21      9.70      0.00
   -3    1   21      5.31      0.00
   -1    1   21     -0.75      0.00
    1    1   21     -3.92      0.00
    3    1   21     -2.58      0.00
    5    1   21      1.29      0.00
    7    1   21      4.97      0.00
    9    1   21      7.24      0.00
   11    1   21      7.76      0.00
   13    1   21      5.78      0.00
   15    1   21      1.25      0.00
   17    1   21     -3.41      0.00
   19    1   21     -4.83      0.00
   21    1   21     -2.57      0.00
  -26    2   21      1.35      0.00
  -24    2   21      0.80      0.00
  -22    2   21     -1.65      0.00
  -20    2   21     -3.63      0.00
  -18    2   21     -2.41      0.00
  -16    2   21      2.26      0.00
  -14    2   21      7.68      0.00
  -12    2   21     10.33      0.00
  -10    2   21      8.92      0.00
   -8    2   21      5.48      0.00
   -6    2   21      3.45      0.00
   -4    2   21      4.52      0.00
   -2    2   21      7.12      0.00
    0    2   21      8.17      0.00
    2    2   21      6.16      0.00
    4    2   21      2.40      0.00
    6    2   21     -0.63      0.00
    8    2   21     -1.90      0.00
   10    2   21     -2.12      0.00
   12    2   21     -1.91      0.00
   14    2   21     -0.99      0.00
   16    2   21      0.56      0.00
   18    2   21      1.35      0.00
   20    2   21      0.32      0.00
   22    2   21     -1.40      0.00
  -25    3   21     -3.49      0.00
  -23    3   21     -3.42      0.00
  -21    3   21     -2.81      0.00
  -19    3   21     -1.85      0.00
  -17    3   21     -0.53      0.00
  -15    3   21      1.44      0.00
  -13    3   21      3.79      0.00
  -11    3   21      5.45      0.00
   -9    3   21      5.48      0.00
   -7    3   21      4.27      0.00
   -5    3   21      3.27      0.00
   -3    3   21      3.52      0.00
   -1    3   21      4.53      0.00
    1    3   21      4.75      0.00
    3    3   21      3.44      0.00
    5    3   21      1.59      0.00
    7    3   21      0.82      0.00
    9    3   21      1.49      0.00
   11    3   21      2.50      0.00
   13    3   21      2.73      0.00
   15    3   21      2.06      0.00
   17    3   21      0.90      0.00
   19    3   21     -0.40      0.00
   21    3   21     -1.66      0.00
  -26    4   21     -7.25      0.00
  -24    4   21     -6.90      0.00
  -22    4   21     -3.77      0.00
  -20    4   21     -0.93      0.00
  -18    4   21     -1.02      0.00
  -16    4   21     -3.44      0.00
  -14    4   21     -5.27      0.00
  -12    4   21     -4.44      0.00
  -10    4   21     -1.26      0.00
   -8    4   21      2.42      0.00
   -6    4   21      4.55      0.00
   -4    4   21      3.82      0.00
   -2    4   21      0.66      0.00
    0    4   21     -2.52      0.00
    2    4   21     -3.11      0.00
    4    4   21     -1.14      0.00
    6    4   21      0.76      0.00
    8    4   21      0.61      0.00
   10    4   21     -0.76      0.00
   12    4   21     -1.33      0.00
   14    4   21     -0.70      0.00
   16    4   21     -0.03      0.00
   18    4   21      0.04      0.00
   20    4   21      0.00      0.00
  -25    5   21      0.10      0.00
  -23    5   21     -1.29      0.00
  -21    5   21     -4.73      0.00
  -19    5   21     -6.13      0.00
  -17    5   21     -3.44      0.00
  -15    5   21      1.20      0.00
  -13    5   21      4.37      0.00
  -11    5   21      4.75      0.00
   -9    5   21      3.11      0.00
   -7    5   21      0.74      0.00
   -5    5   21     -1.10      0.00
   -3    5   21     -1.34      0.00
   -1    5   21      0.00      0.00
    1    5   21      1.42      0.00
    3    5   21      1.43      0.00
    5    5   21      0.29      0.00
    7    5   21     -0.42      0.00
    9    5   21     -0.04      0.00
   11    5   21      0.30      0.00
   13    5   21     -0.67      0.00
   15    5   21     -2.51      0.00
   17    5   21     -3.63      0.00
   19    5   21     -3.24      0.00
  -24    6   21      0.23      0.00
  -22    6   21     -1.54      0.00
  -20    6   21     -1.96      0.00
  -18    6   21     -0.74      0.00
  -16    6   21      1.35      0.00
  -14    6   21      3.33      0.00
  -12    6   21      4.70      0.00
  -10    6   21      5.21      0.00
   -8    6   21      4.79      0.00
   -6    6   21      3.89      0.00
   -4    6   21      3.60      0.00
   -2    6   21      4.46      0.00
    0    6   21      5.50      0.00
    2    6   21      5.30      0.00
    4    6   21      3.92      0.00
    6    6   21      2.80      0.00
    8    6   21      2.68      0.00
   10    6   21      2.79      0.00
   12    6   21      2.27      0.00
   14    6   21      1.18      0.00
   16    6   21      0.00      0.00
   18    6   21     -1.05      0.00
   20    6   21     -1.75      0.00
  -23    7   21      1.15      0.00
  -21    7   21      6.08      0.00
  -19    7   21      7.78      0.00
  -17    7   21      6.26      0.00
  -15    7   21      4.06      0.00
  -13    7   21      2.56      0.00
  -11    7   21      1.41      0.00
   -9    7   21      1.08      0.00
   -7    7   21      2.89      0.00
   -5    7   21      6.00      0.00
   -3    7   21      7.13      0.00
   -1    7   21      4.71      0.00
    1    7   21      1.18      0.00
    3    7   21     -0.24      0.00
    5    7   21      0.54      0.00
    7    7   21      1.35      0.00
    9    7   21      1.15      0.00
   11    7   21      0.73      0.00
   13    7   21      0.82      0.00
   15    7   21      1.07      0.00
   17    7   21      1.00      0.00
  -22    8   21     -1.06      0.00
  -18    8   21      1.39      0.00
  -16    8   21      1.43      0.00
  -14    8   21      0.80      0.00
  -12    8   21      1.43      0.00
  -10    8   21      3.37      0.00
   -8    8   21      3.83      0.00
   -6    8   21      0.54      0.00
   -4    8   21     -4.78      0.00
   -2    8   21     -7.92      0.00
    0    8   21     -6.50      0.00
    2    8   21     -2.18      0.00
    4    8   21      1.44      0.00
    6    8   21      2.22      0.00
    8    8   21      0.76      0.00
   10    8   21     -1.12      0.00
   12    8   21     -2.13      0.00
   14    8   21     -1.93      0.00
   16    8   21     -0.81      0.00
  -19    9   21     -1.46      0.00
  -17    9   21     -1.70      0.00
  -15    9   21     -0.92      0.00
  -13    9   21      0.28      0.00
  -11    9   21      1.26      0.00
   -9    9   21      1.37      0.00
   -7    9   21      0.61      0.00
   -5    9   21      0.25      0.00
   -3    9   21      1.34      0.00
   -1    9   21      2.56      0.00
    1    9   21      1.47      0.00
    3    9   21     -1.88      0.00
    5    9   21     -4.58      0.00
    7    9   21     -4.62      0.00
    9    9   21     -2.84      0.00
   11    9   21     -0.66      0.00
   13    9   21      1.68      0.00
   15    9   21      3.93      0.00
  -18   10   21     -2.66      0.00
  -16   10   21     -5.20      0.00
  -14   10   21     -6.74      0.00
  -12   10   21     -7.44      0.00
  -10   10   21     -7.23      0.00
   -8   10   21     -5.38      0.00
   -6   10   21     -2.50      0.00
   -4   10   21     -0.75      0.00
   -2   10   21     -1.10      0.00
    0   10   21     -1.76      0.00
    2   10   21     -0.94      0.00
    4   10   21      0.57      0.00
    6   10   21      0.99      0.00
    8   10   21      0.14      0.00
   10   10   21     -0.95      0.00
   12   10   21     -1.82      0.00
  -15   11   21      1.80      0.00
  -13   11   21      1.61      0.00
  -11   11   21      1.56      0.00
   -9   11   21      2.05      0.00
   -7   11   21      3.09      0.00
   -5   11   21      3.80      0.00
   -3   11   21      3.18      0.00
   -1   11   21      1.76      0.00
    1   11   21      1.32      0.00
    3   11   21      2.42      0.00
    5   11   21      3.33      0.00
    7   11   21      2.51      0.00
    9   11   21      0.74      0.00
  -10   12   21      6.73      0.00
   -8   12   21      8.86      0.00
   -6   12   21      7.08      0.00
   -4   12   21      3.73      0.00
   -2   12   21      1.46      0.00
    0   12   21     -0.01      0.00
    2   12   21     -1.71      0.00
    4   12   21     -2.36      0.00
    6   12   21     -0.42      0.00
  -26    0   22     -1.63      0.00
  -24    0   22      2.00      0.00
  -22    0   22      6.03      0.00
  -20    0   22      7.32      0.00
  -18    0   22      3.53      0.00
  -16    0   22     -5.12      0.00
  -14    0   22    -14.84      0.00
  -12    0   22    -19.91      0.00
  -10    0   22    -17.24      0.00
   -8    0   22     -9.63      0.00
   -6    0   22     -3.89      0.00
   -4    0   22     -4.83      0.00
   -2    0   22    -11.16      0.00
    0    0   22    -17.15      0.00
    2    0   22    -17.99      0.00
    4    0   22    -13.44      0.00
    6    0   22     -6.54      0.00
    8    0   22     -0.10      0.00
   10    0   22      4.60      0.00
   12    0   22      6.45      0.00
   14    0   22      4.50      0.00
   16    0   22      0.34      0.00
   18    0   22     -1.87      0.00
   20    0   22      0.19      0.00
   22    0   22      3.89      0.00
  -27    1   22      4.38      0.00
  -25    1   22      3.20      0.00
  -23    1   22      0.59      0.00
  -21    1   22     -1.66      0.00
  -19    1   22     -1.90      0.00
  -17    1   22      0.16      0.00
  -15    1   22      3.10      0.00
  -13    1   22      4.61      0.00
  -11    1   22      3.20      0.00
   -9    1   22     -0.56      0.00
   -7    1   22     -4.43      0.00
   -5    1   22     -6.34      0.00
   -3    1   22     -5.98      0.00
   -1    1   22     -4.81      0.00
    1    1   22     -4.41      0.00
    3    1   22     -5.07      0.00
    5    1   22     -5.86      0.00
    7    1   22     -5.87      0.00
    9    1   22     -5.00      0.00
   11    1   22     -3.38      0.00
   13    1   22     -0.98      0.00
   15    1   22      1.81      0.00
   17    1   22      3.51      0.00
   19    1   22      2.74      0.00
   21    1   22      0.21      0.00
  -26    2   22      2.90      0.00
  -24    2   22      1.44      0.00
  -22    2   22     -0.91      0.00
  -20    2   22     -2.87      0.00
  -18    2   22     -3.18      0.00
  -16    2   22     -1.43      0.00
  -14    2   22      1.18      0.00
  -12    2   22      2.32      0.00
  -10    2   22      0.48      0.00
   -8    2   22     -3.38      0.00
   -6    2   22     -6.44      0.00
   -4    2   22     -6.35      0.00
   -2    2   22     -3.13      0.00
    0    2   22      0.98      0.00
    2    2   22      3.59      0.00
    4    2   22      4.06      0.00
    6    2   22      3.41      0.00
    8    2   22      2.53      0.00
   10    2   22      1.51      0.00
   12    2   22      0.68      0.00
   14    2   22      1.05      0.00
   16    2   22      2.81      0.00
   18    2   22      4.53      0.00
   20    2   22      4.71      0.00
   22    2   22      3.66      0.00
  -25    3   22     -7.04      0.00
  -23    3   22     -4.89      0.00
  -21    3   22     -1.06      0.00
  -19    3   22      0.53      0.00
  -17    3   22     -2.06      0.00
  -15    3   22     -6.65      0.00
  -13    3   22     -9.10      0.00
  -11    3   22     -7.20      0.00
   -9    3   22     -2.40      0.00
   -7    3   22      1.81      0.00
   -5    3   22      2.73      0.00
   -3    3   22      0.26      0.00
   -1    3   22     -3.23      0.00
    1    3   22     -4.73      0.00
    3    3   22     -3.14      0.00
    5    3   22     -0.15      0.00
    7    3   22      1.78      0.00
    9    3   22      1.99      0.00
   11    3   22      1.56      0.00
   13    3   22      1.35      0.00
   15    3   22      1.27      0.00
   17    3   22      1.53      0.00
   19    3   22      2.68      0.00
   21    3   22      4.10      0.00
  -24    4   22      0.99      0.00
  -22    4   22     -3.29      0.00
  -20    4   22     -6.78      0.00
  -18    4   22     -6.55      0.00
  -16    4   22     -3.30      0.00
  -14    4   22     -0.55      0.00
  -12    4   22     -0.90      0.00
  -10    4   22     -3.87      0.00
   -8    4   22     -7.11      0.00
   -6    4   22     -8.77      0.00
   -4    4   22     -8.59      0.00
   -2    4   22     -7.39      0.00
    0    4   22     -6.18      0.00
    2    4   22     -5.61      0.00
    4    4   22     -5.84      0.00
    6    4   22     -6.39      0.00
    8    4   22     -6.35      0.00
   10    4   22     -5.09      0.00
   12    4   22     -2.85      0.00
   14    4   22     -0.51      0.00
   16    4   22      1.17      0.00
   18    4   22      1.97      0.00
   20    4   22      2.07      0.00
  -25    5   22     -5.73      0.00
  -23    5   22     -9.34      0.00
  -21    5   22    -10.72      0.00
  -19    5   22     -8.58      0.00
  -17    5   22     -4.09      0.00
  -15    5   22      0.12      0.00
  -13    5   22      2.18      0.00
  -11    5   22      2.02      0.00
   -9    5   22      0.44      0.00
   -7    5   22     -1.72      0.00
   -5    5   22     -3.36      0.00
   -3    5   22     -3.20      0.00
   -1    5   22     -1.27      0.00
    1    5   22      0.67      0.00
    3    5   22      1.28      0.00
    5    5   22      1.42      0.00
    7    5   22      2.63      0.00
    9    5   22      4.50      0.00
   11    5   22      5.00      0.00
   13    5   22      3.35      0.00
   15    5   22      0.94      0.00
   17    5   22     -0.55      0.00
   19    5   22     -0.86      0.00
  -24    6   22     -2.35      0.00
  -22    6   22      0.56      0.00
  -20    6   22      2.11      0.00
  -18    6   22      0.59      0.00
  -16    6   22     -2.17      0.00
  -14    6   22     -3.54      0.00
  -12    6   22     -3.14      0.00
  -10    6   22     -1.99      0.00
   -8    6   22     -0.25      0.00
   -6    6   22      2.12      0.00
   -4    6   22      3.48      0.00
   -2    6   22      1.79      0.00
    0    6   22     -2.20      0.00
    2    6   22     -4.89      0.00
    4    6   22     -3.71      0.00
    6    6   22      0.27      0.00
    8    6   22      4.07      0.00
   10    6   22      5.87      0.00
   12    6   22      5.69      0.00
   14    6   22      4.11      0.00
   16    6   22      1.74      0.00
   18    6   22     -0.36      0.00
  -23    7   22      1.20      0.00
  -21    7   22     -0.77      0.00
  -19    7   22     -2.50      0.00
  -17    7   22     -3.06      0.00
  -15    7   22     -2.48      0.00
  -13    7   22     -1.03      0.00
  -11    7   22      0.87      0.00
   -9    7   22      2.21      0.00
   -7    7   22      1.97      0.00
   -5    7   22      0.22      0.00
   -3    7   22     -1.59      0.00
   -1    7   22     -1.81      0.00
    1    7   22     -0.28      0.00
    3    7   22      1.41      0.00
    5    7   22      1.60      0.00
    7    7   22      0.48      0.00
    9    7   22     -0.38      0.00
   11    7   22     -0.08      0.00
   13    7   22      0.76      0.00
   15    7   22      1.25      0.00
   17    7   22      1.38      0.00
  -18    8   22     -0.66      0.00
  -16    8   22     -1.13      0.00
  -14    8   22     -0.97      0.00
  -12    8   22      0.12      0.00
  -10    8   22      1.53      0.00
   -8    8   22      1.67      0.00
   -6    8   22      0.37      0.00
   -4    8   22     -0.23      0.00
   -2    8   22      1.45      0.00
    0    8   22      3.68      0.00
    2    8   22      3.60      0.00
    4    8   22      1.10      0.00
    6    8   22     -1.40      0.00
    8    8   22     -2.18      0.00
   10    8   22     -1.43      0.00
   12    8   22      0.13      0.00
   14    8   22      1.84      0.00
   16    8   22      2.62      0.00
  -19    9   22      3.29      0.00
  -17    9   22      5.82      0.00
  -15    9   22      8.15      0.00
  -13    9   22      8.23      0.00
  -11    9   22      5.17      0.00
   -9    9   22      1.45      0.00
   -7    9   22      0.60      0.00
   -5    9   22      2.95      0.00
   -3    9   22      5.24      0.00
   -1    9   22      4.55      0.00
    1    9   22      1.10      0.00
    3    9   22     -2.67      0.00
    5    9   22     -4.55      0.00
    7    9   22     -4.05      0.00
    9    9   22     -2.34      0.00
   11    9   22     -1.36      0.00
   13    9   22     -2.21      0.00
   15    9   22     -4.06      0.00
  -16   10   22      1.63      0.00
  -14   10   22      0.36      0.00
  -12   10   22     -0.17      0.00
  -10   10   22      0.81      0.00
   -8   10   22      2.67      0.00
   -6   10   22      3.41      0.00
   -4   10   22      1.31      0.00
   -2   10   22     -2.64      0.00
    0   10   22     -5.02      0.00
    2   10   22     -3.91      0.00
    4   10   22     -1.48      0.00
    6   10   22     -1.07      0.00
    8   10   22     -2.91      0.00
   10   10   22     -4.51      0.00
   12   10   22     -4.24      0.00
  -13   11   22     -6.20      0.00
  -11   11   22     -1.04      0.00
   -9   11   22      2.62      0.00
   -7   11   22      2.14      0.00
   -5   11   22     -0.90      0.00
   -3   11   22     -3.12      0.00
   -1   11   22     -3.72      0.00
    1   11   22     -4.23      0.00
    3   11   22     -4.94      0.00
    5   11   22     -4.41      0.00
    7   11   22     -2.44      0.00
    9   11   22     -0.70      0.00
  -10   12   22     -6.00      0.00
   -8   12   22     -5.92      0.00
   -6   12   22     -4.66      0.00
   -4   12   22     -3.28      0.00
   -2   12   22     -2.17      0.00
    0   12   22     -1.57      0.00
    2   12   22     -1.72      0.00
    4   12   22     -2.06      0.00
  -25    1   23      4.28      0.00
  -23    1   23      4.07      0.00
  -21    1   23      2.39      0.00
  -19    1   23      0.32      0.00
  -17    1   23     -0.32      0.00
  -15    1   23      1.10      0.00
  -13    1   23      2.77      0.00
  -11    1   23      1.90      0.00
   -9    1   23     -2.05      0.00
   -7    1   23     -6.39      0.00
   -5    1   23     -7.64      0.00
   -3    1   23     -4.76      0.00
   -1    1   23     -0.14      0.00
    1    1   23      2.51      0.00
    3    1   23      1.39      0.00
    5    1   23     -2.13      0.00
    7    1   23     -5.50      0.00
    9    1   23     -7.25      0.00
   11    1   23     -6.83      0.00
   13    1   23     -3.66      0.00
   15    1   23      1.72      0.00
   17    1   23      6.23      0.00
   19    1   23      6.55      0.00
   21    1   23      3.06      0.00
  -26    2   23     -1.24      0.00
  -24    2   23      0.08      0.00
  -22    2   23      2.94      0.00
  -20    2   23      5.44      0.00
  -18    2   23      5.29      0.00
  -16    2   23      1.85      0.00
  -14    2   23     -3.05      0.00
  -12    2   23     -6.59      0.00
  -10    2   23     -7.28      0.00
   -8    2   23     -5.79      0.00
   -6    2   23     -3.96      0.00
   -4    2   23     -3.12      0.00
   -2    2   23     -3.26      0.00
    0    2   23     -3.42      0.00
    2    2   23     -2.81      0.00
    4    2   23     -1.74      0.00
    6    2   23     -1.09      0.00
    8    2   23     -1.01      0.00
   10    2   23     -0.81      0.00
   12    2   23     -0.31      0.00
   14    2   23     -0.24      0.00
   16    2   23     -0.82      0.00
   18    2   23     -0.96      0.00
   20    2   23      0.02      0.00
  -25    3   23      2.94      0.00
  -23    3   23      2.57      0.00
  -21    3   23      2.49      0.00
  -19    3   23      2.60      0.00
  -17    3   23      1.92      0.00
  -15    3   23     -0.38      0.00
  -13    3   23     -3.59      0.00
  -11    3   23     -5.82      0.00
   -9    3   23     -5.89      0.00
   -7    3   23     -4.46      0.00
   -5    3   23     -3.38      0.00
   -3    3   23     -3.79      0.00
   -1    3   23     -5.02      0.00
    1    3   23     -5.28      0.00
    3    3   23     -3.77      0.00
    5    3   23     -1.67      0.00
    7    3   23     -0.78      0.00
    9    3   23     -1.51      0.00
   11    3   23     -2.77      0.00
   13    3   23     -3.45      0.00
   15    3   23     -3.30      0.00
   17    3   23     -2.39      0.00
   19    3   23     -0.87      0.00
   21    3   23      0.83      0.00
  -24    4   23      7.46      0.00
  -22    4   23      4.55      0.00
  -20    4   23      1.16      0.00
  -18    4   23      0.12      0.00
  -16    4   23      1.64      0.00
  -14    4   23      3.35      0.00
  -12    4   23      3.03      0.00
  -10    4   23      0.54      0.00
   -8    4   23     -2.79      0.00
   -6    4   23     -5.44      0.00
   -4    4   23     -6.24      0.00
   -2    4   23     -4.90      0.00
    0    4   23     -2.60      0.00
    2    4   23     -1.24      0.00
    4    4   23     -1.34      0.00
    6    4   23     -1.65      0.00
    8    4   23     -1.34      0.00
   10    4   23     -1.32      0.00
   12    4   23     -2.46      0.00
   14    4   23     -3.80      0.00
   16    4   23     -3.76      0.00
   18    4   23     -2.34      0.00
   20    4   23     -0.80      0.00
  -23    5   23      3.63      0.00
  -21    5   23      6.64      0.00
  -19    5   23      7.48      0.00
  -17    5   23      4.72      0.00
  -15    5   23      0.50      0.00
  -13    5   23     -2.29      0.00
  -11    5   23     -2.80      0.00
   -9    5   23     -1.87      0.00
   -7    5   23     -0.41      0.00
   -5    5   23      0.81      0.00
   -3    5   23      0.88      0.00
   -1    5   23     -0.56      0.00
    1    5   23     -2.43      0.00
    3    5   23     -3.11      0.00
    5    5   23     -2.23      0.00
    7    5   23     -0.92      0.00
    9    5   23     -0.18      0.00
   11    5   23      0.33      0.00
   13    5   23      1.34      0.00
   15    5   23      2.65      0.00
   17    5   23      3.28      0.00
   19    5   23      2.81      0.00
  -22    6   23     -1.07      0.00
  -20    6   23     -0.90      0.00
  -18    6   23     -0.90      0.00
  -16    6   23     -1.15      0.00
  -14    6   23     -1.57      0.00
  -12    6   23     -1.90      0.00
  -10    6   23     -1.87      0.00
   -8    6   23     -1.44      0.00
   -6    6   23     -1.21      0.00
   -4    6   23     -2.06      0.00
   -2    6   23     -3.95      0.00
    0    6   23     -5.45      0.00
    2    6   23     -5.14      0.00
    4    6   23     -3.50      0.00
    6    6   23     -2.25      0.00
    8    6   23     -2.12      0.00
   10    6   23     -2.22      0.00
   12    6   23     -1.70      0.00
   14    6   23     -0.71      0.00
   16    6   23      0.25      0.00
   18    6   23      1.03      0.00
  -21    7   23     -8.04      0.00
  -19    7   23    -10.59      0.00
  -17    7   23     -8.78      0.00
  -15    7   23     -4.62      0.00
  -13    7   23     -0.58      0.00
  -11    7   23      1.85      0.00
   -9    7   23      1.56      0.00
   -7    7   23     -1.70      0.00
   -5    7   23     -5.71      0.00
   -3    7   23     -7.02      0.00
   -1    7   23     -4.80      0.00
    1    7   23     -1.94      0.00
    3    7   23     -1.34      0.00
    5    7   23     -2.63      0.00
    7    7   23     -3.41      0.00
    9    7   23     -2.63      0.00
   11    7   23     -1.29      0.00
   13    7   23     -0.55      0.00
   15    7   23     -0.61      0.00
   17    7   23     -1.05      0.00
  -18    8   23      0.63      0.00
  -16    8   23      0.54      0.00
  -14    8   23      0.19      0.00
  -12    8   23     -1.34      0.00
  -10    8   23     -3.43      0.00
   -8    8   23     -3.60      0.00
   -6    8   23     -0.38      0.00
   -4    8   23      4.31      0.00
   -2    8   23      6.62      0.00
    0    8   23      4.57      0.00
    2    8   23     -0.07      0.00
    4    8   23     -3.62      0.00
    6    8   23     -3.91      0.00
    8    8   23     -1.68      0.00
   10    8   23      0.80      0.00
   12    8   23      1.94      0.00
   14    8   23      1.64      0.00
   16    8   23      0.58      0.00
  -17    9   23      3.55      0.00
  -15    9   23      2.56      0.00
  -13    9   23      1.00      0.00
  -11    9   23      0.19      0.00
   -9    9   23      0.82      0.00
   -7    9   23      2.08      0.00
   -5    9   23      2.00      0.00
   -3    9   23     -0.09      0.00
   -1    9   23     -1.78      0.00
    1    9   23     -0.19      0.00
    3    9   23      3.95      0.00
    5    9   23      6.79      0.00
    7    9   23      6.01      0.00
    9    9   23      2.93      0.00
   11    9   23     -0.12      0.00
   13    9   23     -2.33      0.00
  -16   10   23      3.28      0.00
  -14   10   23      6.59      0.00
  -12   10   23      9.09      0.00
  -10   10   23      9.06      0.00
   -8   10   23      5.87      0.00
   -6   10   23      1.62      0.00
   -4   10   23     -0.48      0.00
   -2   10   23      0.19      0.00
    0   10   23      1.10      0.00
    2   10   23      0.21      0.00
    4   10   23     -1.46      0.00
    6   10   23     -1.89      0.00
    8   10   23     -0.74      0.00
   10   10   23      1.02      0.00
  -13   11   23     -3.15      0.00
  -11   11   23     -3.57      0.00
   -9   11   23     -4.30      0.00
   -7   11   23     -5.27      0.00
   -5   11   23     -5.45      0.00
   -3   11   23     -3.72      0.00
   -1   11   23     -0.88      0.00
    1   11   23      0.54      0.00
    3   11   23     -0.62      0.00
    5   11   23     -2.71      0.00
    7   11   23     -3.48      0.00
   -8   12   23     -7.96      0.00
   -6   12   23     -4.42      0.00
   -4   12   23     -0.57      0.00
   -2   12   23      1.02      0.00
    0   12   23      1.18      0.00
    2   12   23      1.48      0.00
  -26    0   24     -3.24      0.00
  -24    0   24     -7.11      0.00
  -22    0   24     -9.79      0.00
  -20    0   24     -9.57      0.00
  -18    0   24     -5.26      0.00
  -16    0   24      2.88      0.00
  -14    0   24     11.83      0.00
  -12    0   24     17.00      0.00
  -10    0   24     15.96      0.00
   -8    0   24     10.97      0.00
   -6    0   24      7.14      0.00
   -4    0   24      8.14      0.00
   -2    0   24     13.20      0.00
    0    0   24     17.87      0.00
    2    0   24     17.87      0.00
    4    0   24     12.83      0.00
    6    0   24      6.00      0.00
    8    0   24      0.74      0.00
   10    0   24     -1.71      0.00
   12    0   24     -1.36      0.00
   14    0   24      1.26      0.00
   16    0   24      3.95      0.00
   18    0   24      3.52      0.00
   20    0   24     -0.50      0.00
  -25    1   24     -2.31      0.00
  -23    1   24      0.33      0.00
  -21    1   24      2.20      0.00
  -19    1   24      2.15      0.00
  -17    1   24      0.27      0.00
  -15    1   24     -2.11      0.00
  -13    1   24     -3.18      0.00
  -11    1   24     -1.86      0.00
   -9    1   24      1.42      0.00
   -7    1   24      5.13      0.00
   -5    1   24      7.81      0.00
   -3    1   24      8.92      0.00
   -1    1   24      8.98      0.00
    1    1   24      8.86      0.00
    3    1   24      8.89      0.00
    5    1   24      8.57      0.00
    7    1   24      7.36      0.00
    9    1   24      5.42      0.00
   11    1   24      3.29      0.00
   13    1   24      1.22      0.00
   15    1   24     -0.55      0.00
   17    1   24     -1.22      0.00
   19    1   24     -0.26      0.00
   21    1   24      1.36      0.00
  -26    2   24     -2.83      0.00
  -24    2   24     -2.06      0.00
  -22    2   24     -0.35      0.00
  -20    2   24      1.54      0.00
  -18    2   24      2.12      0.00
  -16    2   24      0.51      0.00
  -14    2   24     -2.16      0.00
  -12    2   24     -3.38      0.00
  -10    2   24     -1.72      0.00
   -8    2   24      1.79      0.00
   -6    2   24      4.67      0.00
   -4    2   24      5.05      0.00
   -2    2   24      2.94      0.00
    0    2   24      0.07      0.00
    2    2   24     -1.56      0.00
    4    2   24     -1.46      0.00
    6    2   24     -0.65      0.00
    8    2   24      0.01      0.00
   10    2   24      0.53      0.00
   12    2   24      0.76      0.00
   14    2   24     -0.08      0.00
   16    2   24     -1.96      0.00
   18    2   24     -3.37      0.00
   20    2   24     -3.14      0.00
  -25    3   24      4.09      0.00
  -23    3   24      2.49      0.00
  -21    3   24     -0.36      0.00
  -19    3   24     -1.75      0.00
  -17    3   24     -0.04      0.00
  -15    3   24      3.34      0.00
  -13    3   24      5.27      0.00
  -11    3   24      4.14      0.00
   -9    3   24      0.96      0.00
   -7    3   24     -2.01      0.00
   -5    3   24     -3.16      0.00
   -3    3   24     -1.99      0.00
   -1    3   24      0.68      0.00
    1    3   24      3.02      0.00
    3    3   24      3.55      0.00
    5    3   24      2.59      0.00
    7    3   24      1.48      0.00
    9    3   24      0.71      0.00
   11    3   24     -0.24      0.00
   13    3   24     -1.38      0.00
   15    3   24     -2.15      0.00
   17    3   24     -2.61      0.00
   19    3   24     -3.36      0.00
  -24    4   24      0.45      0.00
  -22    4   24      3.85      0.00
  -20    4   24      5.69      0.00
  -18    4   24      4.28      0.00
  -16    4   24      1.05      0.00
  -14    4   24     -0.96      0.00
  -12    4   24     -0.21      0.00
  -10    4   24      2.36      0.00
   -8    4   24      4.85      0.00
   -6    4   24      6.23      0.00
   -4    4   24      6.56      0.00
   -2    4   24      6.32      0.00
    0    4   24      5.95      0.00
    2    4   24      5.81      0.00
    4    4   24      6.09      0.00
    6    4   24      6.41      0.00
    8    4   24      5.83      0.00
   10    4   24      3.86      0.00
   12    4   24      1.17      0.00
   14    4   24     -0.93      0.00
   16    4   24     -1.74      0.00
   18    4   24     -1.54      0.00
  -23    5   24      4.28      0.00
  -21    5   24      5.72      0.00
  -19    5   24      5.78      0.00
  -17    5   24      4.16      0.00
  -15    5   24      1.94      0.00
  -13    5   24      0.58      0.00
  -11    5   24      0.67      0.00
   -9    5   24      1.93      0.00
   -7    5   24      3.76      0.00
   -5    5   24      5.20      0.00
   -3    5   24      5.17      0.00
   -1    5   24      3.59      0.00
    1    5   24      1.86      0.00
    3    5   24      1.15      0.00
    5    5   24      0.81      0.00
    7    5   24     -0.36      0.00
    9    5   24     -1.95      0.00
   11    5   24     -2.39      0.00
   13    5   24     -1.23      0.00
   15    5   24      0.35      0.00
   17    5   24      1.21      0.00
   19    5   24      1.28      0.00
  -22    6   24     -3.46      0.00
  -20    6   24     -5.06      0.00
  -18    6   24     -3.33      0.00
  -16    6   24      0.11      0.00
  -14    6   24      2.35      0.00
  -12    6   24      2.45      0.00
  -10    6   24      1.29      0.00
   -8    6   24     -0.34      0.00
   -6    6   24     -1.95      0.00
   -4    6   24     -2.28      0.00
   -2    6   24     -0.18      0.00
    0    6   24      3.28      0.00
    2    6   24      5.11      0.00
    4    6   24      3.44      0.00
    6    6   24     -0.50      0.00
    8    6   24     -4.04      0.00
   10    6   24     -5.71      0.00
   12    6   24     -5.71      0.00
   14    6   24     -4.66      0.00
   16    6   24     -2.98      0.00
   18    6   24     -1.26      0.00
  -21    7   24      3.31      0.00
  -19    7   24      4.75      0.00
  -17    7   24      4.29      0.00
  -15    7   24      2.46      0.00
  -13    7   24      0.10      0.00
  -11    7   24     -1.99      0.00
   -9    7   24     -2.92      0.00
   -7    7   24     -2.05      0.00
   -5    7   24      0.09      0.00
   -3    7   24      1.77      0.00
   -1    7   24      1.33      0.00
    1    7   24     -1.10      0.00
    3    7   24     -3.47      0.00
    5    7   24     -3.80      0.00
    7    7   24     -2.40      0.00
    9    7   24     -1.34      0.00
   11    7   24     -1.81      0.00
   13    7   24     -2.98      0.00
   15    7   24     -3.44      0.00
  -18    8   24      1.83      0.00
  -16    8   24      1.36      0.00
  -14    8   24     -0.33      0.00
  -12    8   24     -2.28      0.00
  -10    8   24     -3.05      0.00
   -8    8   24     -1.75      0.00
   -6    8   24      0.39      0.00
   -4    8   24      0.76      0.00
   -2    8   24     -1.30      0.00
    0    8   24     -3.18      0.00
    2    8   24     -2.21      0.00
    4    8   24      0.85      0.00
    6    8   24      3.06      0.00
    8    8   24      2.83      0.00
   10    8   24      0.92      0.00
   12    8   24     -1.29      0.00
   14    8   24     -2.73      0.00
  -17    9   24     -8.43      0.00
  -15    9   24     -8.75      0.00
  -13    9   24     -6.17      0.00
  -11    9   24     -1.86      0.00
   -9    9   24      1.20      0.00
   -7    9   24      0.83      0.00
   -5    9   24     -1.90      0.00
   -3    9   24     -3.81      0.00
   -1    9   24     -2.82      0.00
    1    9   24      0.46      0.00
    3    9   24      4.02      0.00
    5    9   24      6.15      0.00
    7    9   24      6.26      0.00
    9    9   24      5.08      0.00
   11    9   24      4.05      0.00
   13    9   24      3.99      0.00
  -16   10   24     -1.68      0.00
  -14   10   24     -0.15      0.00
  -12   10   24      0.50      0.00
  -10   10   24     -0.64      0.00
   -8   10   24     -2.86      0.00
   -6   10   24     -3.80      0.00
   -4   10   24     -1.50      0.00
   -2   10   24      2.83      0.00
    0   10   24      5.31      0.00
    2   10   24      3.87      0.00
    4   10   24      0.82      0.00
    6   10   24     -0.16      0.00
    8   10   24      1.54      0.00
   10   10   24      3.51      0.00
  -11   11   24     -0.33      0.00
   -9   11   24     -1.40      0.00
   -7   11   24      1.54      0.00
   -5   11   24      5.49      0.00
   -3   11   24      7.11      0.00
   -1   11   24      6.67      0.00
    1   11   24      6.44      0.00
    3   11   24      6.78      0.00
    5   11   24      6.12      0.00
    7   11   24      4.12      0.00
   -6   12   24      5.39      0.00
   -4   12   24      2.92      0.00
   -2   12   24      1.52      0.00
    0   12   24      1.31      0.00
  -25    1   25     -1.22      0.00
  -23    1   25     -2.18      0.00
  -21    1   25     -2.02      0.00
  -19    1   25     -0.81      0.00
  -17    1   25     -0.17      0.00
  -15    1   25     -1.16      0.00
  -13    1   25     -2.54      0.00
  -11    1   25     -2.16      0.00
   -9    1   25      0.48      0.00
   -7    1   25      3.64      0.00
   -5    1   25      5.03      0.00
   -3    1   25      3.60      0.00
   -1    1   25      0.52      0.00
    1    1   25     -1.55      0.00
    3    1   25     -0.82      0.00
    5    1   25      1.85      0.00
    7    1   25      4.14      0.00
    9    1   25      4.67      0.00
   11    1   25      3.24      0.00
   13    1   25     -0.19      0.00
   15    1   25     -4.77      0.00
   17    1   25     -7.78      0.00
   19    1   25     -6.77      0.00
  -24    2   25     -0.40      0.00
  -22    2   25     -2.23      0.00
  -20    2   25     -4.32      0.00
  -18    2   25     -5.22      0.00
  -16    2   25     -3.82      0.00
  -14    2   25     -0.65      0.00
  -12    2   25      2.55      0.00
  -10    2   25      4.21      0.00
   -8    2   25      3.77      0.00
   -6    2   25      1.75      0.00
   -4    2   25     -0.43      0.00
   -2    2   25     -1.16      0.00
    0    2   25      0.01      0.00
    2    2   25      1.99      0.00
    4    2   25      3.40      0.00
    6    2   25      3.82      0.00
    8    2   25      3.36      0.00
   10    2   25      2.14      0.00
   12    2   25      0.74      0.00
   14    2   25      0.20      0.00
   16    2   25      0.73      0.00
   18    2   25      1.15      0.00
   20    2   25      0.71      0.00
  -25    3   25     -0.56      0.00
  -23    3   25     -0.56      0.00
  -21    3   25     -1.87      0.00
  -19    3   25     -3.62      0.00
  -17    3   25     -3.87      0.00
  -15    3   25     -1.69      0.00
  -13    3   25      1.50      0.00
  -11    3   25      3.37      0.00
   -9    3   25      3.07      0.00
   -7    3   25      1.79      0.00
   -5    3   25      1.34      0.00
   -3    3   25      2.36      0.00
   -1    3   25      3.83      0.00
    1    3   25      4.04      0.00
    3    3   25      2.42      0.00
    5    3   25      0.26      0.00
    7    3   25     -0.63      0.00
    9    3   25      0.25      0.00
   11    3   25      1.97      0.00
   13    3   25      3.49      0.00
   15    3   25      4.16      0.00
   17    3   25      3.60      0.00
   19    3   25      1.85      0.00
  -24    4   25     -7.31      0.00
  -22    4   25     -4.71      0.00
  -20    4   25     -0.53      0.00
  -18    4   25      1.77      0.00
  -16    4   25      0.91      0.00
  -14    4   25     -1.10      0.00
  -12    4   25     -1.58      0.00
  -10    4   25      0.10      0.00
   -8    4   25      2.89      0.00
   -6    4   25      5.45      0.00
   -4    4   25      6.65      0.00
   -2    4   25      5.73      0.00
    0    4   25      3.25      0.00
    2    4   25      1.05      0.00
    4    4   25      0.33      0.00
    6    4   25      0.67      0.00
    8    4   25      1.39      0.00
   10    4   25      2.72      0.00
   12    4   25      4.63      0.00
   14    4   25      5.82      0.00
   16    4   25      5.08      0.00
   18    4   25      2.96      0.00
  -23    5   25     -3.03      0.00
  -21    5   25     -5.43      0.00
  -19    5   25     -6.16      0.00
  -17    5   25     -4.13      0.00
  -15    5   25     -1.06      0.00
  -13    5   25      0.87      0.00
  -11    5   25      1.16      0.00
   -9    5   25      0.58      0.00
   -7    5   25     -0.29      0.00
   -5    5   25     -0.95      0.00
   -3    5   25     -0.60      0.00
   -1    5   25      1.21      0.00
    1    5   25      3.45      0.00
    3    5   25      4.27      0.00
    5    5   25      3.01      0.00
    7    5   25      0.91      0.00
    9    5   25     -0.50      0.00
   11    5   25     -0.98      0.00
   13    5   25     -1.23      0.00
   15    5   25     -1.57      0.00
   17    5   25     -1.69      0.00
  -22    6   25      4.02      0.00
  -20    6   25      3.54      0.00
  -18    6   25      2.33      0.00
  -16    6   25      1.11      0.00
  -14    6   25      0.25      0.00
  -12    6   25     -0.37      0.00
  -10    6   25     -0.84      0.00
   -8    6   25     -1.01      0.00
   -6    6   25     -0.47      0.00
   -4    6   25      1.03      0.00
   -2    6   25      2.98      0.00
    0    6   25      4.10      0.00
    2    6   25      3.51      0.00
    4    6   25      1.96      0.00
    6    6   25      0.91      0.00
    8    6   25      0.70      0.00
   10    6   25      0.50      0.00
   12    6   25     -0.12      0.00
   14    6   25     -0.71      0.00
   16    6   25     -0.94      0.00
  -21    7   25      8.88      0.00
  -19    7   25     10.64      0.00
  -17    7   25      7.72      0.00
  -15    7   25      2.09      0.00
  -13    7   25     -3.00      0.00
  -11    7   25     -5.22      0.00
   -9    7   25     -3.79      0.00
   -7    7   25      0.38      0.00
   -5    7   25      4.56      0.00
   -3    7   25      6.06      0.00
   -1    7   25      4.85      0.00
    1    7   25      3.47      0.00
    3    7   25      3.80      0.00
    5    7   25      4.90      0.00
    7    7   25      4.74      0.00
    9    7   25      2.89      0.00
   11    7   25      0.70      0.00
   13    7   25     -0.47      0.00
   15    7   25     -0.36      0.00
  -16    8   25     -1.24      0.00
  -14    8   25      0.11      0.00
  -12    8   25      1.99      0.00
  -10    8   25      3.62      0.00
   -8    8   25      3.44      0.00
   -6    8   25      0.89      0.00
   -4    8   25     -2.33      0.00
   -2    8   25     -3.48      0.00
    0    8   25     -1.30      0.00
    2    8   25      2.67      0.00
    4    8   25      5.44      0.00
    6    8   25      5.24      0.00
    8    8   25      2.82      0.00
   10    8   25      0.28      0.00
   12    8   25     -0.96      0.00
   14    8   25     -0.92      0.00
  -17    9   25     -3.60      0.00
  -15    9   25     -2.09      0.00
  -13    9   25     -0.79      0.00
  -11    9   25     -1.07      0.00
   -9    9   25     -2.97      0.00
   -7    9   25     -4.60      0.00
   -5    9   25     -3.62      0.00
   -3    9   25     -0.21      0.00
   -1    9   25      2.03      0.00
    1    9   25      0.03      0.00
    3    9   25     -4.71      0.00
    5    9   25     -7.54      0.00
    7    9   25     -6.14      0.00
    9    9   25     -2.44      0.00
   11    9   25      0.62      0.00
  -14   10   25     -7.61      0.00
  -12   10   25     -9.88      0.00
  -10   10   25     -8.20      0.00
   -8   10   25     -2.96      0.00
   -6   10   25      2.22      0.00
   -4   10   25      3.78      0.00
   -2   10   25      2.04      0.00
    0   10   25      0.41      0.00
    2   10   25      0.92      0.00
    4   10   25      2.23      0.00
    6   10   25      2.31      0.00
    8   10   25      0.98      0.00
  -11   11   25      3.01      0.00
   -9   11   25      3.45      0.00
   -7   11   25      4.23      0.00
   -5   11   25      4.33      0.00
   -3   11   25      2.49      0.00
   -1   11   25     -0.49      0.00
    1   11   25     -1.85      0.00
    3   11   25     -0.08      0.00
    5   11   25      3.14      0.00
  -24    0   26      8.12      0.00
  -22    0   26      8.33      0.00
  -20    0   26      6.93      0.00
  -18    0   26      3.80      0.00
  -16    0   26     -1.49      0.00
  -14    0   26     -7.73      0.00
  -12    0   26    -12.12      0.00
  -10    0   26    -12.88      0.00
   -8    0   26    -10.97      0.00
   -6    0   26     -9.05      0.00
   -4    0   26     -9.38      0.00
   -2    0   26    -12.09      0.00
    0    0   26    -14.68      0.00
    2    0   26    -13.94      0.00
    4    0   26     -9.38      0.00
    6    0   26     -3.97      0.00
    8    0   26     -0.84      0.00
   10    0   26     -0.59      0.00
   12    0   26     -2.16      0.00
   14    0   26     -4.33      0.00
   16    0   26     -5.32      0.00
   18    0   26     -3.37      0.00
  -25    1   26      0.10      0.00
  -23    1   26     -1.20      0.00
  -21    1   26     -1.47      0.00
  -19    1   26     -0.67      0.00
  -17    1   26      0.77      0.00
  -15    1   26      2.10      0.00
  -13    1   26      2.42      0.00
  -11    1   26      1.21      0.00
   -9    1   26     -1.39      0.00
   -7    1   26     -4.63      0.00
   -5    1   26     -7.49      0.00
   -3    1   26     -9.07      0.00
   -1    1   26     -9.16      0.00
    1    1   26     -8.45      0.00
    3    1   26     -7.73      0.00
    5    1   26     -7.01      0.00
    7    1   26     -5.77      0.00
    9    1   26     -4.01      0.00
   11    1   26     -2.35      0.00
   13    1   26     -1.15      0.00
   15    1   26     -0.46      0.00
   17    1   26     -0.41      0.00
   19    1   26     -1.06      0.00
  -24    2   26      2.74      0.00
  -22    2   26      1.88      0.00
  -20    2   26     -0.10      0.00
  -18    2   26     -1.33      0.00
  -16    2   26     -0.30      0.00
  -14    2   26      1.97      0.00
  -12    2   26      2.96      0.00
  -10    2   26      1.56      0.00
   -8    2   26     -1.03      0.00
   -6    2   26     -2.91      0.00
   -4    2   26     -3.03      0.00
   -2    2   26     -1.56      0.00
    0    2   26      0.29      0.00
    2    2   26      1.10      0.00
    4    2   26      0.60      0.00
    6    2   26     -0.18      0.00
    8    2   26     -0.44      0.00
   10    2   26     -0.48      0.00
   12    2   26     -0.48      0.00
   14    2   26      0.01      0.00
   16    2   26      1.03      0.00
   18    2   26      1.58      0.00
  -23    3   26     -1.48      0.00
  -21    3   26      0.40      0.00
  -19    3   26      2.02      0.00
  -17    3   26      1.64      0.00
  -15    3   26     -0.28      0.00
  -13    3   26     -1.53      0.00
  -11    3   26     -0.81      0.00
   -9    3   26      1.18      0.00
   -7    3   26      3.14      0.00
   -5    3   26      4.09      0.00
   -3    3   26      3.25      0.00
   -1    3   26      0.41      0.00
    1    3   26     -3.00      0.00
    3    3   26     -4.87      0.00
    5    3   26     -4.52      0.00
    7    3   26     -3.06      0.00
    9    3   26     -1.49      0.00
   11    3   26      0.09      0.00
   13    3   26      1.45      0.00
   15    3   26      2.09      0.00
   17    3   26      2.20      0.00
  -24    4   26     -0.28      0.00
  -22    4   26     -1.60      0.00
  -20    4   26     -1.52      0.00
  -18    4   26      0.36      0.00
  -16    4   26      2.55      0.00
  -14    4   26      3.18      0.00
  -12    4   26      1.86      0.00
  -10    4   26     -0.37      0.00
   -8    4   26     -2.36      0.00
   -6    4   26     -3.68      0.00
   -4    4   26     -4.32      0.00
   -2    4   26     -4.39      0.00
    0    4   26     -4.20      0.00
    2    4   26     -4.29      0.00
    4    4   26     -4.93      0.00
    6    4   26     -5.47      0.00
    8    4   26     -4.72      0.00
   10    4   26     -2.31      0.00
   12    4   26      0.55      0.00
   14    4   26      2.27      0.00
   16    4   26      2.29      0.00
   18    4   26      1.37      0.00
  -23    5   26      1.30      0.00
  -21    5   26     -0.58      0.00
  -19    5   26     -2.72      0.00
  -17    5   26     -3.37      0.00
  -15    5   26     -2.45      0.00
  -13    5   26     -1.40      0.00
  -11    5   26     -1.27      0.00
   -9    5   26     -2.00      0.00
   -7    5   26     -3.16      0.00
   -5    5   26     -4.26      0.00
   -3    5   26     -4.57      0.00
   -1    5   26     -3.81      0.00
    1    5   26     -2.77      0.00
    3    5   26     -2.35      0.00
    5    5   26     -2.28      0.00
    7    5   26     -1.72      0.00
    9    5   26     -0.80      0.00
   11    5   26     -0.39      0.00
   13    5   26     -0.67      0.00
   15    5   26     -1.02      0.00
   17    5   26     -1.12      0.00
  -22    6   26      5.45      0.00
  -20    6   26      7.05      0.00
  -18    6   26      5.38      0.00
  -16    6   26      1.71      0.00
  -14    6   26     -1.00      0.00
  -12    6   26     -1.35      0.00
  -10    6   26     -0.21      0.00
   -8    6   26      1.03      0.00
   -6    6   26      1.59      0.00
   -4    6   26      0.89      0.00
   -2    6   26     -1.23      0.00
    0    6   26     -3.63      0.00
    2    6   26     -4.32      0.00
    4    6   26     -2.51      0.00
    6    6   26      0.37      0.00
    8    6   26      2.33      0.00
   10    6   26      2.79      0.00
   12    6   26      2.54      0.00
   14    6   26      2.26      0.00
   16    6   26      1.87      0.00
  -19    7   26     -4.72      0.00
  -17    7   26     -3.42      0.00
  -15    7   26     -0.89      0.00
  -13    7   26      1.69      0.00
  -11    7   26      3.36      0.00
   -9    7   26      3.51      0.00
   -7    7   26      2.07      0.00
   -5    7   26     -0.03      0.00
   -3    7   26     -1.15      0.00
   -1    7   26     -0.11      0.00
    1    7   26      2.52      0.00
    3    7   26      4.63      0.00
    5    7   26      4.56      0.00
    7    7   26      2.96      0.00
    9    7   26      2.02      0.00
   11    7   26      2.78      0.00
   13    7   26      4.12      0.00
   15    7   26      4.41      0.00
  -16    8   26      2.33      0.00
  -14    8   26      4.35      0.00
  -12    8   26      5.37      0.00
  -10    8   26      4.30      0.00
   -8    8   26      1.41      0.00
   -6    8   26     -1.19      0.00
   -4    8   26     -1.29      0.00
   -2    8   26      0.77      0.00
    0    8   26      2.16      0.00
    2    8   26      0.96      0.00
    4    8   26     -1.55      0.00
    6    8   26     -2.83      0.00
    8    8   26     -2.15      0.00
   10    8   26     -0.59      0.00
   12    8   26      0.79      0.00
  -17    9   26      8.92      0.00
  -15    9   26      7.86      0.00
  -13    9   26      4.36      0.00
  -11    9   26      0.47      0.00
   -9    9   26     -1.40      0.00
   -7    9   26     -0.49      0.00
   -5    9   26      1.51      0.00
   -3    9   26      2.32      0.00
   -1    9   26      1.04      0.00
    1    9   26     -1.74      0.00
    3    9   26     -4.93      0.00
    5    9   26     -7.45      0.00
    7    9   26     -8.40      0.00
    9    9   26     -7.67      0.00
   11    9   26     -6.14      0.00
  -14   10   26     -0.27      0.00
  -12   10   26     -0.78      0.00
  -10   10   26      0.44      0.00
   -8   10   26      2.69      0.00
   -6   10   26      3.60      0.00
   -4   10   26      1.33      0.00
   -2   10   26     -2.69      0.00
    0   10   26     -4.57      0.00
    2   10   26     -2.46      0.00
    4   10   26      1.05      0.00
    6   10   26      2.13      0.00
    8   10   26      0.11      0.00
   -9   11   26     -1.67      0.00
   -7   11   26     -5.98      0.00
   -5   11   26     -9.14      0.00
   -3   11   26     -8.73      0.00
   -1   11   26     -6.54      0.00
    1   11   26     -5.62      0.00
    3   11   26     -6.14      0.00
  -23    1   27      2.78      0.00
  -21    1   27      3.68      0.00
  -19    1   27      2.19      0.00
  -17    1   27      0.41      0.00
  -15    1   27      0.30      0.00
  -13    1   27      1.35      0.00
  -11    1   27      1.79      0.00
   -9    1   27      0.80      0.00
   -7    1   27     -1.08      0.00
   -5    1   27     -2.71      0.00
   -3    1   27     -2.88      0.00
   -1    1   27     -1.38      0.00
    1    1   27      0.23      0.00
    3    1   27      0.12      0.00
    5    1   27     -1.42      0.00
    7    1   27     -2.47      0.00
    9    1   27     -1.84      0.00
   11    1   27      0.24      0.00
   13    1   27      3.34      0.00
   15    1   27      6.67      0.00
   17    1   27      8.25      0.00
  -24    2   27     -1.52      0.00
  -22    2   27     -1.93      0.00
  -20    2   27     -0.63      0.00
  -18    2   27      1.61      0.00
  -16    2   27      2.86      0.00
  -14    2   27      2.10      0.00
  -12    2   27      0.01      0.00
  -10    2   27     -1.80      0.00
   -8    2   27     -1.84      0.00
   -6    2   27      0.23      0.00
   -4    2   27      2.80      0.00
   -2    2   27      3.22      0.00
    0    2   27      0.56      0.00
    2    2   27     -3.19      0.00
    4    2   27     -5.27      0.00
    6    2   27     -4.85      0.00
    8    2   27     -2.91      0.00
   10    2   27     -0.74      0.00
   12    2   27      0.58      0.00
   14    2   27      0.29      0.00
   16    2   27     -1.22      0.00
   18    2   27     -2.39      0.00
  -23    3   27     -1.07      0.00
  -21    3   27      1.55      0.00
  -19    3   27      4.33      0.00
  -17    3   27      4.73      0.00
  -15    3   27      2.35      0.00
  -13    3   27     -0.52      0.00
  -11    3   27     -1.51      0.00
   -9    3   27     -0.65      0.00
   -7    3   27      0.35      0.00
   -5    3   27      0.17      0.00
   -3    3   27     -1.06      0.00
   -1    3   27     -2.14      0.00
    1    3   27     -1.89      0.00
    3    3   27     -0.24      0.00
    5    3   27      1.58      0.00
    7    3   27      2.16      0.00
    9    3   27      1.16      0.00
   11    3   27     -0.74      0.00
   13    3   27     -2.64      0.00
   15    3   27     -3.76      0.00
   17    3   27     -3.44      0.00
  -22    4   27      3.66      0.00
  -20    4   27     -1.48      0.00
  -18    4   27     -4.56      0.00
  -16    4   27     -3.44      0.00
  -14    4   27     -0.33      0.00
  -12    4   27      1.25      0.00
  -10    4   27      0.24      0.00
   -8    4   27     -2.01      0.00
   -6    4   27     -3.95      0.00
   -4    4   27     -4.58      0.00
   -2    4   27     -3.26      0.00
    0    4   27     -0.57      0.00
    2    4   27      1.56      0.00
    4    4   27      1.69      0.00
    6    4   27      0.37      0.00
    8    4   27     -1.13      0.00
   10    4   27     -2.41      0.00
   12    4   27     -3.47      0.00
   14    4   27     -3.74      0.00
   16    4   27     -2.84      0.00
  -21    5   27      1.95      0.00
  -19    5   27      3.34      0.00
  -17    5   27      2.66      0.00
  -15    5   27      0.89      0.00
  -13    5   27     -0.29      0.00
  -11    5   27     -0.32      0.00
   -9    5   27      0.28      0.00
   -7    5   27      0.95      0.00
   -5    5   27      1.25      0.00
   -3    5   27      0.53      0.00
   -1    5   27     -1.43      0.00
    1    5   27     -3.46      0.00
    3    5   27     -3.84      0.00
    5    5   27     -2.20      0.00
    7    5   27     -0.09      0.00
    9    5   27      0.83      0.00
   11    5   27      0.44      0.00
   13    5   27     -0.22      0.00
   15    5   27     -0.46      0.00
  -20    6   27     -4.61      0.00
  -18    6   27     -2.89      0.00
  -16    6   27     -1.22      0.00
  -14    6   27      0.04      0.00
  -12    6   27      0.98      0.00
  -10    6   27      1.47      0.00
   -8    6   27      1.28      0.00
   -6    6   27      0.50      0.00
   -4    6   27     -0.54      0.00
   -2    6   27     -1.45      0.00
    0    6   27     -1.81      0.00
    2    6   27     -1.48      0.00
    4    6   27     -0.91      0.00
    6    6   27     -0.54      0.00
    8    6   27     -0.14      0.00
   10    6   27      0.71      0.00
   12    6   27      1.62      0.00
   14    6   27      1.79      0.00
  -19    7   27     -7.58      0.00
  -17    7   27     -4.06      0.00
  -15    7   27      1.46      0.00
  -13    7   27      5.73      0.00
  -11    7   27      6.73      0.00
   -9    7   27      4.41      0.00
   -7    7   27      0.28      0.00
   -5    7   27     -3.45      0.00
   -3    7   27     -5.24      0.00
   -1    7   27     -5.39      0.00
    1    7   27     -5.41      0.00
    3    7   27     -5.94      0.00
    5    7   27     -5.97      0.00
    7    7   27     -4.43      0.00
    9    7   27     -1.73      0.00
   11    7   27      0.68      0.00
   13    7   27      1.82      0.00
  -16    8   27      1.18      0.00
  -14    8   27     -0.65      0.00
  -12    8   27     -2.43      0.00
  -10    8   27     -3.59      0.00
   -8    8   27     -3.46      0.00
   -6    8   27     -2.02      0.00
   -4    8   27     -0.32      0.00
   -2    8   27      0.15      0.00
    0    8   27     -1.35      0.00
    2    8   27     -3.95      0.00
    4    8   27     -5.79      0.00
    6    8   27     -5.60      0.00
    8    8   27     -3.74      0.00
   10    8   27     -1.65      0.00
   12    8   27     -0.37      0.00
  -15    9   27      0.90      0.00
  -13    9   27      0.73      0.00
  -11    9   27      2.49      0.00
   -9    9   27      5.22      0.00
   -7    9   27      6.34      0.00
   -5    9   27      3.85      0.00
   -3    9   27     -0.92      0.00
   -1    9   27     -3.60      0.00
    1    9   27     -1.35      0.00
    3    9   27      3.57      0.00
    5    9   27      6.27      0.00
    7    9   27      4.70      0.00
    9    9   27      1.17      0.00
  -12   10   27      8.09      0.00
  -10   10   27      4.56      0.00
   -8   10   27     -1.51      0.00
   -6   10   27     -5.92      0.00
   -4   10   27     -5.82      0.00
   -2   10   27     -2.79      0.00
    0   10   27     -0.71      0.00
    2   10   27     -1.09      0.00
    4   10   27     -2.16      0.00
    6   10   27     -2.06      0.00
   -7   11   27     -0.96      0.00
   -5   11   27     -1.78      0.00
   -3   11   27     -0.95      0.00
   -1   11   27      1.08      0.00
    1   11   27      1.83      0.00
  -24    0   28     -4.36      0.00
  -22    0   28     -2.26      0.00
  -20    0   28     -1.11      0.00
  -18    0   28     -0.93      0.00
  -16    0   28      0.34      0.00
  -14    0   28      3.50      0.00
  -12    0   28      7.16      0.00
  -10    0   28      9.57      0.00
   -8    0   28     10.06      0.00
   -6    0   28      8.95      0.00
   -4    0   28      7.57      0.00
   -2    0   28      7.35      0.00
    0    0   28      7.89      0.00
    2    0   28      7.00      0.00
    4    0   28      3.84      0.00
    6    0   28      0.49      0.00
    8    0   28     -0.60      0.00
   10    0   28      0.59      0.00
   12    0   28      2.56      0.00
   14    0   28      4.16      0.00
   16    0   28      4.43      0.00
   18    0   28      2.63      0.00
  -23    1   28      0.57      0.00
  -21    1   28     -0.61      0.00
  -19    1   28     -1.46      0.00
  -17    1   28     -1.73      0.00
  -15    1   28     -1.74      0.00
  -13    1   28     -1.58      0.00
  -11    1   28     -0.94      0.00
   -9    1   28      0.56      0.00
   -7    1   28      2.92      0.00
   -5    1   28      5.38      0.00
   -3    1   28      6.69      0.00
   -1    1   28      6.22      0.00
    1    1   28      4.91      0.00
    3    1   28      4.17      0.00
    5    1   28      4.20      0.00
    7    1   28      4.02      0.00
    9    1   28      3.06      0.00
   11    1   28      1.80      0.00
   13    1   28      0.87      0.00
   15    1   28      0.43      0.00
   17    1   28      0.48      0.00
  -24    2   28     -3.37      0.00
  -22    2   28     -2.89      0.00
  -20    2   28     -0.48      0.00
  -18    2   28      1.39      0.00
  -16    2   28      0.70      0.00
  -14    2   28     -1.37      0.00
  -12    2   28     -2.16      0.00
  -10    2   28     -0.95      0.00
   -8    2   28      0.79      0.00
   -6    2   28      1.65      0.00
   -4    2   28      1.40      0.00
   -2    2   28      0.38      0.00
    0    2   28     -0.71      0.00
    2    2   28     -1.03      0.00
    4    2   28     -0.48      0.00
    6    2   28      0.05      0.00
    8    2   28     -0.02      0.00
   10    2   28     -0.18      0.00
   12    2   28      0.02      0.00
   14    2   28      0.22      0.00
   16    2   28      0.12      0.00
  -23    3   28      2.29      0.00
  -21    3   28      0.93      0.00
  -19    3   28     -1.36      0.00
  -17    3   28     -2.26      0.00
  -15    3   28     -1.42      0.00
  -13    3   28     -0.66      0.00
  -11    3   28     -1.22      0.00
   -9    3   28     -2.51      0.00
   -7    3   28     -3.57      0.00
   -5    3   28     -3.94      0.00
   -3    3   28     -2.96      0.00
   -1    3   28     -0.25      0.00
    1    3   28      2.91      0.00
    3    3   28      4.32      0.00
    5    3   28      3.41      0.00
    7    3   28      1.72      0.00
    9    3   28      0.62      0.00
   11    3   28      0.06      0.00
   13    3   28     -0.28      0.00
   15    3   28     -0.35      0.00
   17    3   28     -0.35      0.00
  -22    4   28     -1.73      0.00
  -20    4   28     -2.86      0.00
  -18    4   28     -4.16      0.00
  -16    4   28     -4.66      0.00
  -14    4   28     -3.85      0.00
  -12    4   28     -2.13      0.00
  -10    4   28     -0.25      0.00
   -8    4   28      1.30      0.00
   -6    4   28      2.29      0.00
   -4    4   28      2.54      0.00
   -2    4   28      2.15      0.00
    0    4   28      1.76      0.00
    2    4   28      2.22      0.00
    4    4   28      3.53      0.00
    6    4   28      4.43      0.00
    8    4   28      3.46      0.00
   10    4   28      0.68      0.00
   12    4   28     -2.17      0.00
   14    4   28     -3.34      0.00
   16    4   28     -2.67      0.00
  -21    5   28     -1.98      0.00
  -19    5   28      1.22      0.00
  -17    5   28      2.46      0.00
  -15    5   28      1.40      0.00
  -13    5   28     -0.07      0.00
  -11    5   28     -0.54      0.00
   -9    5   28     -0.17      0.00
   -7    5   28      0.60      0.00
   -5    5   28      1.71      0.00
   -3    5   28      2.75      0.00
   -1    5   28      3.03      0.00
    1    5   28      2.57      0.00
    3    5   28      2.15      0.00
    5    5   28      2.07      0.00
    7    5   28      2.00      0.00
    9    5   28      1.78      0.00
   11    5   28      1.53      0.00
   13    5   28      1.21      0.00
   15    5   28      0.75      0.00
  -20    6   28     -7.70      0.00
  -18    6   28     -6.65      0.00
  -16    6   28     -3.27      0.00
  -14    6   28     -0.41      0.00
  -12    6   28      0.13      0.00
  -10    6   28     -0.93      0.00
   -8    6   28     -1.84      0.00
   -6    6   28     -1.67      0.00
   -4    6   28     -0.50      0.00
   -2    6   28      1.15      0.00
    0    6   28      2.36      0.00
    2    6   28      2.30      0.00
    4    6   28      1.18      0.00
    6    6   28      0.32      0.00
    8    6   28      0.72      0.00
   10    6   28      1.83      0.00
   12    6   28      2.29      0.00
   14    6   28      1.56      0.00
  -19    7   28      3.21      0.00
  -17    7   28      1.51      0.00
  -15    7   28     -1.16      0.00
  -13    7   28     -3.56      0.00
  -11    7   28     -4.73      0.00
   -9    7   28     -4.31      0.00
   -7    7   28     -2.71      0.00
   -5    7   28     -0.99      0.00
   -3    7   28     -0.30      0.00
   -1    7   28     -1.12      0.00
    1    7   28     -2.77      0.00
    3    7   28     -3.77      0.00
    5    7   28     -3.28      0.00
    7    7   28     -2.11      0.00
    9    7   28     -1.80      0.00
   11    7   28     -2.70      0.00
   13    7   28     -3.64      0.00
  -16    8   28     -6.34      0.00
  -14    8   28     -7.33      0.00
  -12    8   28     -6.71      0.00
  -10    8   28     -4.32      0.00
   -8    8   28     -1.13      0.00
   -6    8   28      0.97      0.00
   -4    8   28      0.71      0.00
   -2    8   28     -1.05      0.00
    0    8   28     -2.07      0.00
    2    8   28     -1.40      0.00
    4    8   28     -0.19      0.00
    6    8   28      0.23      0.00
    8    8   28      0.12      0.00
   10    8   28      0.31      0.00
  -15    9   28     -6.60      0.00
  -13    9   28     -3.77      0.00
  -11    9   28     -1.01      0.00
   -9    9   28      0.13      0.00
   -7    9   28     -0.27      0.00
   -5    9   28     -0.83      0.00
   -3    9   28     -0.51      0.00
   -1    9   28      0.72      0.00
    1    9   28      2.61      0.00
    3    9   28      5.09      0.00
    5    9   28      7.61      0.00
    7    9   28      8.94      0.00
  -10   10   28     -0.49      0.00
   -8   10   28     -2.53      0.00
   -6   10   28     -3.32      0.00
   -4   10   28     -1.40      0.00
   -2   10   28      1.74      0.00
    0   10   28      2.70      0.00
    2   10   28      0.18      0.00
    4   10   28     -3.10      0.00
  -23    1   29     -4.99      0.00
  -21    1   29     -5.52      0.00
  -19    1   29     -2.58      0.00
  -17    1   29      0.65      0.00
  -15    1   29      1.37      0.00
  -13    1   29      0.03      0.00
  -11    1   29     -1.29      0.00
   -9    1   29     -1.35      0.00
   -7    1   29      0.08      0.00
   -5    1   29      2.44      0.00
   -3    1   29      4.08      0.00
   -1    1   29      3.67      0.00
    1    1   29      2.06      0.00
    3    1   29      1.29      0.00
    5    1   29      1.75      0.00
    7    1   29      1.85      0.00
    9    1   29      0.55      0.00
   11    1   29     -1.80      0.00
   13    1   29     -4.57      0.00
   15    1   29     -7.08      0.00
   17    1   29     -7.95      0.00
  -22    2   29      7.28      0.00
  -20    2   29      6.34      0.00
  -18    2   29      2.71      0.00
  -16    2   29     -0.66      0.00
  -14    2   29     -1.65      0.00
  -12    2   29     -0.48      0.00
  -10    2   29      1.13      0.00
   -8    2   29      1.30      0.00
   -6    2   29     -0.65      0.00
   -4    2   29     -3.06      0.00
   -2    2   29     -3.08      0.00
    0    2   29      0.05      0.00
    2    2   29      3.73      0.00
    4    2   29      4.82      0.00
    6    2   29      2.98      0.00
    8    2   29      0.22      0.00
   10    2   29     -1.58      0.00
   12    2   29     -1.60      0.00
   14    2   29      0.09      0.00
   16    2   29      2.42      0.00
  -21    3   29     -1.35      0.00
  -19    3   29     -3.56      0.00
  -17    3   29     -2.82      0.00
  -15    3   29      0.22      0.00
  -13    3   29      2.47      0.00
  -11    3   29      2.11      0.00
   -9    3   29      0.31      0.00
   -7    3   29     -0.73      0.00
   -5    3   29     -0.38      0.00
   -3    3   29      0.46      0.00
   -1    3   29      0.70      0.00
    1    3   29     -0.06      0.00
    3    3   29     -1.45      0.00
    5    3   29     -2.59      0.00
    7    3   29     -2.77      0.00
    9    3   29     -1.94      0.00
   11    3   29     -0.49      0.00
   13    3   29      1.11      0.00
   15    3   29      2.21      0.00
  -22    4   29     -1.33      0.00
  -20    4   29      4.55      0.00
  -18    4   29      7.41      0.00
  -16    4   29      4.89      0.00
  -14    4   29      0.12      0.00
  -12    4   29     -2.31      0.00
  -10    4   29     -1.32      0.00
   -8    4   29      0.92      0.00
   -6    4   29      2.32      0.00
   -4    4   29      2.13      0.00
   -2    4   29      0.35      0.00
    0    4   29     -2.13      0.00
    2    4   29     -3.43      0.00
    4    4   29     -2.51      0.00
    6    4   29     -0.53      0.00
    8    4   29      0.67      0.00
   10    4   29      0.61      0.00
   12    4   29      0.01      0.00
   14    4   29     -0.54      0.00
  -21    5   29      0.95      0.00
  -19    5   29     -1.32      0.00
  -17    5   29     -1.70      0.00
  -15    5   29     -0.60      0.00
  -13    5   29      0.31      0.00
  -11    5   29      0.12      0.00
   -9    5   29     -0.74      0.00
   -7    5   29     -1.42      0.00
   -5    5   29     -1.37      0.00
   -3    5   29     -0.37      0.00
   -1    5   29      1.23      0.00
    1    5   29      2.35      0.00
    3    5   29      1.96      0.00
    5    5   29      0.45      0.00
    7    5   29     -0.58      0.00
    9    5   29     -0.08      0.00
   11    5   29      1.25      0.00
   13    5   29      2.10      0.00
  -20    6   29      3.88      0.00
  -18    6   29      2.57      0.00
  -16    6   29      1.43      0.00
  -14    6   29      0.47      0.00
  -12    6   29     -0.40      0.00
  -10    6   29     -0.79      0.00
   -8    6   29     -0.53      0.00
   -6    6   29     -0.17      0.00
   -4    6   29     -0.30      0.00
   -2    6   29     -0.62      0.00
    0    6   29     -0.46      0.00
    2    6   29      0.40      0.00
    4    6   29      1.49      0.00
    6    6   29      1.95      0.00
    8    6   29      1.17      0.00
   10    6   29     -0.51      0.00
   12    6   29     -1.78      0.00
  -17    7   29      0.54      0.00
  -15    7   29     -3.66      0.00
  -13    7   29     -6.40      0.00
  -11    7   29     -6.36      0.00
   -9    7   29     -4.00      0.00
   -7    7   29     -0.65      0.00
   -5    7   29      2.43      0.00
   -3    7   29      4.58      0.00
   -1    7   29      5.81      0.00
    1    7   29      6.42      0.00
    3    7   29      6.32      0.00
    5    7   29      5.06      0.00
    7    7   29      2.72      0.00
    9    7   29      0.17      0.00
   11    7   29     -1.64      0.00
  -14    8   29      1.00      0.00
  -12    8   29      2.66      0.00
  -10    8   29      3.71      0.00
   -8    8   29      3.92      0.00
   -6    8   29      3.37      0.00
   -4    8   29      2.42      0.00
   -2    8   29      1.70      0.00
    0    8   29      1.81      0.00
    2    8   29      2.81      0.00
    4    8   29      3.94      0.00
    6    8   29      4.24      0.00
    8    8   29      3.47      0.00
   10    8   29      2.16      0.00
  -13    9   29     -1.66      0.00
  -11    9   29     -4.33      0.00
   -9    9   29     -6.81      0.00
   -7    9   29     -6.64      0.00
   -5    9   29     -2.70      0.00
   -3    9   29      2.82      0.00
   -1    9   29      5.53      0.00
    1    9   29      3.25      0.00
    3    9   29     -1.41      0.00
    5    9   29     -3.87      0.00
    7    9   29     -2.60      0.00
   -8   10   29      3.77      0.00
   -6   10   29      5.94      0.00
   -4   10   29      4.09      0.00
   -2   10   29      0.67      0.00
    0   10   29     -0.82      0.00
    2   10   29      0.15      0.00
  -22    0   30     -3.75      0.00
  -20    0   30     -3.49      0.00
  -18    0   30     -0.72      0.00
  -16    0   30      0.90      0.00
  -14    0   30     -0.47      0.00
  -12    0   30     -3.62      0.00
  -10    0   30     -6.50      0.00
   -8    0   30     -7.53      0.00
   -6    0   30     -5.98      0.00
   -4    0   30     -2.90      0.00
   -2    0   30     -0.73      0.00
    0    0   30     -0.43      0.00
    2    0   30     -0.31      0.00
    4    0   30      1.06      0.00
    6    0   30      2.54      0.00
    8    0   30      2.34      0.00
   10    0   30      0.66      0.00
   12    0   30     -1.17      0.00
   14    0   30     -2.40      0.00
   16    0   30     -2.75      0.00
  -23    1   30      1.07      0.00
  -21    1   30      2.32      0.00
  -19    1   30      2.05      0.00
  -17    1   30      0.88      0.00
  -15    1   30      0.21      0.00
  -13    1   30      0.57      0.00
  -11    1   30      1.23      0.00
   -9    1   30      1.07      0.00
   -7    1   30     -0.42      0.00
   -5    1   30     -2.51      0.00
   -3    1   30     -3.58      0.00
   -1    1   30     -2.85      0.00
    1    1   30     -1.51      0.00
    3    1   30     -1.36      0.00
    5    1   30     -2.54      0.00
    7    1   30     -3.49      0.00
    9    1   30     -3.09      0.00
   11    1   30     -1.74      0.00
   13    1   30     -0.48      0.00
   15    1   30      0.15      0.00
  -22    2   30      2.89      0.00
  -20    2   30      0.04      0.00
  -18    2   30     -1.90      0.00
  -16    2   30     -0.88      0.00
  -14    2   30      1.38      0.00
  -12    2   30      1.91      0.00
  -10    2   30      0.43      0.00
   -8    2   30     -1.11      0.00
   -6    2   30     -1.50      0.00
   -4    2   30     -1.08      0.00
   -2    2   30     -0.32      0.00
    0    2   30      0.46      0.00
    2    2   30      0.80      0.00
    4    2   30      0.51      0.00
    6    2   30      0.18      0.00
    8    2   30      0.16      0.00
   10    2   30     -0.03      0.00
   12    2   30     -0.72      0.00
   14    2   30     -1.41      0.00
   16    2   30     -1.57      0.00
  -21    3   30     -2.09      0.00
  -19    3   30      0.66      0.00
  -17    3   30      1.98      0.00
  -15    3   30      1.33      0.00
  -13    3   30      0.76      0.00
  -11    3   30      1.60      0.00
   -9    3   30      2.87      0.00
   -7    3   30      3.39      0.00
   -5    3   30      3.10      0.00
   -3    3   30      2.12      0.00
   -1    3   30      0.41      0.00
    1    3   30     -1.09      0.00
    3    3   30     -1.02      0.00
    5    3   30      0.33      0.00
    7    3   30      1.08      0.00
    9    3   30      0.33      0.00
   11    3   30     -0.94      0.00
   13    3   30     -1.60      0.00
   15    3   30     -1.52      0.00
  -20    4   30      4.20      0.00
  -18    4   30      4.30      0.00
  -16    4   30      3.42      0.00
  -14    4   30      1.95      0.00
  -12    4   30      0.49      0.00
  -10    4   30     -0.71      0.00
   -8    4   30     -1.54      0.00
   -6    4   30     -1.71      0.00
   -4    4   30     -1.03      0.00
   -2    4   30      0.02      0.00
    0    4   30      0.35      0.00
    2    4   30     -0.75      0.00
    4    4   30     -2.62      0.00
    6    4   30     -3.43      0.00
    8    4   30     -1.92      0.00
   10    4   30      1.13      0.00
   12    4   30      3.51      0.00
   14    4   30      3.78      0.00
  -19    5   30     -1.63      0.00
  -17    5   30     -1.75      0.00
  -15    5   30      0.58      0.00
  -13    5   30      2.72      0.00
  -11    5   30      3.18      0.00
   -9    5   30      2.58      0.00
   -7    5   30      1.67      0.00
   -5    5   30      0.27      0.00
   -3    5   30     -1.35      0.00
   -1    5   30     -2.09      0.00
    1    5   30     -1.50      0.00
    3    5   30     -0.45      0.00
    5    5   30      0.02      0.00
    7    5   30     -0.26      0.00
    9    5   30     -0.83      0.00
   11    5   30     -1.16      0.00
   13    5   30     -0.93      0.00
  -18    6   30      6.91      0.00
  -16    6   30      3.83      0.00
  -14    6   30      0.83      0.00
  -12    6   30      0.13      0.00
  -10    6   30      1.27      0.00
   -8    6   30      2.30      0.00
   -6    6   30      2.13      0.00
   -4    6   30      1.14      0.00
   -2    6   30      0.22      0.00
    0    6   30     -0.12      0.00
    2    6   30      0.09      0.00
    4    6   30      0.11      0.00
    6    6   30     -0.97      0.00
    8    6   30     -3.14      0.00
   10    6   30     -5.05      0.00
   12    6   30     -5.22      0.00
  -17    7   30      0.04      0.00
  -15    7   30      2.51      0.00
  -13    7   30      4.65      0.00
  -11    7   30      5.55      0.00
   -9    7   30      5.04      0.00
   -7    7   30      3.73      0.00
   -5    7   30      2.49      0.00
   -3    7   30      1.74      0.00
   -1    7   30      1.39      0.00
    1    7   30      1.18      0.00
    3    7   30      0.87      0.00
    5    7   30      0.53      0.00
    7    7   30      0.59      0.00
    9    7   30      1.28      0.00
   11    7   30      2.05      0.00
  -14    8   30      7.23      0.00
  -12    8   30      5.79      0.00
  -10    8   30      3.61      0.00
   -8    8   30      1.53      0.00
   -6    8   30      0.52      0.00
   -4    8   30      0.96      0.00
   -2    8   30      2.15      0.00
    0    8   30      2.97      0.00
    2    8   30      3.16      0.00
    4    8   30      3.20      0.00
    6    8   30      3.08      0.00
    8    8   30      1.95      0.00
  -11    9   30      1.21      0.00
   -9    9   30      0.02      0.00
   -7    9   30     -0.42      0.00
   -5    9   30     -0.84      0.00
   -3    9   30     -1.44      0.00
   -1    9   30     -1.98      0.00
    1    9   30     -2.68      0.00
    3    9   30     -4.12      0.00
    5    9   30     -6.04      0.00
   -6   10   30      3.12      0.00
   -4   10   30      1.82      0.00
   -2   10   30     -0.27      0.00
    0   10   30     -0.56      0.00
  -21    1   31      5.48      0.00
  -19    1   31      1.19      0.00
  -17    1   31     -2.37      0.00
  -15    1   31     -2.43      0.00
  -13    1   31     -0.34      0.00
  -11    1   31      1.18      0.00
   -9    1   31      0.95      0.00
   -7    1   31     -1.01      0.00
   -5    1   31     -3.96      0.00
   -3    1   31     -6.06      0.00
   -1    1   31     -5.61      0.00
    1    1   31     -3.38      0.00
    3    1   31     -1.78      0.00
    5    1   31     -1.66      0.00
    7    1   31     -1.68      0.00
    9    1   31     -0.61      0.00
   11    1   31      1.40      0.00
   13    1   31      3.79      0.00
   15    1   31      5.91      0.00
  -22    2   31    -10.04      0.00
  -20    2   31     -9.00      0.00
  -18    2   31     -4.90      0.00
  -16    2   31     -1.27      0.00
  -14    2   31     -0.17      0.00
  -12    2   31     -0.99      0.00
  -10    2   31     -1.98      0.00
   -8    2   31     -1.69      0.00
   -6    2   31      0.27      0.00
   -4    2   31      2.45      0.00
   -2    2   31      2.49      0.00
    0    2   31      0.01      0.00
    2    2   31     -2.45      0.00
    4    2   31     -2.35      0.00
    6    2   31     -0.04      0.00
    8    2   31      2.10      0.00
   10    2   31      2.52      0.00
   12    2   31      1.22      0.00
   14    2   31     -1.02      0.00
  -21    3   31      0.55      0.00
  -19    3   31      0.73      0.00
  -17    3   31     -1.90      0.00
  -15    3   31     -5.45      0.00
  -13    3   31     -6.54      0.00
  -11    3   31     -4.31      0.00
   -9    3   31     -1.22      0.00
   -7    3   31      0.21      0.00
   -5    3   31     -0.03      0.00
   -3    3   31     -0.46      0.00
   -1    3   31     -0.13      0.00
    1    3   31      0.85      0.00
    3    3   31      1.91      0.00
    5    3   31      2.60      0.00
    7    3   31      2.75      0.00
    9    3   31      2.43      0.00
   11    3   31      1.69      0.00
   13    3   31      0.57      0.00
  -20    4   31     -7.07      0.00
  -18    4   31     -8.63      0.00
  -16    4   31     -4.20      0.00
  -14    4   31      1.89      0.00
  -12    4   31      4.33      0.00
  -10    4   31      2.52      0.00
   -8    4   31     -0.24      0.00
   -6    4   31     -1.36      0.00
   -4    4   31     -0.57      0.00
   -2    4   31      1.39      0.00
    0    4   31      3.29      0.00
    2    4   31      3.63      0.00
    4    4   31      2.00      0.00
    6    4   31      0.02      0.00
    8    4   31     -0.36      0.00
   10    4   31      0.97      0.00
   12    4   31      2.61      0.00
  -19    5   31      0.95      0.00
  -17    5   31      1.32      0.00
  -15    5   31      0.02      0.00
  -13    5   31     -0.93      0.00
  -11    5   31     -0.35      0.00
   -9    5   31      1.02      0.00
   -7    5   31      1.70      0.00
   -5    5   31      1.13      0.00
   -3    5   31     -0.10      0.00
   -1    5   31     -0.94      0.00
    1    5   31     -0.67      0.00
    3    5   31      0.55      0.00
    5    5   31      1.52      0.00
    7    5   31      0.96      0.00
    9    5   31     -0.95      0.00
   11    5   31     -2.64      0.00
  -18    6   31     -2.09      0.00
  -16    6   31     -1.97      0.00
  -14    6   31     -1.43      0.00
  -12    6   31     -0.46      0.00
  -10    6   31      0.20      0.00
   -8    6   31      0.31      0.00
   -6    6   31      0.67      0.00
   -4    6   31      1.72      0.00
   -2    6   31      2.50      0.00
    0    6   31      1.67      0.00
    2    6   31     -0.73      0.00
    4    6   31     -3.13      0.00
    6    6   31     -3.85      0.00
    8    6   31     -2.49      0.00
   10    6   31     -0.25      0.00
  -15    7   31      4.04      0.00
  -13    7   31      5.75      0.00
  -11    7   31      5.50      0.00
   -9    7   31      3.77      0.00
   -7    7   31      1.36      0.00
   -5    7   31     -1.26      0.00
   -3    7   31     -3.71      0.00
   -1    7   31     -5.42      0.00
    1    7   31     -5.90      0.00
    3    7   31     -5.02      0.00
    5    7   31     -3.18      0.00
    7    7   31     -1.17      0.00
    9    7   31      0.27      0.00
  -14    8   31     -1.33      0.00
  -12    8   31     -2.92      0.00
  -10    8   31     -3.96      0.00
   -8    8   31     -4.25      0.00
   -6    8   31     -3.79      0.00
   -4    8   31     -2.61      0.00
   -2    8   31     -0.97      0.00
    0    8   31      0.36      0.00
    2    8   31      0.62      0.00
    4    8   31     -0.20      0.00
    6    8   31     -1.25      0.00
   -9    9   31      6.71      0.00
   -7    9   31      5.41      0.00
   -5    9   31      1.01      0.00
   -3    9   31     -4.12      0.00
   -1    9   31     -6.35      0.00
    1    9   31     -4.25      0.00
    3    9   31     -0.26      0.00
  -20    0   32      4.48      0.00
  -18    0   32      0.83      0.00
  -16    0   32     -1.02      0.00
  -14    0   32      0.09      0.00
  -12    0   32      2.25      0.00
  -10    0   32      3.62      0.00
   -8    0   32      3.38      0.00
   -6    0   32      1.22      0.00
   -4    0   32     -1.91      0.00
   -2    0   32     -3.69      0.00
    0    0   32     -3.13      0.00
    2    0   32     -1.98      0.00
    4    0   32     -2.08      0.00
    6    0   32     -2.82      0.00
    8    0   32     -2.70      0.00
   10    0   32     -1.66      0.00
   12    0   32     -0.54      0.00
   14    0   32      0.35      0.00
  -21    1   32     -2.18      0.00
  -19    1   32     -0.38      0.00
  -17    1   32      1.61      0.00
  -15    1   32      1.79      0.00
  -13    1   32      0.02      0.00
  -11    1   32     -2.18      0.00
   -9    1   32     -3.12      0.00
   -7    1   32     -2.16      0.00
   -5    1   32     -0.17      0.00
   -3    1   32      1.04      0.00
   -1    1   32      0.60      0.00
    1    1   32     -0.35      0.00
    3    1   32      0.02      0.00
    5    1   32      1.76      0.00
    7    1   32      3.20      0.00
    9    1   32      3.05      0.00
   11    1   32      1.72      0.00
   13    1   32      0.41      0.00
  -20    2   32      0.51      0.00
  -18    2   32      1.84      0.00
  -16    2   32      0.10      0.00
  -14    2   32     -2.29      0.00
  -12    2   32     -2.26      0.00
  -10    2   32     -0.13      0.00
   -8    2   32      1.57      0.00
   -6    2   32      1.68      0.00
   -4    2   32      0.97      0.00
   -2    2   32      0.14      0.00
    0    2   32     -0.68      0.00
    2    2   32     -1.14      0.00
    4    2   32     -0.94      0.00
    6    2   32     -0.33      0.00
    8    2   32      0.41      0.00
   10    2   32      1.42      0.00
   12    2   32      2.61      0.00
   14    2   32      3.26      0.00
  -19    3   32     -0.05      0.00
  -17    3   32     -0.53      0.00
  -15    3   32      0.74      0.00
  -13    3   32      1.05      0.00
  -11    3   32     -0.76      0.00
   -9    3   32     -2.76      0.00
   -7    3   32     -3.12      0.00
   -5    3   32     -2.25      0.00
   -3    3   32     -1.41      0.00
   -1    3   32     -1.10      0.00
    1    3   32     -1.60      0.00
    3    3   32     -2.93      0.00
    5    3   32     -3.95      0.00
    7    3   32     -3.12      0.00
    9    3   32     -0.62      0.00
   11    3   32      1.61      0.00
   13    3   32      2.20      0.00
  -18    4   32     -1.13      0.00
  -16    4   32      0.19      0.00
  -14    4   32      1.24      0.00
  -12    4   32      1.80      0.00
  -10    4   32      2.04      0.00
   -8    4   32      1.91      0.00
   -6    4   32      1.04      0.00
   -4    4   32     -0.47      0.00
   -2    4   32     -1.66      0.00
    0    4   32     -1.39      0.00
    2    4   32      0.37      0.00
    4    4   32      2.19      0.00
    6    4   32      2.21      0.00
    8    4   32     -0.02      0.00
   10    4   32     -2.88      0.00
   12    4   32     -4.20      0.00
  -17    5   32      0.77      0.00
  -15    5   32     -2.79      0.00
  -13    5   32     -5.06      0.00
  -11    5   32     -4.87      0.00
   -9    5   32     -3.59      0.00
   -7    5   32     -2.37      0.00
   -5    5   32     -0.96      0.00
   -3    5   32      0.55      0.00
   -1    5   32      0.99      0.00
    1    5   32     -0.17      0.00
    3    5   32     -1.79      0.00
    5    5   32     -2.38      0.00
    7    5   32     -1.59      0.00
    9    5   32     -0.16      0.00
   11    5   32      0.89      0.00
  -16    6   32     -2.65      0.00
  -14    6   32      0.41      0.00
  -12    6   32      1.06      0.00
  -10    6   32     -0.45      0.00
   -8    6   32     -2.00      0.00
   -6    6   32     -2.33      0.00
   -4    6   32     -1.90      0.00
   -2    6   32     -1.64      0.00
    0    6   32     -1.83      0.00
    2    6   32     -1.95      0.00
    4    6   32     -1.25      0.00
    6    6   32      0.65      0.00
    8    6   32      3.12      0.00
   10    6   32      4.68      0.00
  -15    7   32     -2.50      0.00
  -13    7   32     -4.32      0.00
  -11    7   32     -5.11      0.00
   -9    7   32     -4.77      0.00
   -7    7   32     -3.96      0.00
   -5    7   32     -3.12      0.00
   -3    7   32     -1.97      0.00
   -1    7   32     -0.17      0.00
    1    7   32      1.80      0.00
    3    7   32      2.84      0.00
    5    7   32      2.29      0.00
    7    7   32      0.54      0.00
  -12    8   32     -4.03      0.00
  -10    8   32     -2.96      0.00
   -8    8   32     -2.26      0.00
   -6    8   32     -2.01      0.00
   -4    8   32     -2.24      0.00
   -2    8   32     -2.80      0.00
    0    8   32     -3.53      0.00
    2    8   32     -4.35      0.00
    4    8   32     -4.98      0.00
   -7    9   32      2.09      0.00
   -5    9   32      2.34      0.00
   -3    9   32      2.29      0.00
   -1    9   32      1.87      0.00
  -19    1   33      0.64      0.00
  -17    1   33      2.93      0.00
  -15    1   33      1.55      0.00
  -13    1   33     -0.86      0.00
  -11    1   33     -1.44      0.00
   -9    1   33      0.00      0.00
   -7    1   33      2.35      0.00
   -5    1   33      4.67      0.00
   -3    1   33      5.61      0.00
   -1    1   33      4.11      0.00
    1    1   33      1.25      0.00
    3    1   33     -0.46      0.00
    5    1   33     -0.11      0.00
    7    1   33      0.90      0.00
    9    1   33      1.03      0.00
   11    1   33      0.01      0.00
   13    1   33     -1.81      0.00
  -20    2   33      7.79      0.00
  -18    2   33      4.85      0.00
  -16    2   33      3.01      0.00
  -14    2   33      3.07      0.00
  -12    2   33      3.54      0.00
  -10    2   33      3.16      0.00
   -8    2   33      1.73      0.00
   -6    2   33     -0.37      0.00
   -4    2   33     -2.18      0.00
   -2    2   33     -2.32      0.00
    0    2   33     -0.76      0.00
    2    2   33      0.59      0.00
    4    2   33      0.07      0.00
    6    2   33     -1.60      0.00
    8    2   33     -2.54      0.00
   10    2   33     -1.98      0.00
   12    2   33     -0.47      0.00
  -19    3   33      3.11      0.00
  -17    3   33      7.23      0.00
  -15    3   33     10.63      0.00
  -13    3   33     10.17      0.00
  -11    3   33      6.13      0.00
   -9    3   33      1.91      0.00
   -7    3   33      0.11      0.00
   -5    3   33      0.37      0.00
   -3    3   33      0.84      0.00
   -1    3   33      0.51      0.00
    1    3   33     -0.48      0.00
    3    3   33     -1.64      0.00
    5    3   33     -2.61      0.00
    7    3   33     -3.20      0.00
    9    3   33     -3.30      0.00
   11    3   33     -2.79      0.00
  -18    4   33      7.02      0.00
  -16    4   33      1.40      0.00
  -14    4   33     -4.74      0.00
  -12    4   33     -6.24      0.00
  -10    4   33     -3.39      0.00
   -8    4   33     -0.28      0.00
   -6    4   33      0.48      0.00
   -4    4   33     -0.71      0.00
   -2    4   33     -2.41      0.00
    0    4   33     -3.45      0.00
    2    4   33     -2.91      0.00
    4    4   33     -0.95      0.00
    6    4   33      0.78      0.00
    8    4   33      0.72      0.00
   10    4   33     -0.91      0.00
  -17    5   33     -0.50      0.00
  -15    5   33      1.38      0.00
  -13    5   33      2.21      0.00
  -11    5   33      0.87      0.00
   -9    5   33     -1.17      0.00
   -7    5   33     -1.76      0.00
   -5    5   33     -0.56      0.00
   -3    5   33      0.83      0.00
   -1    5   33      0.75      0.00
    1    5   33     -0.96      0.00
    3    5   33     -2.92      0.00
    5    5   33     -3.36      0.00
    7    5   33     -1.61      0.00
    9    5   33      1.04      0.00
  -16    6   33      3.01      0.00
  -14    6   33      2.54      0.00
  -12    6   33      1.06      0.00
  -10    6   33     -0.26      0.00
   -8    6   33     -0.99      0.00
   -6    6   33     -1.83      0.00
   -4    6   33     -3.05      0.00
   -2    6   33     -3.42      0.00
    0    6   33     -1.71      0.00
    2    6   33      1.44      0.00
    4    6   33      3.90      0.00
    6    6   33      4.10      0.00
    8    6   33      2.32      0.00
  -13    7   33     -4.74      0.00
  -11    7   33     -4.76      0.00
   -9    7   33     -3.78      0.00
   -7    7   33     -2.09      0.00
   -5    7   33      0.22      0.00
   -3    7   33      2.70      0.00
   -1    7   33      4.39      0.00
    1    7   33      4.56      0.00
    3    7   33      3.42      0.00
    5    7   33      1.91      0.00
  -10    8   33      3.62      0.00
   -8    8   33      3.44      0.00
   -6    8   33      2.41      0.00
   -4    8   33      0.61      0.00
   -2    8   33     -1.72      0.00
    0    8   33     -3.75      0.00
    2    8   33     -4.44      0.00
  -18    0   34     -0.95      0.00
  -16    0   34     -0.83      0.00
  -14    0   34     -2.16      0.00
  -12    0   34     -2.37      0.00
  -10    0   34     -0.90      0.00
   -8    0   34      1.00      0.00
   -6    0   34      2.64      0.00
   -4    0   34      3.65      0.00
   -2    0   34      3.10      0.00
    0    0   34      0.95      0.00
    2    0   34     -0.92      0.00
    4    0   34     -0.82      0.00
    6    0   34      0.66      0.00
    8    0   34      1.87      0.00
   10    0   34      2.26      0.00
   12    0   34      2.06      0.00
  -19    1   34     -2.08      0.00
  -17    1   34     -3.88      0.00
  -15    1   34     -3.03      0.00
  -13    1   34     -0.07      0.00
  -11    1   34      2.99      0.00
   -9    1   34      4.48      0.00
   -7    1   34      3.95      0.00
   -5    1   34      2.21      0.00
   -3    1   34      0.85      0.00
   -1    1   34      0.80      0.00
    1    1   34      1.32      0.00
    3    1   34      0.93      0.00
    5    1   34     -0.59      0.00
    7    1   34     -1.99      0.00
    9    1   34     -2.24      0.00
   11    1   34     -1.56      0.00
  -18    2   34     -0.82      0.00
  -16    2   34      1.23      0.00
  -14    2   34      3.18      0.00
  -12    2   34      2.38      0.00
  -10    2   34     -0.13      0.00
   -8    2   34     -1.48      0.00
   -6    2   34     -0.84      0.00
   -4    2   34      0.54      0.00
   -2    2   34      1.61      0.00
    0    2   34      2.27      0.00
    2    2   34      2.36      0.00
    4    2   34      1.66      0.00
    6    2   34      0.36      0.00
    8    2   34     -1.21      0.00
   10    2   34     -2.87      0.00
  -17    3   34     -1.96      0.00
  -15    3   34     -3.91      0.00
  -13    3   34     -3.58      0.00
  -11    3   34     -0.38      0.00
   -9    3   34      2.60      0.00
   -7    3   34      2.89      0.00
   -5    3   34      1.47      0.00
   -3    3   34      0.67      0.00
   -1    3   34      1.45      0.00
    1    3   34      3.30      0.00
    3    3   34      5.11      0.00
    5    3   34      5.46      0.00
    7    3   34      3.62      0.00
    9    3   34      0.77      0.00
   11    3   34     -0.97      0.00
  -16    4   34     -3.27      0.00
  -14    4   34     -3.44      0.00
  -12    4   34     -3.07      0.00
  -10    4   34     -2.53      0.00
   -8    4   34     -1.58      0.00
   -6    4   34      0.05      0.00
   -4    4   34      1.81      0.00
   -2    4   34      2.41      0.00
    0    4   34      1.23      0.00
    2    4   34     -0.80      0.00
    4    4   34     -1.87      0.00
    6    4   34     -0.79      0.00
    8    4   34      1.79      0.00
   10    4   34      3.87      0.00
  -15    5   34      4.37      0.00
  -13    5   34      5.91      0.00
  -11    5   34      4.82      0.00
   -9    5   34      3.04      0.00
   -7    5   34      1.88      0.00
   -5    5   34      0.95      0.00
   -3    5   34      0.05      0.00
   -1    5   34      0.08      0.00
    1    5   34      1.38      0.00
    3    5   34      2.77      0.00
    5    5   34      2.88      0.00
    7    5   34      1.56      0.00
  -14    6   34     -2.30      0.00
  -12    6   34     -2.60      0.00
  -10    6   34     -0.73      0.00
   -8    6   34      1.20      0.00
   -6    6   34      1.94      0.00
   -4    6   34      1.99      0.00
   -2    6   34      2.25      0.00
    0    6   34      2.79      0.00
    2    6   34      2.95      0.00
    4    6   34      2.16      0.00
    6    6   34      0.50      0.00
  -11    7   34      3.47      0.00
   -9    7   34      3.24      0.00
   -7    7   34      2.81      0.00
   -5    7   34      2.28      0.00
   -3    7   34      0.90      0.00
   -1    7   34     -1.72      0.00
    1    7   34     -4.44      0.00
    3    7   34     -5.35      0.00
   -6    8   34      2.01      0.00
   -4    8   34      1.86      0.00
   -2    8   34      2.06      0.00
  -17    1   35     -1.80      0.00
  -15    1   35      0.52      0.00
  -13    1   35      2.24      0.00
  -11    1   35      1.26      0.00
   -9    1   35     -1.01      0.00
   -7    1   35     -2.53      0.00
   -5    1   35     -2.73      0.00
   -3    1   35     -1.57      0.00
   -1    1   35      0.93      0.00
    1    1   35      3.57      0.00
    3    1   35      4.34      0.00
    5    1   35      2.77      0.00
    7    1   35      0.38      0.00
    9    1   35     -1.12      0.00
  -18    2   35     -4.07      0.00
  -16    2   35     -4.74      0.00
  -14    2   35     -5.92      0.00
  -12    2   35     -5.51      0.00
  -10    2   35     -3.27      0.00
   -8    2   35     -0.64      0.00
   -6    2   35      1.33      0.00
   -4    2   35      2.43      0.00
   -2    2   35      2.40      0.00
    0    2   35      1.39      0.00
    2    2   35      0.52      0.00
    4    2   35      0.75      0.00
    6    2   35      1.59      0.00
    8    2   35      1.92      0.00
   10    2   35      1.45      0.00
  -17    3   35    -10.11      0.00
  -15    3   35    -12.83      0.00
  -13    3   35    -11.28      0.00
  -11    3   35     -6.44      0.00
   -9    3   35     -1.88      0.00
   -7    3   35     -0.03      0.00
   -5    3   35     -0.42      0.00
   -3    3   35     -1.22      0.00
   -1    3   35     -1.21      0.00
    1    3   35     -0.14      0.00
    3    3   35      1.61      0.00
    5    3   35      3.35      0.00
    7    3   35      4.35      0.00
    9    3   35      4.29      0.00
  -16    4   35      1.71      0.00
  -14    4   35      6.47      0.00
  -12    4   35      6.67      0.00
  -10    4   35      3.43      0.00
   -8    4   35      0.82      0.00
   -6    4   35      0.79      0.00
   -4    4   35      2.15      0.00
   -2    4   35      3.17      0.00
    0    4   35      3.09      0.00
    2    4   35      1.77      0.00
    4    4   35     -0.24      0.00
    6    4   35     -1.63      0.00
    8    4   35     -1.44      0.00
  -15    5   35     -3.30      0.00
  -13    5   35     -3.69      0.00
  -11    5   35     -1.53      0.00
   -9    5   35      1.04      0.00
   -7    5   35      1.48      0.00
   -5    5   35     -0.16      0.00
   -3    5   35     -1.49      0.00
   -1    5   35     -0.59      0.00
    1    5   35      2.12      0.00
    3    5   35      4.52      0.00
    5    5   35      4.69      0.00
    7    5   35      2.56      0.00
  -12    6   35     -1.15      0.00
  -10    6   35      0.71      0.00
   -8    6   35      1.81      0.00
   -6    6   35      2.74      0.00
   -4    6   35      3.63      0.00
   -2    6   35      3.43      0.00
    0    6   35      1.46      0.00
    2    6   35     -1.21      0.00
    4    6   35     -2.68      0.00
   -9    7   35      3.04      0.00
   -7    7   35      2.00      0.00
   -5    7   35      0.22      0.00
   -3    7   35     -1.89      0.00
   -1    7   35     -3.30      0.00
    1    7   35     -3.37      0.00
  -16    0   36      3.10      0.00
  -14    0   36      4.14      0.00
  -12    0   36      2.18      0.00
  -10    0   36     -1.56      0.00
   -8    0   36     -3.92      0.00
   -6    0   36     -3.76      0.00
   -4    0   36     -1.93      0.00
   -2    0   36      0.80      0.00
    0    0   36      3.69      0.00
    2    0   36      5.19      0.00
    4    0   36      4.17      0.00
    6    0   36      1.45      0.00
    8    0   36     -1.21      0.00
  -17    1   36      4.51      0.00
  -15    1   36      3.24      0.00
  -13    1   36      0.42      0.00
  -11    1   36     -2.31      0.00
   -9    1   36     -3.95      0.00
   -7    1   36     -4.23      0.00
   -5    1   36     -3.38      0.00
   -3    1   36     -2.26      0.00
   -1    1   36     -1.83      0.00
    1    1   36     -2.04      0.00
    3    1   36     -1.94      0.00
    5    1   36     -1.02      0.00
    7    1   36      0.21      0.00
    9    1   36      1.01      0.00
  -16    2   36     -1.83      0.00
  -14    2   36     -2.79      0.00
  -12    2   36     -1.43      0.00
  -10    2   36      0.67      0.00
   -8    2   36      0.88      0.00
   -6    2   36     -0.99      0.00
   -4    2   36     -3.08      0.00
   -2    2   36     -4.13      0.00
    0    2   36     -4.13      0.00
    2    2   36     -3.35      0.00
    4    2   36     -1.95      0.00
    6    2   36     -0.28      0.00
    8    2   36      1.37      0.00
  -15    3   36      6.05      0.00
  -13    3   36      4.94      0.00
  -11    3   36      0.79      0.00
   -9    3   36     -2.59      0.00
   -7    3   36     -2.59      0.00
   -5    3   36     -0.70      0.00
   -3    3   36      0.08      0.00
   -1    3   36     -1.23      0.00
    1    3   36     -3.48      0.00
    3    3   36     -5.06      0.00
    5    3   36     -4.88      0.00
    7    3   36     -3.06      0.00
  -14    4   36      3.40      0.00
  -12    4   36      2.73      0.00
  -10    4   36      1.97      0.00
   -8    4   36      0.69      0.00
   -6    4   36     -1.18      0.00
   -4    4   36     -2.57      0.00
   -2    4   36     -2.22      0.00
    0    4   36     -0.30      0.00
    2    4   36      1.51      0.00
    4    4   36      1.56      0.00
    6    4   36     -0.26      0.00
  -13    5   36     -4.92      0.00
  -11    5   36     -3.39      0.00
   -9    5   36     -1.78      0.00
   -7    5   36     -1.11      0.00
   -5    5   36     -0.77      0.00
   -3    5   36     -0.35      0.00
   -1    5   36     -0.43      0.00
    1    5   36     -1.20      0.00
    3    5   36     -1.77      0.00
    5    5   36     -1.31      0.00
  -10    6   36      1.13      0.00
   -8    6   36     -0.52      0.00
   -6    6   36     -1.17      0.00
   -4    6   36     -1.46      0.00
   -2    6   36     -2.12      0.00
    0    6   36     -2.92      0.00
    2    6   36     -3.13      0.00
  -15    1   37     -1.66      0.00
  -13    1   37     -2.04      0.00
  -11    1   37      0.02      0.00
   -9    1   37      1.93      0.00
   -7    1   37      1.54      0.00
   -5    1   37     -0.67      0.00
   -3    1   37     -3.33      0.00
   -1    1   37     -5.76      0.00
    1    1   37     -7.22      0.00
    3    1   37     -6.71      0.00
    5    1   37     -4.27      0.00
    7    1   37     -1.34      0.00
  -14    2   37      6.89      0.00
  -12    2   37      5.36      0.00
  -10    2   37      1.81      0.00
   -8    2   37     -1.18      0.00
   -6    2   37     -2.50      0.00
   -4    2   37     -2.76      0.00
   -2    2   37     -2.48      0.00
    0    2   37     -1.69      0.00
    2    2   37     -0.85      0.00
    4    2   37     -0.65      0.00
    6    2   37     -1.07      0.00
  -13    3   37      9.63      0.00
  -11    3   37      5.50      0.00
   -9    3   37      1.59      0.00
   -7    3   37     -0.11      0.00
   -5    3   37      0.23      0.00
   -3    3   37      1.22      0.00
   -1    3   37      1.51      0.00
    1    3   37      0.36      0.00
    3    3   37     -1.93      0.00
    5    3   37     -4.15      0.00
  -12    4   37     -5.09      0.00
  -10    4   37     -2.41      0.00
   -8    4   37     -0.99      0.00
   -6    4   37     -1.73      0.00
   -4    4   37     -2.92      0.00
   -2    4   37     -3.04      0.00
    0    4   37     -1.97      0.00
    2    4   37     -0.26      0.00
    4    4   37      1.37      0.00
  -11    5   37      2.08      0.00
   -9    5   37     -0.53      0.00
   -7    5   37     -0.84      0.00
   -5    5   37      0.78      0.00
   -3    5   37      1.78      0.00
   -1    5   37      0.42      0.00
    1    5   37     -2.52      0.00
   -6    6   37     -2.72      0.00
   -4    6   37     -3.36      0.00
   -2    6   37     -3.03      0.00
  -14    0   38     -3.61      0.00
  -12    0   38     -0.69      0.00
  -10    0   38      3.20      0.00
   -8    0   38      4.49      0.00
   -6    0   38      2.57      0.00
   -4    0   38     -0.61      0.00
   -2    0   38     -3.57      0.00
    0    0   38     -5.77      0.00
    2    0   38     -6.44      0.00
    4    0   38     -4.94      0.00
  -13    1   38     -1.63      0.00
  -11    1   38     -0.05      0.00
   -9    1   38      1.65      0.00
   -7    1   38      3.07      0.00
   -5    1   38      3.49      0.00
   -3    1   38      2.88      0.00
   -1    1   38      2.22      0.00
    1    1   38      2.18      0.00
    3    1   38      2.35      0.00
    5    1   38      1.97      0.00
  -12    2   38     -0.27      0.00
  -10    2   38     -1.46      0.00
   -8    2   38     -0.44      0.00
   -6    2   38      2.27      0.00
   -4    2   38      4.57      0.00
   -2    2   38      5.22      0.00
    0    2   38      4.45      0.00
    2    2   38      2.99      0.00
    4    2   38      1.45      0.00
  -11    3   38     -0.24      0.00
   -9    3   38      2.54      0.00
   -7    3   38      2.06      0.00
   -5    3   38      0.10      0.00
   -3    3   38     -0.46      0.00
   -1    3   38      0.94      0.00
    1    3   38      2.82      0.00
    3    3   38      3.72      0.00
  -10    4   38     -1.02      0.00
   -8    4   38      0.11      0.00
   -6    4   38      1.72      0.00
   -4    4   38      2.42      0.00
   -2    4   38      1.25      0.00
    0    4   38     -0.90      0.00
    2    4   38     -2.09      0.00
   -5    5   38      0.36      0.00
   -3    5   38      0.00      0.00
  -11    1   39     -1.67      0.00
   -9    1   39     -2.43      0.00
   -7    1   39     -0.45      0.00
   -5    1   39      2.81      0.00
   -3    1   39      5.40      0.00
   -1    1   39      6.78      0.00
    1    1   39      7.00      0.00
    3    1   39      5.91      0.00
  -10    2   39      0.17      0.00
   -8    2   39      2.42      0.00
   -6    2   39      2.86      0.00
   -4    2   39      2.67      0.00
   -2    2   39      2.48      0.00
    0    2   39      1.90      0.00
    2    2   39      0.96      0.00
   -9    3   39     -1.47      0.00
   -7    3   39      0.08      0.00
   -5    3   39      0.07      0.00
   -3    3   39     -0.83      0.00
   -1    3   39     -1.35      0.00
   -4    4   39      2.24      0.00
   -8    0   40     -2.98      0.00
   -6    0   40     -0.77      0.00
   -4    0   40      1.39      0.00
   -2    0   40      2.72      0.00
   -7    1   40     -1.43      0.00
   -5    1   40     -2.70      0.00
   -3    1   40     -2.43      0.00
   -1    1   40     -1.62      0.00
   -6    2   40     -1.97      0.00
   -4    2   40     -3.77      0.00
    4    0    0    198.09      0.00
    8    0    0     24.59      0.00
   11    3    0     -1.71      0.00
   29    3    0     -1.42      0.00
   29    5    0     -1.73      0.00
   28    6    0      1.37      0.00
   27    7    0      2.56      0.00
   29    7    0      1.81      0.00
   26    8    0      2.34      0.00
   28    8    0      1.88      0.00
   25    9    0     -6.48      0.00
   24   10    0      3.58      0.00
   21   11    0     -5.29      0.00
   23   11    0     -2.99      0.00
   20   12    0     -2.16      0.00
   22   12    0     -0.73      0.00
   17   13    0     -0.26      0.00
   19   13    0     -0.05      0.00
   12   14    0      4.16      0.00
   14   14    0      1.70      0.00
   16   14    0      0.32      0.00
    5   15    0     -0.04      0.00
    7   15    0     -1.96      0.00
    9   15    0     -1.97      0.00
   11   15    0     -0.49      0.00
   13   15    0      0.72      0.00
   -7    1    1     -4.85      0.00
    9    1    1     10.78      0.00
   -6    2    1      1.48      0.00
   29    3    1     -0.15      0.00
  -29    5    1     -0.84      0.00
   29    5    1      0.30      0.00
  -28    6    1     -0.84      0.00
   28    6    1     -2.63      0.00
  -29    7    1     -0.68      0.00
  -27    7    1      1.59      0.00
   27    7    1      0.86      0.00
   29    7    1     -0.66      0.00
  -28    8    1      0.52      0.00
  -26    8    1      0.33      0.00
   26    8    1      2.37      0.00
   28    8    1      1.56      0.00
  -27    9    1     -2.74      0.00
  -25    9    1     -4.80      0.00
   25    9    1     -3.07      0.00
  -24   10    1     -1.50      0.00
   24   10    1     -1.14      0.00
  -23   11    1      3.53      0.00
  -21   11    1      3.16      0.00
   21   11    1      3.20      0.00
   23   11    1      2.51      0.00
  -22   12    1      1.42      0.00
  -20   12    1      2.30      0.00
   18   12    1      2.56      0.00
   20   12    1      3.01      0.00
  -19   13    1      3.66      0.00
  -17   13    1      5.43      0.00
   17   13    1      2.10      0.00
   19   13    1      1.42      0.00
  -16   14    1     -0.71      0.00
  -14   14    1      0.03      0.00
  -12   14    1     -0.02      0.00
   12   14    1     -1.19      0.00
   14   14    1     -0.50      0.00
   16   14    1     -0.36      0.00
  -13   15    1      1.19      0.00
  -11   15    1      1.49      0.00
   -9   15    1      0.81      0.00
   -7   15    1     -0.53      0.00
   -5   15    1     -1.02      0.00
    5   15    1     -5.45      0.00
    7   15    1     -4.87      0.00
    9   15    1     -2.42      0.00
   11   15    1     -0.45      0.00
   13   15    1      0.09      0.00
  -12    0    2    -14.15      0.00
   -8    0    2    -31.22      0.00
   -4    0    2   -194.30      0.00
    3    1    2      9.34      0.00
   29    3    2     -0.20      0.00
  -29    5    2      3.97      0.00
   29    5    2      1.44      0.00
  -28    6    2      0.57      0.00
   28    6    2     -1.61      0.00
  -29    7    2     -3.69      0.00
  -27    7    2     -5.34      0.00
   27    7    2     -0.46      0.00
  -28    8    2     -2.05      0.00
  -26    8    2     -2.79      0.00
   26    8    2     -1.37      0.00
  -27    9    2      5.87      0.00
  -25    9    2      9.05      0.00
   25    9    2      3.66      0.00
  -24   10    2     -2.42      0.00
   22   10    2     -7.74      0.00
   24   10    2     -4.89      0.00
  -23   11    2      2.93      0.00
  -21   11    2      4.53      0.00
   21   11    2      4.84      0.00
   23   11    2      2.08      0.00
  -22   12    2      2.31      0.00
  -20   12    2      4.99      0.00
   18   12    2     -0.44      0.00
   20   12    2      0.34      0.00
  -19   13    2      0.04      0.00
  -17   13    2      1.33      0.00
   15   13    2      0.07      0.00
   17   13    2      0.10      0.00
   19   13    2      0.14      0.00
  -16   14    2     -0.27      0.00
  -14   14    2     -1.38      0.00
  -12   14    2     -3.09      0.00
   12   14    2     -3.78      0.00
   14   14    2     -1.69      0.00
   16   14    2     -0.50      0.00
  -13   15    2     -0.77      0.00
  -11   15    2      0.16      0.00
   -9   15    2      1.40      0.00
   -7   15    2      1.03      0.00
   -5   15    2     -1.21      0.00
    5   15    2      2.17      0.00
    7   15    2      3.03      0.00
    9   15    2      2.44      0.00
   11   15    2      0.75      0.00
   13   15    2     -0.75      0.00
    3    1    3     27.89      0.00
    5    1    3    -15.49      0.00
    7    1    3    -28.58      0.00
   29    3    3     -0.16      0.00
  -29    5    3      2.59      0.00
   29    5    3     -0.55      0.00
  -28    6    3     -1.54      0.00
   28    6    3      2.69      0.00
  -29    7    3      0.31      0.00
  -27    7    3     -2.46      0.00
   27    7    3     -0.72      0.00
  -28    8    3      1.13      0.00
  -26    8    3      1.28      0.00
   26    8    3     -2.93      0.00
  -27    9    3      3.57      0.00
  -25    9    3      6.10      0.00
   25    9    3      1.48      0.00
  -24   10    3      1.69      0.00
   22   10    3      1.56      0.00
   24   10    3      0.32      0.00
  -23   11    3     -2.88      0.00
  -21   11    3     -1.22      0.00
   21   11    3     -0.75      0.00
   23   11    3     -0.03      0.00
  -22   12    3      0.21      0.00
  -20   12    3     -0.37      0.00
   18   12    3     -0.86      0.00
   20   12    3     -2.01      0.00
  -19   13    3     -4.58      0.00
  -17   13    3     -6.58      0.00
   15   13    3      1.13      0.00
   17   13    3      0.84      0.00
   19   13    3      0.25      0.00
  -16   14    3      0.35      0.00
  -14   14    3     -1.18      0.00
  -12   14    3     -1.26      0.00
   12   14    3      1.48      0.00
   14   14    3      0.39      0.00
   16   14    3     -0.01      0.00
  -13   15    3     -1.21      0.00
  -11   15    3     -2.56      0.00
   -9   15    3     -3.52      0.00
   -7   15    3     -3.38      0.00
   -5   15    3     -2.74      0.00
    5   15    3      8.44      0.00
    7   15    3      7.75      0.00
    9   15    3      4.77      0.00
   11   15    3      2.27      0.00
    5    1    4     23.20      0.00
    7    1    4     27.20      0.00
   29    1    4     -0.58      0.00
   29    3    4      1.20      0.00
   28    4    4     -0.81      0.00
  -29    5    4     -6.52      0.00
   29    5    4     -1.95      0.00
  -28    6    4     -3.13      0.00
   28    6    4      0.24      0.00
  -29    7    4      5.20      0.00
  -27    7    4      6.42      0.00
   27    7    4     -0.12      0.00
  -28    8    4      2.23      0.00
  -26    8    4      3.05      0.00
   26    8    4      0.42      0.00
  -27    9    4     -6.34      0.00
  -25    9    4     -9.27      0.00
   25    9    4     -1.71      0.00
  -24   10    4      2.18      0.00
   22   10    4      7.85      0.00
   24   10    4      5.23      0.00
  -23   11    4     -2.53      0.00
  -21   11    4     -3.70      0.00
   21   11    4     -2.97      0.00
   23   11    4     -0.57      0.00
  -22   12    4     -3.44      0.00
  -20   12    4     -6.03      0.00
   18   12    4      1.41      0.00
   20   12    4     -0.79      0.00
  -19   13    4     -0.55      0.00
  -17   13    4     -3.30      0.00
  -15   13    4     -6.04      0.00
   15   13    4     -0.80      0.00
   17   13    4     -0.37      0.00
   19   13    4     -0.09      0.00
  -16   14    4      0.58      0.00
  -14   14    4      1.14      0.00
  -12   14    4      1.32      0.00
   12   14    4      2.26      0.00
   14   14    4      1.37      0.00
   16   14    4      0.73      0.00
  -13   15    4      1.05      0.00
  -11   15    4      0.32      0.00
   -9   15    4     -0.70      0.00
   -7   15    4     -0.33      0.00
   -5   15    4      1.48      0.00
    3   15    4     -3.05      0.00
    5   15    4     -3.70      0.00
    7   15    4     -3.35      0.00
    9   15    4     -2.44      0.00
   11   15    4     -0.93      0.00
    5    1    5     31.53      0.00
   29    1    5      2.39      0.00
   29    3    5      0.14      0.00
   28    4    5     -3.23      0.00
  -29    5    5     -3.76      0.00
   29    5    5      0.54      0.00
  -28    6    5      1.83      0.00
   28    6    5     -2.10      0.00
  -29    7    5      0.58      0.00
  -27    7    5      3.07      0.00
   27    7    5      1.41      0.00
  -28    8    5     -1.36      0.00
  -26    8    5     -0.19      0.00
   26    8    5      1.98      0.00
  -27    9    5     -4.17      0.00
  -25    9    5     -6.46      0.00
   23    9    5      0.46      0.00
   25    9    5     -0.65      0.00
  -24   10    5     -2.27      0.00
   22   10    5     -0.08      0.00
   24   10    5      0.59      0.00
  -23   11    5      1.98      0.00
  -21   11    5     -0.47      0.00
   21   11    5     -2.19      0.00
   23   11    5     -1.96      0.00
  -22   12    5     -1.43      0.00
  -20   12    5     -1.60      0.00
  -18   12    5     -2.51      0.00
  -16   12    5     -3.26      0.00
   18   12    5     -1.96      0.00
   20   12    5     -0.07      0.00
  -19   13    5      3.51      0.00
  -17   13    5      5.03      0.00
  -15   13    5      4.24      0.00
   15   13    5     -2.05      0.00
   17   13    5     -1.46      0.00
  -16   14    5      0.76      0.00
  -14   14    5      2.39      0.00
  -12   14    5      1.82      0.00
   12   14    5     -0.70      0.00
   14   14    5      0.03      0.00
   16   14    5      0.05      0.00
  -13   15    5      0.17      0.00
  -11   15    5      2.45      0.00
   -9   15    5      4.77      0.00
   -7   15    5      5.33      0.00
   -5   15    5      4.20      0.00
   -3   15    5      2.77      0.00
    3   15    5     -5.98      0.00
    5   15    5     -8.75      0.00
    7   15    5     -8.13      0.00
    9   15    5     -5.35      0.00
   11   15    5     -3.05      0.00
   -2    0    6   -112.18      0.00
   -1    1    6     58.95      0.00
    5    1    6    -13.75      0.00
   29    1    6      1.09      0.00
   29    3    6     -1.12      0.00
   28    4    6      0.22      0.00
  -29    5    6      6.58      0.00
   27    5    6      1.84      0.00
   29    5    6      1.54      0.00
  -28    6    6      4.48      0.00
   28    6    6      1.36      0.00
  -29    7    6     -4.36      0.00
  -27    7    6     -4.16      0.00
   27    7    6     -0.07      0.00
  -28    8    6     -2.89      0.00
  -26    8    6     -3.46      0.00
   26    8    6     -0.34      0.00
  -27    9    6      4.53      0.00
  -25    9    6      6.17      0.00
   23    9    6     -0.87      0.00
   25    9    6      0.43      0.00
  -24   10    6     -2.97      0.00
   22   10    6     -6.07      0.00
   24   10    6     -3.98      0.00
  -23   11    6      2.37      0.00
  -21   11    6      3.28      0.00
   21   11    6      0.83      0.00
  -22   12    6      2.74      0.00
  -20   12    6      4.02      0.00
  -18   12    6      3.70      0.00
  -16   12    6      1.01      0.00
   18   12    6     -0.17      0.00
   20   12    6      1.98      0.00
  -19   13    6      1.53      0.00
  -17   13    6      5.10      0.00
  -15   13    6      7.95      0.00
   15   13    6      1.71      0.00
   17   13    6      0.57      0.00
  -16   14    6     -1.34      0.00
  -14   14    6     -1.24      0.00
  -12   14    6      0.24      0.00
   10   14    6     -0.58      0.00
   12   14    6     -0.69      0.00
   14   14    6     -1.11      0.00
  -13   15    6     -1.48      0.00
  -11   15    6     -1.06      0.00
   -9   15    6     -0.33      0.00
   -7   15    6     -0.52      0.00
   -5   15    6     -1.56      0.00
   -3   15    6     -1.71      0.00
   -1   15    6      0.18      0.00
    1   15    6      2.79      0.00
    3   15    6      3.84      0.00
    5   15    6      3.09      0.00
    7   15    6      2.14      0.00
    9   15    6      1.69      0.00
   11   15    6      0.97      0.00
   29    1    7     -2.69      0.00
   29    3    7      0.05      0.00
   28    4    7      1.40      0.00
  -29    5    7      3.00      0.00
   27    5    7     -1.34      0.00
   29    5    7     -0.67      0.00
  -28    6    7      0.79      0.00
   26    6    7      1.84      0.00
   28    6    7      2.03      0.00
  -29    7    7     -1.72      0.00
  -27    7    7     -3.09      0.00
   25    7    7     -2.68      0.00
   27    7    7     -2.37      0.00
  -28    8    7     -0.88      0.00
  -26    8    7     -3.62      0.00
   24    8    7     -2.28      0.00
   26    8    7     -0.66      0.00
  -27    9    7      4.12      0.00
  -25    9    7      5.45      0.00
   23    9    7      0.02      0.00
   25    9    7      0.63      0.00
  -24   10    7      3.05      0.00
   22   10    7     -1.00      0.00
   24   10    7     -1.08      0.00
  -23   11    7     -1.94      0.00
  -21   11    7      0.71      0.00
   19   11    7      3.50      0.00
   21   11    7      3.19      0.00
  -22   12    7      1.58      0.00
  -20   12    7      2.52      0.00
  -18   12    7      4.20      0.00
  -16   12    7      5.47      0.00
   18   12    7      4.25      0.00
   20   12    7      1.82      0.00
  -19   13    7     -1.66      0.00
  -17   13    7     -2.44      0.00
  -15   13    7     -1.27      0.00
   15   13    7      0.19      0.00
   17   13    7      0.21      0.00
  -16   14    7     -1.81      0.00
  -14   14    7     -2.85      0.00
  -12   14    7     -1.46      0.00
   10   14    7     -1.80      0.00
   12   14    7     -0.58      0.00
   14   14    7     -0.46      0.00
  -13   15    7      1.03      0.00
  -11   15    7     -1.70      0.00
   -9   15    7     -4.57      0.00
   -7   15    7     -5.09      0.00
   -5   15    7     -3.36      0.00
   -3   15    7     -1.58      0.00
   -1   15    7     -0.61      0.00
    1   15    7      1.09      0.00
    3   15    7      4.17      0.00
    5   15    7      6.56      0.00
    7   15    7      6.21      0.00
    9   15    7      4.06      0.00
   11   15    7      2.39      0.00
   -2    0    8     42.28      0.00
    2    0    8     35.05      0.00
   29    1    8     -0.83      0.00
   28    2    8     -0.58      0.00
   29    3    8      0.59      0.00
   28    4    8      1.08      0.00
  -29    5    8     -3.65      0.00
   27    5    8     -0.23      0.00
   29    5    8     -0.21      0.00
  -28    6    8     -3.73      0.00
   26    6    8     -1.17      0.00
   28    6    8     -1.88      0.00
  -29    7    8      1.21      0.00
  -27    7    8     -0.02      0.00
   25    7    8      0.61      0.00
   27    7    8      0.41      0.00
  -28    8    8      3.33      0.00
  -26    8    8      3.55      0.00
   24    8    8     -0.20      0.00
   26    8    8      1.04      0.00
  -27    9    8     -1.17      0.00
  -25    9    8     -1.54      0.00
   23    9    8      1.86      0.00
   25    9    8      0.51      0.00
  -24   10    8      4.44      0.00
   22   10    8      2.88      0.00
   24   10    8      1.87      0.00
  -23   11    8     -2.43      0.00
  -21   11    8     -2.84      0.00
   19   11    8     -0.03      0.00
   21   11    8      0.21      0.00
  -22   12    8     -0.81      0.00
  -20   12    8     -0.60      0.00
  -18   12    8      0.96      0.00
  -16   12    8      3.73      0.00
   18   12    8     -0.69      0.00
   20   12    8     -1.77      0.00
  -19   13    8     -2.15      0.00
  -17   13    8     -5.24      0.00
  -15   13    8     -7.06      0.00
   15   13    8     -1.78      0.00
   17   13    8     -0.38      0.00
  -16   14    8      1.90      0.00
  -14   14    8      1.20      0.00
  -12   14    8     -1.40      0.00
   10   14    8     -1.42      0.00
   12   14    8     -0.02      0.00
   14   14    8      1.12      0.00
  -11   15    8      1.85      0.00
   -9   15    8      1.49      0.00
   -7   15    8      1.50      0.00
   -5   15    8      1.92      0.00
   -3   15    8      1.54      0.00
   -1   15    8     -0.24      0.00
    1   15    8     -1.93      0.00
    3   15    8     -1.73      0.00
    5   15    8     -0.31      0.00
    7   15    8      0.23      0.00
    9   15    8     -0.48      0.00
   11   15    8     -0.89      0.00
   29    1    9      2.19      0.00
   28    2    9     -2.12      0.00
   29    3    9      0.15      0.00
   28    4    9      0.64      0.00
  -29    5    9     -0.32      0.00
   27    5    9      0.95      0.00
  -28    6    9     -3.44      0.00
   26    6    9     -1.85      0.00
   28    6    9     -2.17      0.00
  -29    7    9      2.24      0.00
  -27    7    9      2.20      0.00
   25    7    9      3.08      0.00
   27    7    9      2.55      0.00
  -28    8    9      4.08      0.00
  -26    8    9      7.23      0.00
   24    8    9     -0.09      0.00
   26    8    9     -0.37      0.00
  -27    9    9     -2.99      0.00
  -25    9    9     -3.26      0.00
   23    9    9     -0.85      0.00
   25    9    9     -0.73      0.00
  -24   10    9     -3.02      0.00
   22   10    9      1.21      0.00
  -23   11    9      2.28      0.00
  -21   11    9     -0.33      0.00
  -15   11    9      0.97      0.00
   19   11    9     -2.69      0.00
   21   11    9     -1.93      0.00
  -22   12    9     -0.81      0.00
  -20   12    9     -1.92      0.00
  -18   12    9     -3.73      0.00
  -16   12    9     -5.21      0.00
   16   12    9     -7.52      0.00
   18   12    9     -4.74      0.00
   20   12    9     -2.25      0.00
  -19   13    9      0.51      0.00
  -17   13    9      0.64      0.00
  -15   13    9     -0.49      0.00
   13   13    9      2.80      0.00
   15   13    9      2.27      0.00
   17   13    9      0.98      0.00
  -16   14    9      1.84      0.00
  -14   14    9      2.21      0.00
  -12   14    9      0.59      0.00
   10   14    9      3.78      0.00
   12   14    9      1.50      0.00
   14   14    9      0.72      0.00
  -11   15    9      1.12      0.00
   -9   15    9      3.71      0.00
   -7   15    9      3.77      0.00
   -5   15    9      1.68      0.00
   -3   15    9      0.30      0.00
   -1   15    9      0.65      0.00
    1   15    9      0.64      0.00
    3   15    9     -1.26      0.00
    5   15    9     -3.29      0.00
    7   15    9     -3.22      0.00
    9   15    9     -1.68      0.00
   12    0   10      5.71      0.00
   28    0   10      2.37      0.00
   13    1   10      0.65      0.00
   29    1   10     -0.04      0.00
   28    2   10      1.63      0.00
   27    3   10     -2.18      0.00
   29    3   10     -0.35      0.00
   28    4   10     -2.89      0.00
  -29    5   10      0.53      0.00
   27    5   10     -1.50      0.00
  -28    6   10      1.61      0.00
   26    6   10      1.04      0.00
  -29    7   10      1.86      0.00
  -27    7   10      2.84      0.00
   25    7   10     -1.70      0.00
   27    7   10     -0.90      0.00
  -28    8   10     -2.45      0.00
  -26    8   10     -2.70      0.00
   24    8   10     -0.59      0.00
   26    8   10     -1.44      0.00
  -27    9   10     -1.54      0.00
  -25    9   10     -1.30      0.00
   23    9   10     -2.25      0.00
  -24   10   10     -5.72      0.00
   20   10   10      0.92      0.00
   22   10   10      0.13      0.00
  -23   11   10      2.28      0.00
  -21   11   10      1.97      0.00
  -17   11   10     -2.21      0.00
   19   11   10     -0.13      0.00
   21   11   10      0.07      0.00
  -20   12   10     -1.69      0.00
  -18   12   10     -3.62      0.00
  -16   12   10     -5.69      0.00
   16   12   10     -0.18      0.00
   18   12   10     -0.22      0.00
  -19   13   10      1.50      0.00
  -17   13   10      3.05      0.00
  -15   13   10      3.54      0.00
   13   13   10      1.28      0.00
   15   13   10      0.73      0.00
   17   13   10     -0.27      0.00
  -16   14   10     -1.47      0.00
  -14   14   10     -0.46      0.00
  -12   14   10      2.24      0.00
  -10   14   10      5.22      0.00
    8   14   10      2.64      0.00
   10   14   10      1.54      0.00
   12   14   10     -0.15      0.00
   14   14   10     -1.20      0.00
  -11   15   10     -2.12      0.00
   -9   15   10     -1.98      0.00
   -7   15   10     -1.86      0.00
   -5   15   10     -2.09      0.00
   -3   15   10     -2.00      0.00
   -1   15   10     -1.17      0.00
    1   15   10     -0.72      0.00
    3   15   10     -1.66      0.00
    5   15   10     -2.83      0.00
    7   15   10     -2.33      0.00
    9   15   10     -0.46      0.00
   29    1   11     -0.85      0.00
   28    2   11      2.21      0.00
   27    3   11     -0.62      0.00
   29    3   11     -0.39      0.00
   28    4   11     -1.72      0.00
  -29    5   11     -2.54      0.00
   27    5   11     -0.56      0.00
  -28    6   11      2.56      0.00
   26    6   11      1.89      0.00
  -29    7   11     -1.54      0.00
  -27    7   11     -0.66      0.00
   25    7   11     -2.29      0.00
  -28    8   11     -5.56      0.00
  -26    8   11     -7.56      0.00
   24    8   11      1.94      0.00
  -25    9   11      1.16      0.00
  -23    9   11      0.46      0.00
   23    9   11      1.01      0.00
  -24   10   11      1.54      0.00
  -22   10   11     -0.02      0.00
   20   10   11     -0.08      0.00
   22   10   11     -0.93      0.00
  -23   11   11     -1.86      0.00
  -21   11   11      0.73      0.00
  -19   11   11      2.27      0.00
  -17   11   11      1.43      0.00
   19   11   11      0.65      0.00
   21   11   11      0.21      0.00
  -20   12   11      0.15      0.00
  -18   12   11      1.23      0.00
  -16   12   11      2.52      0.00
   16   12   11      5.86      0.00
   18   12   11      3.55      0.00
  -19   13   11     -0.31      0.00
  -17   13   11     -0.06      0.00
  -15   13   11      0.59      0.00
   13   13   11     -4.94      0.00
   15   13   11     -3.36      0.00
  -16   14   11     -0.72      0.00
  -14   14   11     -0.81      0.00
  -12   14   11      0.29      0.00
  -10   14   11      2.37      0.00
    8   14   11     -8.65      0.00
   10   14   11     -4.13      0.00
   12   14   11     -1.53      0.00
  -11   15   11     -0.89      0.00
   -9   15   11     -2.85      0.00
   -7   15   11     -2.58      0.00
   -5   15   11     -0.64      0.00
   -3   15   11      0.07      0.00
   -1   15   11     -1.31      0.00
    1   15   11     -2.27      0.00
    3   15   11     -0.98      0.00
    5   15   11      0.83      0.00
    7   15   11      0.78      0.00
    9   15   11     -0.56      0.00
   28    0   12     -1.06      0.00
   27    1   12      0.17      0.00
   29    1   12      1.05      0.00
   28    2   12     -2.79      0.00
  -29    3   12      2.12      0.00
   27    3   12      1.54      0.00
   29    3   12      0.28      0.00
   26    4   12      4.60      0.00
   28    4   12      4.02      0.00
  -29    5   12      0.02      0.00
   27    5   12      2.36      0.00
  -28    6   12      0.21      0.00
   26    6   12     -0.35      0.00
  -29    7   12     -2.61      0.00
  -27    7   12     -2.60      0.00
   25    7   12      2.15      0.00
  -28    8   12      0.46      0.00
  -26    8   12      1.32      0.00
  -20    8   12      2.49      0.00
  -18    8   12      0.46      0.00
   24    8   12      0.32      0.00
  -25    9   12      0.50      0.00
  -23    9   12     -3.56      0.00
  -21    9   12     -7.96      0.00
  -19    9   12     -9.49      0.00
  -17    9   12     -7.62      0.00
   21    9   12      3.18      0.00
   23    9   12      1.91      0.00
  -24   10   12      5.77      0.00
  -22   10   12      8.88      0.00
  -20   10   12      9.15      0.00
  -18   10   12      6.59      0.00
   20   10   12     -3.61      0.00
   22   10   12     -1.67      0.00
  -23   11   12     -1.77      0.00
  -21   11   12     -1.03      0.00
  -19   11   12      0.64      0.00
  -17   11   12      2.36      0.00
   17   11   12      1.17      0.00
   19   11   12     -0.86      0.00
  -20   12   12      1.86      0.00
  -18   12   12      3.48      0.00
   16   12   12      0.85      0.00
   18   12   12      1.76      0.00
  -19   13   12      0.29      0.00
  -17   13   12      0.34      0.00
  -15   13   12      0.51      0.00
   13   13   12      1.00      0.00
   15   13   12      0.80      0.00
  -14   14   12     -0.47      0.00
  -12   14   12     -2.35      0.00
  -10   14   12     -4.32      0.00
    6   14   12     -2.69      0.00
    8   14   12     -1.52      0.00
   10   14   12     -0.51      0.00
   12   14   12      0.62      0.00
  -11   15   12      1.38      0.00
   -9   15   12      1.17      0.00
   -7   15   12      0.99      0.00
   -5   15   12      1.45      0.00
   -3   15   12      2.13      0.00
   -1   15   12      2.44      0.00
    1   15   12      2.87      0.00
    3   15   12      3.84      0.00
    5   15   12      4.24      0.00
    7   15   12      2.85      0.00
   27    1   13      0.82      0.00
   29    1   13     -0.17      0.00
   28    2   13     -2.41      0.00
  -29    3   13     -0.16      0.00
   27    3   13      0.00      0.00
   26    4   13      1.54      0.00
   28    4   13      1.92      0.00
  -29    5   13      3.49      0.00
   25    5   13     -1.23      0.00
   27    5   13      0.35      0.00
  -28    6   13      1.85      0.00
   24    6   13     -1.33      0.00
   26    6   13     -1.65      0.00
  -27    7   13     -0.77      0.00
   23    7   13      0.04      0.00
   25    7   13      0.71      0.00
  -26    8   13      4.33      0.00
  -20    8   13     -6.83      0.00
  -18    8   13     -5.14      0.00
   22    8   13     -3.32      0.00
   24    8   13     -2.80      0.00
  -25    9   13     -0.63      0.00
  -23    9   13     -0.80      0.00
  -21    9   13     -1.34      0.00
  -19    9   13     -1.49      0.00
   21    9   13     -0.80      0.00
   23    9   13     -0.26      0.00
  -24   10   13      0.73      0.00
  -22   10   13      3.62      0.00
  -20   10   13      4.36      0.00
  -18   10   13      1.39      0.00
   20   10   13     -0.16      0.00
   22   10   13      0.75      0.00
  -23   11   13      0.35      0.00
  -21   11   13     -2.11      0.00
  -19   11   13     -3.06      0.00
   17   11   13      1.07      0.00
   19   11   13      0.76      0.00
  -20   12   13      1.65      0.00
  -18   12   13      1.57      0.00
   14   12   13     -3.39      0.00
   16   12   13     -3.18      0.00
   18   12   13     -1.84      0.00
  -17   13   13      0.24      0.00
  -15   13   13      0.64      0.00
   11   13   13      5.45      0.00
   13   13   13      5.15      0.00
   15   13   13      2.91      0.00
  -14   14   13     -0.53      0.00
  -12   14   13     -0.96      0.00
  -10   14   13     -2.40      0.00
   -8   14   13     -3.48      0.00
    6   14   13     10.22      0.00
    8   14   13      6.94      0.00
   10   14   13      2.82      0.00
   12   14   13      0.86      0.00
   -9   15   13      2.09      0.00
   -7   15   13      1.97      0.00
   -5   15   13      0.53      0.00
   -3   15   13      0.23      0.00
   -1   15   13      1.68      0.00
    1   15   13      2.49      0.00
    3   15   13      1.18      0.00
    5   15   13     -0.34      0.00
    7   15   13      0.10      0.00
   28    0   14      0.38      0.00
   27    1   14     -1.24      0.00
   26    2   14      3.64      0.00
   28    2   14      3.11      0.00
  -29    3   14     -4.14      0.00
   27    3   14     -0.39      0.00
   26    4   14     -4.14      0.00
  -29    5   14      1.60      0.00
   25    5   14     -2.33      0.00
   27    5   14     -2.36      0.00
  -28    6   14     -0.77      0.00
   24    6   14     -0.85      0.00
   26    6   14      0.13      0.00
  -27    7   14      0.75      0.00
  -23    7   14     -1.95      0.00
   23    7   14     -1.31      0.00
   25    7   14     -1.72      0.00
  -26    8   14     -0.52      0.00
  -20    8   14     -4.55      0.00
  -18    8   14     -0.27      0.00
   22    8   14      2.26      0.00
   24    8   14      0.70      0.00
  -25    9   14      2.59      0.00
  -23    9   14      7.15      0.00
  -21    9   14     10.01      0.00
  -19    9   14      8.66      0.00
   21    9   14     -2.63      0.00
   23    9   14     -1.21      0.00
  -24   10   14     -4.25      0.00
  -22   10   14     -7.05      0.00
  -20   10   14     -7.21      0.00
  -18   10   14     -4.92      0.00
   20   10   14      4.34      0.00
  -23   11   14      1.21      0.00
  -21   11   14      0.60      0.00
  -19   11   14     -0.34      0.00
   17   11   14      0.37      0.00
   19   11   14      1.68      0.00
  -20   12   14     -0.82      0.00
  -18   12   14     -1.76      0.00
   14   12   14      0.47      0.00
   16   12   14     -1.24      0.00
  -17   13   14     -2.78      0.00
  -15   13   14     -2.77      0.00
  -13   13   14     -2.85      0.00
   11   13   14     -3.13      0.00
   13   13   14     -2.79      0.00
   15   13   14     -1.77      0.00
  -14   14   14      0.37      0.00
  -12   14   14      1.15      0.00
  -10   14   14      2.39      0.00
   -8   14   14      2.32      0.00
    4   14   14      3.21      0.00
    6   14   14      0.83      0.00
    8   14   14     -0.14      0.00
   10   14   14     -0.45      0.00
   12   14   14     -0.81      0.00
   -9   15   14      0.49      0.00
   -7   15   14      0.65      0.00
   -5   15   14     -0.18      0.00
   -3   15   14     -1.53      0.00
   -1   15   14     -2.48      0.00
    1   15   14     -3.06      0.00
    3   15   14     -3.55      0.00
    5   15   14     -3.28      0.00
    7   15   14     -1.75      0.00
   27    1   15     -0.09      0.00
   26    2   15      4.16      0.00
   28    2   15      2.41      0.00
  -29    3   15     -1.18      0.00
   27    3   15      1.54      0.00
  -28    4   15     -0.07      0.00
   26    4   15     -1.75      0.00
  -29    5   15     -1.96      0.00
   25    5   15      0.69      0.00
  -28    6   15     -6.07      0.00
   24    6   15      1.65      0.00
   26    6   15      1.35      0.00
  -27    7   15      1.75      0.00
   23    7   15      0.92      0.00
   25    7   15      0.50      0.00
  -26    8   15     -0.08      0.00
  -20    8   15      6.25      0.00
   22    8   15      2.77      0.00
   24    8   15      2.48      0.00
  -25    9   15      1.66      0.00
  -23    9   15      2.12      0.00
  -21    9   15      2.44      0.00
  -19    9   15      1.66      0.00
   21    9   15     -0.51      0.00
  -24   10   15     -2.36      0.00
  -22   10   15     -5.02      0.00
  -20   10   15     -3.96      0.00
   18   10   15      0.24      0.00
   20   10   15     -0.07      0.00
  -21   11   15      3.40      0.00
  -19   11   15      3.53      0.00
   17   11   15     -1.63      0.00
   19   11   15     -0.96      0.00
  -20   12   15     -2.19      0.00
  -18   12   15     -2.51      0.00
  -16   12   15     -1.33      0.00
   14   12   15      0.52      0.00
   16   12   15      0.94      0.00
  -17   13   15     -0.91      0.00
  -15   13   15     -2.69      0.00
  -13   13   15     -4.76      0.00
    9   13   15     -4.87      0.00
   11   13   15     -5.10      0.00
   13   13   15     -4.04      0.00
  -14   14   15      1.14      0.00
  -12   14   15      1.37      0.00
  -10   14   15      2.88      0.00
   -8   14   15      4.61      0.00
   -6   14   15      4.85      0.00
    2   14   15     -2.14      0.00
    4   14   15     -5.75      0.00
    6   14   15     -6.45      0.00
    8   14   15     -3.81      0.00
   10   14   15     -0.96      0.00
   -9   15   15     -1.33      0.00
   -7   15   15     -1.69      0.00
   -5   15   15     -0.76      0.00
   -3   15   15     -0.36      0.00
   -1   15   15     -1.06      0.00
    1   15   15     -1.08      0.00
    3   15   15      0.38      0.00
    5   15   15      1.41      0.00
   26    0   16     -2.56      0.00
   28    0   16     -0.57      0.00
  -29    1   16      2.63      0.00
   27    1   16      1.68      0.00
   26    2   16     -3.84      0.00
  -29    3   16      4.21      0.00
   25    3   16     -1.12      0.00
   27    3   16     -0.78      0.00
  -28    4   16      2.21      0.00
   26    4   16      2.05      0.00
  -29    5   16     -2.83      0.00
   25    5   16      1.94      0.00
  -28    6   16      0.70      0.00
   24    6   16      0.57      0.00
  -27    7   16      0.33      0.00
   23    7   16     -0.31      0.00
  -26    8   16      0.56      0.00
  -24    8   16      3.11      0.00
  -20    8   16      2.75      0.00
   22    8   16     -2.65      0.00
  -25    9   16     -4.85      0.00
  -23    9   16     -8.42      0.00
  -21    9   16     -8.87      0.00
  -19    9   16     -5.27      0.00
   19    9   16      3.10      0.00
   21    9   16      2.43      0.00
  -24   10   16      2.08      0.00
  -22   10   16      4.34      0.00
  -20   10   16      4.44      0.00
   18   10   16     -4.73      0.00
   20   10   16     -3.60      0.00
  -21   11   16     -0.52      0.00
  -19   11   16      0.14      0.00
   15   11   16      0.77      0.00
   17   11   16     -1.29      0.00
   19   11   16     -1.71      0.00
  -20   12   16     -0.10      0.00
  -18   12   16     -0.01      0.00
  -16   12   16     -1.16      0.00
   12   12   16     -2.33      0.00
   14   12   16     -1.18      0.00
   16   12   16      0.62      0.00
  -17   13   16      2.98      0.00
  -15   13   16      2.60      0.00
  -13   13   16      2.05      0.00
    9   13   16      1.68      0.00
   11   13   16      3.85      0.00
   13   13   16      3.15      0.00
  -14   14   16      1.07      0.00
  -12   14   16      0.87      0.00
  -10   14   16     -0.43      0.00
   -8   14   16     -1.09      0.00
   -6   14   16     -0.46      0.00
   -4   14   16     -0.30      0.00
   -2   14   16     -1.94      0.00
    0   14   16     -3.72      0.00
    2   14   16     -3.26      0.00
    4   14   16     -0.98      0.00
    6   14   16      0.74      0.00
    8   14   16      0.91      0.00
   10   14   16      0.55      0.00
   -7   15   16     -1.73      0.00
   -5   15   16     -0.74      0.00
   -3   15   16      0.70      0.00
   -1   15   16      1.51      0.00
    1   15   16      1.68      0.00
    3   15   16      1.66      0.00
  -29    1   17     -0.46      0.00
   25    1   17      1.14      0.00
   27    1   17     -0.02      0.00
   26    2   17     -3.48      0.00
  -29    3   17      0.87      0.00
   25    3   17     -2.59      0.00
   27    3   17     -3.12      0.00
  -28    4   17     -1.63      0.00
   24    4   17      1.53      0.00
   26    4   17      1.40      0.00
  -29    5   17     -0.79      0.00
  -27    5   17      1.57      0.00
   25    5   17     -0.03      0.00
  -28    6   17      6.82      0.00
   24    6   17     -1.79      0.00
  -27    7   17     -2.73      0.00
  -25    7   17     -0.48      0.00
   23    7   17     -1.05      0.00
  -26    8   17     -2.52      0.00
  -24    8   17     -4.67      0.00
  -20    8   17     -3.22      0.00
   20    8   17     -1.22      0.00
   22    8   17     -1.23      0.00
  -25    9   17     -2.45      0.00
  -23    9   17     -2.46      0.00
  -21    9   17     -2.24      0.00
   19    9   17      2.50      0.00
   21    9   17      1.90      0.00
  -24   10   17      2.51      0.00
  -22   10   17      3.94      0.00
  -20   10   17      1.48      0.00
   18   10   17     -0.04      0.00
   20   10   17      0.42      0.00
  -21   11   17     -3.50      0.00
  -19   11   17     -2.90      0.00
   15   11   17      1.15      0.00
   17   11   17      1.45      0.00
  -20   12   17      1.04      0.00
  -18   12   17      0.97      0.00
  -16   12   17     -0.37      0.00
   12   12   17      2.90      0.00
   14   12   17      1.18      0.00
   16   12   17      0.16      0.00
  -17   13   17      1.86      0.00
  -15   13   17      4.63      0.00
  -13   13   17      7.23      0.00
  -11   13   17      8.44      0.00
    7   13   17      4.63      0.00
    9   13   17      4.34      0.00
   11   13   17      3.67      0.00
   13   13   17      2.57      0.00
  -12   14   17     -1.30      0.00
  -10   14   17     -3.31      0.00
   -8   14   17     -5.74      0.00
   -6   14   17     -6.67      0.00
   -4   14   17     -6.07      0.00
   -2   14   17     -5.19      0.00
    0   14   17     -3.81      0.00
    2   14   17     -0.96      0.00
    4   14   17      2.11      0.00
    6   14   17      2.84      0.00
    8   14   17      1.17      0.00
   -5   15   17      0.81      0.00
   -3   15   17      0.09      0.00
   -1   15   17     -0.04      0.00
    1   15   17     -0.62      0.00
    3   15   17     -1.95      0.00
   26    0   18      2.96      0.00
  -29    1   18     -1.57      0.00
   25    1   18     -1.42      0.00
   27    1   18     -1.31      0.00
   26    2   18      3.53      0.00
  -29    3   18     -3.12      0.00
   25    3   18      2.58      0.00
  -28    4   18     -0.92      0.00
   24    4   18      0.91      0.00
   26    4   18      0.23      0.00
  -29    5   18      2.20      0.00
  -27    5   18      0.83      0.00
   23    5   18     -0.48      0.00
   25    5   18     -1.20      0.00
  -28    6   18     -1.15      0.00
  -26    6   18     -3.03      0.00
   22    6   18     -2.22      0.00
   24    6   18      0.27      0.00
  -27    7   18      0.04      0.00
  -25    7   18      1.45      0.00
   21    7   18      1.71      0.00
   23    7   18      1.36      0.00
  -26    8   18     -0.55      0.00
  -24    8   18     -1.41      0.00
  -20    8   18      0.36      0.00
   20    8   18      2.80      0.00
   22    8   18      1.92      0.00
  -25    9   18      4.31      0.00
  -23    9   18      6.26      0.00
  -21    9   18      5.39      0.00
   19    9   18     -4.07      0.00
   21    9   18     -2.57      0.00
  -22   10   18     -2.05      0.00
  -20   10   18     -1.83      0.00
   16   10   18      1.97      0.00
   18   10   18      2.82      0.00
  -21   11   18      0.09      0.00
  -19   11   18     -1.29      0.00
   15   11   18      0.42      0.00
   17   11   18      1.51      0.00
  -18   12   18      1.00      0.00
  -16   12   18      2.63      0.00
   12   12   18      3.46      0.00
   14   12   18      1.88      0.00
  -15   13   18     -1.27      0.00
  -13   13   18     -1.17      0.00
  -11   13   18     -2.93      0.00
    7   13   18      2.30      0.00
    9   13   18     -1.37      0.00
   11   13   18     -3.19      0.00
  -12   14   18     -2.11      0.00
  -10   14   18     -0.26      0.00
   -8   14   18      1.11      0.00
   -6   14   18      0.89      0.00
   -4   14   18      0.31      0.00
   -2   14   18      0.72      0.00
    0   14   18      1.33      0.00
    2   14   18      0.75      0.00
    4   14   18     -0.54      0.00
    6   14   18     -1.00      0.00
    8   14   18     -0.43      0.00
   -3   15   18     -0.30      0.00
   -1   15   18     -0.54      0.00
  -29    1   19      0.98      0.00
   25    1   19     -0.90      0.00
  -28    2   19      0.99      0.00
   24    2   19      2.76      0.00
   26    2   19      2.13      0.00
  -29    3   19      1.10      0.00
   25    3   19      3.44      0.00
  -28    4   19      3.32      0.00
   24    4   19     -0.86      0.00
  -29    5   19      2.96      0.00
  -27    5   19      0.15      0.00
   23    5   19      0.52      0.00
   25    5   19     -0.31      0.00
  -28    6   19     -4.48      0.00
  -26    6   19     -4.60      0.00
   22    6   19      2.04      0.00
   24    6   19      1.55      0.00
  -27    7   19      4.07      0.00
  -25    7   19      2.36      0.00
   21    7   19      0.52      0.00
   23    7   19      0.37      0.00
  -26    8   19      2.79      0.00
  -24    8   19      3.42      0.00
   20    8   19     -0.42      0.00
   22    8   19     -0.13      0.00
  -25    9   19      1.51      0.00
  -23    9   19      1.09      0.00
  -21    9   19      1.02      0.00
   19    9   19     -4.02      0.00
  -22   10   19     -2.01      0.00
  -20   10   19      0.33      0.00
   16   10   19      0.78      0.00
   18   10   19      0.29      0.00
  -21   11   19      2.22      0.00
  -19   11   19      1.23      0.00
  -17   11   19     -0.07      0.00
   13   11   19      0.31      0.00
   15   11   19     -0.85      0.00
   17   11   19     -1.07      0.00
  -18   12   19      1.50      0.00
  -16   12   19      2.54      0.00
  -14   12   19      2.80      0.00
   10   12   19     -4.19      0.00
   12   12   19     -3.31      0.00
   14   12   19     -1.48      0.00
  -15   13   19     -4.99      0.00
  -13   13   19     -6.83      0.00
  -11   13   19     -6.97      0.00
   -9   13   19     -6.09      0.00
    5   13   19     -4.22      0.00
    7   13   19     -3.64      0.00
    9   13   19     -2.72      0.00
   11   13   19     -1.90      0.00
  -10   14   19      2.88      0.00
   -8   14   19      5.44      0.00
   -6   14   19      6.40      0.00
   -4   14   19      5.85      0.00
   -2   14   19      5.14      0.00
    0   14   19      4.20      0.00
    2   14   19      2.09      0.00
    4   14   19     -0.29      0.00
    6   14   19     -0.98      0.00
  -28    0   20      5.05      0.00
   24    0   20     -4.52      0.00
   26    0   20     -2.99      0.00
  -29    1   20     -1.12      0.00
   25    1   20      1.54      0.00
  -28    2   20     -1.86      0.00
   24    2   20     -3.67      0.00
   26    2   20     -3.08      0.00
  -29    3   20      2.36      0.00
   23    3   20     -3.98      0.00
   25    3   20     -2.73      0.00
  -28    4   20     -1.17      0.00
   24    4   20     -1.88      0.00
  -29    5   20     -0.61      0.00
  -27    5   20      1.39      0.00
   23    5   20      0.27      0.00
  -28    6   20      2.14      0.00
  -26    6   20      4.00      0.00
   22    6   20      1.16      0.00
  -27    7   20     -0.76      0.00
  -25    7   20     -2.41      0.00
   21    7   20     -1.72      0.00
  -26    8   20     -0.22      0.00
  -24    8   20     -0.84      0.00
  -20    8   20     -1.55      0.00
   20    8   20     -1.48      0.00
  -23    9   20     -2.46      0.00
  -21    9   20     -2.23      0.00
   17    9   20      4.74      0.00
   19    9   20      4.54      0.00
  -22   10   20      0.65      0.00
  -20   10   20     -0.13      0.00
   16   10   20      0.00      0.00
   18   10   20     -1.00      0.00
  -21   11   20      0.86      0.00
  -19   11   20      3.44      0.00
  -17   11   20      6.49      0.00
   13   11   20     -0.35      0.00
   15   11   20     -1.00      0.00
  -18   12   20     -1.04      0.00
  -16   12   20     -2.14      0.00
  -14   12   20     -2.63      0.00
   10   12   20     -3.53      0.00
   12   12   20     -3.31      0.00
   14   12   20     -1.74      0.00
  -15   13   20      0.46      0.00
  -13   13   20      1.21      0.00
  -11   13   20      3.65      0.00
   -9   13   20      7.15      0.00
   -7   13   20      9.47      0.00
    3   13   20     -0.01      0.00
    5   13   20     -3.11      0.00
    7   13   20     -2.06      0.00
    9   13   20      0.79      0.00
   11   13   20      2.01      0.00
  -10   14   20     -0.50      0.00
   -8   14   20     -1.89      0.00
   -6   14   20     -1.43      0.00
   -4   14   20     -0.15      0.00
   -2   14   20      0.49      0.00
    0   14   20      0.54      0.00
    2   14   20      0.71      0.00
    4   14   20      0.79      0.00
    6   14   20      0.25      0.00
  -29    1   21     -1.47      0.00
   23    1   21      0.27      0.00
   25    1   21      0.91      0.00
  -28    2   21      0.05      0.00
   24    2   21     -1.74      0.00
  -29    3   21     -2.93      0.00
  -27    3   21     -3.23      0.00
   23    3   21     -2.65      0.00
   25    3   21     -3.02      0.00
  -28    4   21     -4.60      0.00
   22    4   21      0.09      0.00
   24    4   21     -0.12      0.00
  -27    5   21     -1.66      0.00
   21    5   21     -1.89      0.00
   23    5   21     -0.56      0.00
  -28    6   21      1.84      0.00
  -26    6   21      1.87      0.00
   22    6   21     -1.75      0.00
  -27    7   21     -4.98      0.00
  -25    7   21     -3.60      0.00
   19    7   21      0.77      0.00
   21    7   21      0.59      0.00
  -24    8   21     -1.51      0.00
  -20    8   21      0.15      0.00
   18    8   21      0.46      0.00
   20    8   21      1.00      0.00
  -23    9   21      0.63      0.00
  -21    9   21     -0.32      0.00
   17    9   21      4.91      0.00
   19    9   21      4.02      0.00
  -22   10   21      0.89      0.00
  -20   10   21     -0.17      0.00
   14   10   21     -2.42      0.00
   16   10   21     -2.20      0.00
   18   10   21     -0.85      0.00
  -19   11   21      0.66      0.00
  -17   11   21      1.57      0.00
   11   11   21     -0.17      0.00
   13   11   21      0.16      0.00
   15   11   21      0.66      0.00
  -18   12   21     -2.70      0.00
  -16   12   21     -2.94      0.00
  -14   12   21     -1.60      0.00
  -12   12   21      2.11      0.00
    8   12   21      2.62      0.00
   10   12   21      3.79      0.00
   12   12   21      2.56      0.00
  -13   13   21      3.60      0.00
  -11   13   21      2.67      0.00
   -9   13   21      1.54      0.00
   -7   13   21      1.14      0.00
   -5   13   21      1.27      0.00
   -3   13   21      1.47      0.00
   -1   13   21      1.91      0.00
    1   13   21      2.71      0.00
    3   13   21      3.23      0.00
    5   13   21      2.85      0.00
    7   13   21      1.87      0.00
    9   13   21      1.02      0.00
   -8   14   21     -3.55      0.00
   -6   14   21     -4.04      0.00
   -4   14   21     -3.34      0.00
   -2   14   21     -2.91      0.00
    0   14   21     -2.58      0.00
    2   14   21     -1.32      0.00
    4   14   21      0.32      0.00
  -28    0   22     -2.71      0.00
   24    0   22      4.88      0.00
  -29    1   22      3.55      0.00
   23    1   22     -1.63      0.00
   25    1   22     -1.29      0.00
  -28    2   22      2.79      0.00
   24    2   22      2.73      0.00
  -29    3   22     -2.12      0.00
  -27    3   22     -5.58      0.00
   23    3   22      4.04      0.00
  -28    4   22      2.41      0.00
  -26    4   22      2.94      0.00
   22    4   22      1.84      0.00
   24    4   22      1.60      0.00
  -27    5   22     -2.28      0.00
   21    5   22     -0.59      0.00
   23    5   22     -0.18      0.00
  -26    6   22     -3.57      0.00
   20    6   22     -1.03      0.00
   22    6   22     -0.25      0.00
  -25    7   22      1.92      0.00
   19    7   22      1.38      0.00
   21    7   22      1.19      0.00
  -24    8   22      2.04      0.00
  -22    8   22      1.57      0.00
  -20    8   22      0.34      0.00
   18    8   22      1.72      0.00
   20    8   22     -0.13      0.00
  -23    9   22     -0.38      0.00
  -21    9   22      1.26      0.00
   17    9   22     -4.90      0.00
   19    9   22     -3.73      0.00
  -22   10   22      0.25      0.00
  -20   10   22      1.49      0.00
  -18   10   22      2.22      0.00
   14   10   22     -2.67      0.00
   16   10   22     -1.07      0.00
  -19   11   22     -4.90      0.00
  -17   11   22     -8.10      0.00
  -15   11   22     -9.00      0.00
   11   11   22     -0.04      0.00
   13   11   22      0.40      0.00
   15   11   22      1.05      0.00
  -16   12   22      0.30      0.00
  -14   12   22     -1.53      0.00
  -12   12   22     -4.23      0.00
    6   12   22     -1.38      0.00
    8   12   22      0.50      0.00
   10   12   22      2.10      0.00
   12   12   22      2.07      0.00
  -13   13   22     -1.73      0.00
  -11   13   22     -3.98      0.00
   -9   13   22     -6.48      0.00
   -7   13   22     -7.44      0.00
   -5   13   22     -6.91      0.00
   -3   13   22     -6.50      0.00
   -1   13   22     -6.19      0.00
    1   13   22     -4.17      0.00
    3   13   22     -0.54      0.00
    5   13   22      1.87      0.00
    7   13   22      1.34      0.00
    9   13   22     -0.44      0.00
   -6   14   22      1.40      0.00
   -4   14   22     -0.10      0.00
   -2   14   22     -1.01      0.00
    0   14   22     -1.18      0.00
    2   14   22     -0.97      0.00
  -29    1   23      1.10      0.00
  -27    1   23      3.04      0.00
   23    1   23     -0.39      0.00
  -28    2   23     -0.91      0.00
   22    2   23      0.95      0.00
   24    2   23      0.50      0.00
  -29    3   23      3.03      0.00
  -27    3   23      3.20      0.00
   23    3   23      1.94      0.00
  -28    4   23      4.58      0.00
  -26    4   23      7.37      0.00
   22    4   23      0.12      0.00
  -27    5   23      2.48      0.00
  -25    5   23      1.85      0.00
   21    5   23      1.67      0.00
   23    5   23      0.59      0.00
  -26    6   23     -1.35      0.00
  -24    6   23     -1.31      0.00
   20    6   23      1.48      0.00
   22    6   23      1.29      0.00
  -25    7   23      2.76      0.00
  -23    7   23     -2.28      0.00
   19    7   23     -1.37      0.00
   21    7   23     -1.18      0.00
  -24    8   23      0.23      0.00
  -22    8   23      0.64      0.00
  -20    8   23      0.82      0.00
   18    8   23     -0.39      0.00
  -23    9   23     -0.89      0.00
  -21    9   23      1.05      0.00
  -19    9   23      2.99      0.00
   15    9   23     -3.64      0.00
   17    9   23     -3.73      0.00
  -20   10   23     -0.85      0.00
  -18   10   23      0.51      0.00
   12   10   23      2.64      0.00
   14   10   23      3.55      0.00
   16   10   23      3.03      0.00
  -19   11   23     -1.72      0.00
  -17   11   23     -2.40      0.00
  -15   11   23     -2.81      0.00
    9   11   23     -2.72      0.00
   11   11   23     -1.65      0.00
   13   11   23     -0.93      0.00
  -16   12   23      1.50      0.00
  -14   12   23     -0.68      0.00
  -12   12   23     -4.54      0.00
  -10   12   23     -7.94      0.00
    4   12   23      1.30      0.00
    6   12   23     -0.39      0.00
    8   12   23     -2.38      0.00
   10   12   23     -2.64      0.00
  -13   13   23      0.08      0.00
  -11   13   23      1.21      0.00
   -9   13   23      1.70      0.00
   -7   13   23      1.09      0.00
   -5   13   23      0.07      0.00
   -3   13   23     -0.75      0.00
   -1   13   23     -1.47      0.00
    1   13   23     -2.09      0.00
    3   13   23     -2.12      0.00
    5   13   23     -1.41      0.00
    7   13   23     -0.60      0.00
   -4   14   23      0.44      0.00
   -2   14   23      0.37      0.00
  -28    0   24     -0.17      0.00
   22    0   24     -4.35      0.00
   24    0   24     -4.42      0.00
  -29    1   24     -3.89      0.00
  -27    1   24     -4.07      0.00
   23    1   24      1.86      0.00
  -28    2   24     -2.59      0.00
   22    2   24     -2.03      0.00
   24    2   24     -1.37      0.00
  -29    3   24      1.58      0.00
  -27    3   24      3.41      0.00
   21    3   24     -3.93      0.00
   23    3   24     -3.08      0.00
  -28    4   24     -2.17      0.00
  -26    4   24     -1.83      0.00
   20    4   24     -1.07      0.00
   22    4   24     -0.84      0.00
  -27    5   24      1.30      0.00
  -25    5   24      2.55      0.00
   21    5   24      0.93      0.00
  -26    6   24      1.50      0.00
  -24    6   24     -0.30      0.00
   20    6   24     -0.17      0.00
  -25    7   24     -1.01      0.00
  -23    7   24      0.77      0.00
   17    7   24     -2.83      0.00
   19    7   24     -1.72      0.00
  -24    8   24     -1.59      0.00
  -22    8   24     -0.76      0.00
  -20    8   24      0.86      0.00
   16    8   24     -2.58      0.00
   18    8   24     -0.84      0.00
  -23    9   24      1.07      0.00
  -21    9   24     -2.17      0.00
  -19    9   24     -5.83      0.00
   15    9   24      4.27      0.00
   17    9   24      3.65      0.00
  -20   10   24     -2.19      0.00
  -18   10   24     -2.62      0.00
   12   10   24      3.84      0.00
   14   10   24      2.73      0.00
  -19   11   24      4.49      0.00
  -17   11   24      7.04      0.00
  -15   11   24      6.94      0.00
  -13   11   24      3.68      0.00
    9   11   24      2.17      0.00
   11   11   24      1.02      0.00
   13   11   24      0.11      0.00
  -16   12   24      1.21      0.00
  -14   12   24      4.65      0.00
  -12   12   24      8.37      0.00
  -10   12   24      9.82      0.00
   -8   12   24      8.29      0.00
    2   12   24      2.23      0.00
    4   12   24      3.34      0.00
    6   12   24      3.14      0.00
    8   12   24      1.35      0.00
   10   12   24     -0.52      0.00
  -11   13   24      3.14      0.00
   -9   13   24      4.27      0.00
   -7   13   24      3.88      0.00
   -5   13   24      2.75      0.00
   -3   13   24      2.75      0.00
   -1   13   24      3.67      0.00
    1   13   24      3.34      0.00
    3   13   24      1.23      0.00
    5   13   24     -0.56      0.00
  -29    1   25      0.37      0.00
  -27    1   25     -0.17      0.00
   21    1   25     -2.81      0.00
   23    1   25      0.48      0.00
  -28    2   25      0.78      0.00
  -26    2   25      0.53      0.00
   22    2   25      0.22      0.00
  -27    3   25     -1.23      0.00
   21    3   25     -0.17      0.00
   23    3   25     -1.27      0.00
  -28    4   25     -3.20      0.00
  -26    4   25     -6.39      0.00
   20    4   25      0.97      0.00
   22    4   25     -0.14      0.00
  -27    5   25     -1.91      0.00
  -25    5   25     -1.59      0.00
   19    5   25     -1.37      0.00
   21    5   25     -0.85      0.00
  -26    6   25      2.34      0.00
  -24    6   25      3.49      0.00
   18    6   25     -1.04      0.00
   20    6   25     -1.08      0.00
  -25    7   25     -0.37      0.00
  -23    7   25      3.94      0.00
   17    7   25      0.46      0.00
   19    7   25      1.10      0.00
  -24    8   25      0.26      0.00
  -22    8   25     -1.07      0.00
  -20    8   25     -2.08      0.00
  -18    8   25     -2.06      0.00
   16    8   25     -0.35      0.00
   18    8   25      0.15      0.00
  -21    9   25     -2.40      0.00
  -19    9   25     -3.81      0.00
   13    9   25      2.00      0.00
   15    9   25      2.16      0.00
   17    9   25      1.66      0.00
  -20   10   25      1.04      0.00
  -18   10   25     -0.31      0.00
  -16   10   25     -3.60      0.00
   10   10   25     -0.75      0.00
   12   10   25     -2.25      0.00
   14   10   25     -3.06      0.00
  -17   11   25      1.91      0.00
  -15   11   25      2.36      0.00
  -13   11   25      2.75      0.00
    7   11   25      5.07      0.00
    9   11   25      4.76      0.00
   11   11   25      3.13      0.00
  -14   12   25      1.90      0.00
  -12   12   25      4.69      0.00
  -10   12   25      6.23      0.00
   -8   12   25      4.49      0.00
   -6   12   25      0.52      0.00
   -4   12   25     -2.18      0.00
   -2   12   25     -1.88      0.00
    0   12   25     -0.46      0.00
    2   12   25     -0.02      0.00
    4   12   25     -0.07      0.00
    6   12   25      0.63      0.00
    8   12   25      1.52      0.00
   -9   13   25     -1.93      0.00
   -7   13   25     -0.73      0.00
   -5   13   25      0.32      0.00
   -3   13   25      0.80      0.00
   -1   13   25      1.11      0.00
    1   13   25      1.41      0.00
    3   13   25      1.29      0.00
  -28    0   26      2.41      0.00
  -26    0   26      5.88      0.00
   20    0   26      0.78      0.00
   22    0   26      3.60      0.00
  -27    1   26      1.63      0.00
   21    1   26     -1.66      0.00
  -28    2   26      1.51      0.00
  -26    2   26      2.30      0.00
   20    2   26      1.13      0.00
   22    2   26      0.49      0.00
  -27    3   26     -1.21      0.00
  -25    3   26     -1.95      0.00
   19    3   26      2.43      0.00
   21    3   26      2.52      0.00
  -26    4   26      0.92      0.00
   20    4   26      0.52      0.00
  -25    5   26      1.51      0.00
   19    5   26     -1.11      0.00
   21    5   26     -0.94      0.00
  -26    6   26      0.66      0.00
  -24    6   26      2.47      0.00
   18    6   26      1.16      0.00
   20    6   26      0.25      0.00
  -23    7   26     -1.48      0.00
  -21    7   26     -3.89      0.00
   17    7   26      3.32      0.00
   19    7   26      1.63      0.00
  -22    8   26      0.47      0.00
  -20    8   26      0.19      0.00
  -18    8   26      0.68      0.00
   14    8   26      1.51      0.00
   16    8   26      1.24      0.00
  -21    9   26      3.37      0.00
  -19    9   26      7.09      0.00
   13    9   26     -4.75      0.00
   15    9   26     -3.47      0.00
  -20   10   26      2.05      0.00
  -18   10   26      2.14      0.00
  -16   10   26      1.13      0.00
   10   10   26     -2.51      0.00
   12   10   26     -3.45      0.00
   14   10   26     -2.54      0.00
  -17   11   26     -4.58      0.00
  -15   11   26     -4.17      0.00
  -13   11   26     -1.78      0.00
  -11   11   26     -0.04      0.00
    5   11   26     -6.03      0.00
    7   11   26     -4.55      0.00
    9   11   26     -2.85      0.00
   11   11   26     -1.65      0.00
  -14   12   26     -4.75      0.00
  -12   12   26     -8.00      0.00
  -10   12   26     -8.32      0.00
   -8   12   26     -5.57      0.00
   -6   12   26     -2.04      0.00
   -4   12   26      0.21      0.00
   -2   12   26      0.76      0.00
    0   12   26     -0.09      0.00
    2   12   26     -1.92      0.00
    4   12   26     -3.61      0.00
    6   12   26     -3.68      0.00
    8   12   26     -1.90      0.00
   -7   13   26     -0.90      0.00
   -5   13   26      0.32      0.00
   -3   13   26     -0.14      0.00
   -1   13   26     -1.82      0.00
    1   13   26     -2.50      0.00
  -27    1   27     -1.71      0.00
  -25    1   27      0.16      0.00
   19    1   27      6.57      0.00
   21    1   27      2.89      0.00
  -28    2   27     -0.08      0.00
  -26    2   27     -0.49      0.00
   20    2   27     -2.20      0.00
   22    2   27     -1.34      0.00
  -27    3   27     -0.92      0.00
  -25    3   27     -1.75      0.00
   19    3   27     -1.80      0.00
   21    3   27      0.02      0.00
  -26    4   27      5.08      0.00
  -24    4   27      6.46      0.00
   18    4   27     -1.39      0.00
   20    4   27     -0.34      0.00
  -25    5   27     -0.97      0.00
  -23    5   27     -0.21      0.00
   17    5   27     -0.38      0.00
   19    5   27     -0.22      0.00
  -24    6   27     -4.77      0.00
  -22    6   27     -5.43      0.00
   16    6   27      1.23      0.00
   18    6   27      0.66      0.00
  -23    7   27     -4.22      0.00
  -21    7   27     -7.22      0.00
   15    7   27      1.62      0.00
   17    7   27      0.69      0.00
  -22    8   27      1.44      0.00
  -20    8   27      2.70      0.00
  -18    8   27      2.52      0.00
   14    8   27      0.04      0.00
   16    8   27      0.05      0.00
  -21    9   27      2.91      0.00
  -19    9   27      3.19      0.00
  -17    9   27      2.22      0.00
   11    9   27     -1.17      0.00
   13    9   27     -1.48      0.00
   15    9   27     -0.73      0.00
  -18   10   27      1.55      0.00
  -16   10   27      4.57      0.00
  -14   10   27      7.57      0.00
    8   10   27     -1.02      0.00
   10   10   27     -0.05      0.00
   12   10   27      0.66      0.00
  -15   11   27     -0.50      0.00
  -13   11   27     -0.33      0.00
  -11   11   27      0.04      0.00
   -9   11   27     -0.02      0.00
    3   11   27     -0.20      0.00
    5   11   27     -3.54      0.00
    7   11   27     -5.54      0.00
    9   11   27     -5.15      0.00
  -12   12   27     -2.82      0.00
  -10   12   27     -3.03      0.00
   -8   12   27     -0.81      0.00
   -6   12   27      2.16      0.00
   -4   12   27      2.84      0.00
   -2   12   27      0.76      0.00
    0   12   27     -1.36      0.00
    2   12   27     -1.44      0.00
    4   12   27     -0.45      0.00
    6   12   27     -0.14      0.00
   -3   13   27     -0.50      0.00
  -26    0   28     -4.98      0.00
   20    0   28     -0.27      0.00
  -27    1   28      0.57      0.00
  -25    1   28      1.13      0.00
   19    1   28      0.84      0.00
   21    1   28      0.99      0.00
  -26    2   28     -1.98      0.00
   18    2   28      0.08      0.00
   20    2   28      0.22      0.00
  -27    3   28      0.05      0.00
  -25    3   28      1.54      0.00
   19    3   28     -0.62      0.00
   21    3   28     -0.90      0.00
  -26    4   28     -0.85      0.00
  -24    4   28     -1.16      0.00
   18    4   28     -1.29      0.00
   20    4   28     -0.26      0.00
  -25    5   28     -3.97      0.00
  -23    5   28     -4.38      0.00
   17    5   28      0.47      0.00
   19    5   28      0.56      0.00
  -24    6   28     -2.82      0.00
  -22    6   28     -5.70      0.00
   16    6   28      0.38      0.00
   18    6   28     -0.21      0.00
  -23    7   28      1.20      0.00
  -21    7   28      3.00      0.00
   15    7   28     -3.47      0.00
   17    7   28     -2.26      0.00
  -22    8   28     -1.42      0.00
  -20    8   28     -2.88      0.00
  -18    8   28     -4.59      0.00
   12    8   28      0.72      0.00
   14    8   28      0.73      0.00
   16    8   28      0.43      0.00
  -19    9   28     -6.45      0.00
  -17    9   28     -7.72      0.00
    9    9   28      8.30      0.00
   11    9   28      6.28      0.00
   13    9   28      4.06      0.00
  -18   10   28     -1.16      0.00
  -16   10   28     -0.37      0.00
  -14   10   28      0.59      0.00
  -12   10   28      0.76      0.00
    6   10   28     -3.62      0.00
    8   10   28     -1.02      0.00
   10   10   28      2.08      0.00
   12   10   28      3.25      0.00
  -15   11   28      2.45      0.00
  -13   11   28      1.31      0.00
  -11   11   28      1.37      0.00
   -9   11   28      4.16      0.00
   -7   11   28      7.96      0.00
   -5   11   28      9.11      0.00
   -3   11   28      6.53      0.00
   -1   11   28      3.25      0.00
    1   11   28      2.43      0.00
    3   11   28      3.65      0.00
    5   11   28      4.32      0.00
    7   11   28      3.47      0.00
    9   11   28      2.20      0.00
  -10   12   28      4.26      0.00
   -8   12   28      1.37      0.00
   -6   12   28     -1.50      0.00
   -4   12   28     -2.64      0.00
   -2   12   28     -2.12      0.00
    0   12   28     -0.65      0.00
    2   12   28      1.24      0.00
    4   12   28      2.69      0.00
  -27    1   29      1.36      0.00
  -25    1   29     -1.52      0.00
   19    1   29     -6.27      0.00
  -26    2   29      1.43      0.00
  -24    2   29      4.85      0.00
   18    2   29      3.65      0.00
   20    2   29      2.97      0.00
  -25    3   29      2.49      0.00
  -23    3   29      1.46      0.00
   17    3   29      2.16      0.00
   19    3   29      1.05      0.00
  -26    4   29     -4.07      0.00
  -24    4   29     -4.94      0.00
   16    4   29     -0.85      0.00
   18    4   29     -0.72      0.00
  -25    5   29      3.64      0.00
  -23    5   29      3.30      0.00
   15    5   29      2.01      0.00
   17    5   29      1.44      0.00
  -24    6   29      4.15      0.00
  -22    6   29      4.65      0.00
   14    6   29     -1.69      0.00
   16    6   29     -0.72      0.00
  -23    7   29      2.76      0.00
  -21    7   29      4.07      0.00
  -19    7   29      3.63      0.00
   13    7   29     -2.41      0.00
   15    7   29     -2.31      0.00
  -20    8   29     -2.40      0.00
  -18    8   29     -2.18      0.00
  -16    8   29     -0.83      0.00
   12    8   29      1.02      0.00
   14    8   29      0.33      0.00
  -19    9   29     -1.73      0.00
  -17    9   29     -0.80      0.00
  -15    9   29     -0.45      0.00
    9    9   29      0.10      0.00
   11    9   29      1.49      0.00
   13    9   29      1.06      0.00
  -16   10   29     -4.43      0.00
  -14   10   29     -5.70      0.00
  -12   10   29     -4.75      0.00
  -10   10   29     -0.96      0.00
    4   10   29      1.38      0.00
    6   10   29      1.38      0.00
    8   10   29      0.87      0.00
   10   10   29      0.86      0.00
  -13   11   29     -2.10      0.00
  -11   11   29     -2.95      0.00
   -9   11   29     -2.96      0.00
   -7   11   29     -1.58      0.00
   -5   11   29      0.17      0.00
   -3   11   29      0.55      0.00
   -1   11   29     -0.45      0.00
    1   11   29     -0.96      0.00
    3   11   29      0.39      0.00
    5   11   29      2.66      0.00
    7   11   29      3.94      0.00
   -8   12   29     -1.03      0.00
   -6   12   29     -2.57      0.00
   -4   12   29     -1.72      0.00
   -2   12   29      1.00      0.00
    0   12   29      2.70      0.00
    2   12   29      1.89      0.00
  -26    0   30      2.23      0.00
  -24    0   30     -0.71      0.00
   18    0   30     -1.87      0.00
   20    0   30     -0.40      0.00
  -25    1   30     -0.55      0.00
   17    1   30      0.10      0.00
   19    1   30     -0.32      0.00
  -26    2   30      1.94      0.00
  -24    2   30      3.56      0.00
   18    2   30     -1.29      0.00
  -25    3   30     -1.94      0.00
  -23    3   30     -3.35      0.00
   17    3   30     -1.04      0.00
   19    3   30     -0.36      0.00
  -24    4   30      2.01      0.00
  -22    4   30      3.26      0.00
   16    4   30      2.43      0.00
   18    4   30      0.90      0.00
  -23    5   30      3.73      0.00
  -21    5   30      1.15      0.00
   15    5   30     -0.37      0.00
   17    5   30     -0.07      0.00
  -22    6   30      4.72      0.00
  -20    6   30      7.27      0.00
   14    6   30     -3.58      0.00
   16    6   30     -1.43      0.00
  -21    7   30     -1.94      0.00
  -19    7   30     -1.68      0.00
   13    7   30      2.08      0.00
   15    7   30      1.31      0.00
  -20    8   30      4.71      0.00
  -18    8   30      6.53      0.00
  -16    8   30      7.49      0.00
   10    8   30     -0.28      0.00
   12    8   30     -2.27      0.00
   14    8   30     -2.63      0.00
  -19    9   30      4.47      0.00
  -17    9   30      5.60      0.00
  -15    9   30      5.11      0.00
  -13    9   30      3.25      0.00
    7    9   30     -7.10      0.00
    9    9   30     -6.32      0.00
   11    9   30     -4.26      0.00
  -16   10   30     -0.18      0.00
  -14   10   30     -0.67      0.00
  -12   10   30     -0.54      0.00
  -10   10   30      0.64      0.00
   -8   10   30      2.38      0.00
    2   10   30      1.63      0.00
    4   10   30      3.93      0.00
    6   10   30      3.66      0.00
    8   10   30      0.89      0.00
  -13   11   30     -1.27      0.00
  -11   11   30     -1.83      0.00
   -9   11   30     -4.16      0.00
   -7   11   30     -6.42      0.00
   -5   11   30     -5.82      0.00
   -3   11   30     -2.37      0.00
   -1   11   30      0.64      0.00
    1   11   30      0.67      0.00
    3   11   30     -1.18      0.00
    5   11   30     -2.19      0.00
   -4   12   30      2.52      0.00
   -2   12   30      1.65      0.00
  -25    1   31      3.24      0.00
  -23    1   31      6.28      0.00
   17    1   31      6.60      0.00
   19    1   31      5.19      0.00
  -24    2   31     -6.88      0.00
   16    2   31     -3.00      0.00
   18    2   31     -3.41      0.00
  -25    3   31     -1.69      0.00
  -23    3   31     -1.02      0.00
   15    3   31     -0.47      0.00
   17    3   31     -0.78      0.00
  -24    4   31      2.95      0.00
  -22    4   31     -1.37      0.00
   14    4   31      3.34      0.00
   16    4   31      2.81      0.00
   18    4   31      1.44      0.00
  -23    5   31     -3.83      0.00
  -21    5   31     -1.43      0.00
   13    5   31     -2.88      0.00
   15    5   31     -1.96      0.00
   17    5   31     -0.98      0.00
  -22    6   31     -2.48      0.00
  -20    6   31     -2.29      0.00
   12    6   31      1.10      0.00
   14    6   31      0.90      0.00
   16    6   31      0.02      0.00
  -21    7   31     -1.45      0.00
  -19    7   31     -1.01      0.00
  -17    7   31      1.18      0.00
   11    7   31      1.07      0.00
   13    7   31      1.57      0.00
  -20    8   31      1.42      0.00
  -18    8   31      1.32      0.00
  -16    8   31      0.28      0.00
    8    8   31     -1.69      0.00
   10    8   31     -1.31      0.00
   12    8   31     -0.59      0.00
  -17    9   31      0.06      0.00
  -15    9   31      0.65      0.00
  -13    9   31      2.60      0.00
  -11    9   31      5.18      0.00
    5    9   31      1.96      0.00
    7    9   31      1.32      0.00
    9    9   31     -0.36      0.00
   11    9   31     -1.07      0.00
  -14   10   31      3.12      0.00
  -12   10   31      2.06      0.00
  -10   10   31     -0.28      0.00
   -8   10   31     -2.48      0.00
   -6   10   31     -2.46      0.00
   -4   10   31      0.00      0.00
   -2   10   31      2.44      0.00
    0   10   31      2.47      0.00
    2   10   31      0.58      0.00
    4   10   31     -0.86      0.00
    6   10   31     -0.85      0.00
    8   10   31     -0.55      0.00
  -11   11   31      3.45      0.00
   -9   11   31      3.34      0.00
   -7   11   31      1.82      0.00
   -5   11   31     -0.15      0.00
   -3   11   31     -1.00      0.00
   -1   11   31     -0.41      0.00
    1   11   31      0.36      0.00
    3   11   31      0.19      0.00
  -24    0   32      3.11      0.00
  -22    0   32      5.84      0.00
   16    0   32      0.94      0.00
   18    0   32      0.87      0.00
  -25    1   32     -0.65      0.00
  -23    1   32     -2.08      0.00
   15    1   32     -0.18      0.00
   17    1   32      0.01      0.00
  -24    2   32     -3.11      0.00
  -22    2   32     -2.23      0.00
   16    2   32      2.95      0.00
   18    2   32      1.97      0.00
  -23    3   32      3.23      0.00
  -21    3   32      2.18      0.00
   15    3   32      1.51      0.00
   17    3   32      0.57      0.00
  -24    4   32     -1.15      0.00
  -22    4   32     -1.93      0.00
  -20    4   32     -2.00      0.00
   14    4   32     -3.34      0.00
   16    4   32     -1.54      0.00
  -23    5   32     -0.89      0.00
  -21    5   32      1.21      0.00
  -19    5   32      2.50      0.00
   13    5   32      1.06      0.00
   15    5   32      0.65      0.00
  -22    6   32     -3.29      0.00
  -20    6   32     -5.82      0.00
  -18    6   32     -5.64      0.00
   12    6   32      4.31      0.00
   14    6   32      2.47      0.00
  -19    7   32      0.96      0.00
  -17    7   32     -0.46      0.00
    9    7   32     -1.15      0.00
   11    7   32     -1.60      0.00
   13    7   32     -0.71      0.00
  -18    8   32     -5.53      0.00
  -16    8   32     -5.84      0.00
  -14    8   32     -5.16      0.00
    6    8   32     -4.62      0.00
    8    8   32     -2.52      0.00
   10    8   32      0.69      0.00
   12    8   32      3.06      0.00
  -15    9   32     -3.21      0.00
  -13    9   32     -1.82      0.00
  -11    9   32      0.06      0.00
   -9    9   32      1.43      0.00
    1    9   32      1.60      0.00
    3    9   32      2.15      0.00
    5    9   32      3.28      0.00
    7    9   32      3.82      0.00
    9    9   32      2.98      0.00
  -12   10   32      0.50      0.00
  -10   10   32     -0.45      0.00
   -8   10   32     -1.86      0.00
   -6   10   32     -2.66      0.00
   -4   10   32     -2.08      0.00
   -2   10   32     -0.91      0.00
    0   10   32     -0.79      0.00
    2   10   32     -2.06      0.00
    4   10   32     -3.14      0.00
    6   10   32     -2.44      0.00
   -7   11   32      3.35      0.00
   -5   11   32      2.29      0.00
   -3   11   32     -0.50      0.00
   -1   11   32     -2.37      0.00
    1   11   32     -1.71      0.00
  -23    1   33     -5.33      0.00
  -21    1   33     -3.59      0.00
   15    1   33     -3.65      0.00
   17    1   33     -4.31      0.00
  -24    2   33      6.06      0.00
  -22    2   33      8.74      0.00
   14    2   33      1.15      0.00
   16    2   33      2.08      0.00
  -23    3   33      0.69      0.00
  -21    3   33      1.01      0.00
   13    3   33     -1.67      0.00
   15    3   33     -0.46      0.00
  -22    4   33      2.77      0.00
  -20    4   33      7.16      0.00
   12    4   33     -2.57      0.00
   14    4   33     -3.08      0.00
   16    4   33     -2.26      0.00
  -21    5   33      0.38      0.00
  -19    5   33     -1.07      0.00
   11    5   33      2.54      0.00
   13    5   33      2.11      0.00
   15    5   33      0.80      0.00
  -20    6   33      1.15      0.00
  -18    6   33      2.25      0.00
   10    6   33      0.24      0.00
   12    6   33     -0.65      0.00
   14    6   33     -0.29      0.00
  -19    7   33      0.08      0.00
  -17    7   33     -1.39      0.00
  -15    7   33     -3.42      0.00
    7    7   33      0.91      0.00
    9    7   33      0.61      0.00
   11    7   33      0.45      0.00
  -18    8   33     -0.42      0.00
  -16    8   33      0.24      0.00
  -14    8   33      1.55      0.00
  -12    8   33      2.90      0.00
    4    8   33     -3.51      0.00
    6    8   33     -1.79      0.00
    8    8   33     -0.44      0.00
   10    8   33     -0.02      0.00
  -15    9   33     -0.51      0.00
  -13    9   33     -2.32      0.00
  -11    9   33     -4.23      0.00
   -9    9   33     -4.98      0.00
   -7    9   33     -3.52      0.00
   -5    9   33      0.03      0.00
   -3    9   33      3.82      0.00
   -1    9   33      5.33      0.00
    1    9   33      3.67      0.00
    3    9   33      0.59      0.00
    5    9   33     -1.35      0.00
    7    9   33     -1.34      0.00
  -12   10   33     -0.79      0.00
  -10   10   33     -0.25      0.00
   -8   10   33     -0.07      0.00
   -6   10   33     -1.05      0.00
   -4   10   33     -2.85      0.00
   -2   10   33     -3.70      0.00
    0   10   33     -2.42      0.00
    2   10   33     -0.11      0.00
    4   10   33      1.12      0.00
  -24    0   34     -2.23      0.00
  -22    0   34     -4.30      0.00
  -20    0   34     -3.12      0.00
   14    0   34      1.37      0.00
   16    0   34      0.48      0.00
  -23    1   34      1.64      0.00
  -21    1   34      0.53      0.00
   13    1   34     -0.82      0.00
   15    1   34     -0.53      0.00
  -22    2   34      1.72      0.00
  -20    2   34     -0.30      0.00
   12    2   34     -4.14      0.00
   14    2   34     -4.32      0.00
   16    2   34     -3.31      0.00
  -23    3   34     -2.18      0.00
  -21    3   34     -1.78      0.00
  -19    3   34     -0.95      0.00
   13    3   34     -0.79      0.00
   15    3   34      0.23      0.00
  -22    4   34     -0.53      0.00
  -20    4   34     -1.18      0.00
  -18    4   34     -2.34      0.00
   12    4   34      3.88      0.00
   14    4   34      2.20      0.00
  -21    5   34     -2.47      0.00
  -19    5   34     -2.22      0.00
  -17    5   34      0.67      0.00
    9    5   34     -0.23      0.00
   11    5   34     -1.46      0.00
   13    5   34     -1.67      0.00
  -20    6   34      3.56      0.00
  -18    6   34      3.16      0.00
  -16    6   34      0.41      0.00
    8    6   34     -1.23      0.00
   10    6   34     -1.93      0.00
   12    6   34     -1.26      0.00
  -19    7   34     -0.90      0.00
  -17    7   34      0.00      0.00
  -15    7   34      1.48      0.00
  -13    7   34      2.88      0.00
    5    7   34     -3.71      0.00
    7    7   34     -0.70      0.00
    9    7   34      1.49      0.00
   11    7   34      1.58      0.00
  -16    8   34      3.50      0.00
  -14    8   34      3.15      0.00
  -12    8   34      2.62      0.00
  -10    8   34      2.32      0.00
   -8    8   34      2.18      0.00
    0    8   34      2.77      0.00
    2    8   34      3.75      0.00
    4    8   34      4.30      0.00
    6    8   34      3.63      0.00
    8    8   34      1.54      0.00
  -13    9   34      0.21      0.00
  -11    9   34     -1.50      0.00
   -9    9   34     -2.61      0.00
   -7    9   34     -2.74      0.00
   -5    9   34     -2.22      0.00
   -3    9   34     -1.40      0.00
   -1    9   34     -0.55      0.00
    1    9   34     -0.08      0.00
    3    9   34     -0.32      0.00
    5    9   34     -0.97      0.00
   -8   10   34      0.85      0.00
   -6   10   34      1.75      0.00
   -4   10   34      1.85      0.00
   -2   10   34      1.37      0.00
    0   10   34      1.15      0.00
    2   10   34      1.43      0.00
  -23    1   35      3.10      0.00
  -21    1   35      1.47      0.00
  -19    1   35     -1.38      0.00
   11    1   35     -1.12      0.00
   13    1   35      0.11      0.00
   15    1   35      1.66      0.00
  -22    2   35     -5.19      0.00
  -20    2   35     -4.83      0.00
   12    2   35      0.60      0.00
   14    2   35     -0.19      0.00
  -21    3   35     -2.33      0.00
  -19    3   35     -5.65      0.00
   11    3   35      3.25      0.00
   13    3   35      1.66      0.00
  -20    4   35     -4.65      0.00
  -18    4   35     -3.50      0.00
   10    4   35     -0.12      0.00
   12    4   35      1.13      0.00
  -19    5   35      0.41      0.00
  -17    5   35     -1.12      0.00
    9    5   35     -0.11      0.00
   11    5   35     -1.34      0.00
   13    5   35     -0.83      0.00
  -18    6   35     -2.80      0.00
  -16    6   35     -3.90      0.00
  -14    6   35     -3.18      0.00
    6    6   35     -2.17      0.00
    8    6   35     -0.60      0.00
   10    6   35      0.52      0.00
  -17    7   35      0.96      0.00
  -15    7   35      2.31      0.00
  -13    7   35      3.26      0.00
  -11    7   35      3.46      0.00
    3    7   35     -2.47      0.00
    5    7   35     -1.56      0.00
    7    7   35     -1.22      0.00
    9    7   35     -1.27      0.00
  -14    8   35     -1.30      0.00
  -12    8   35     -2.21      0.00
  -10    8   35     -2.34      0.00
   -8    8   35     -1.51      0.00
   -6    8   35      0.00      0.00
   -4    8   35      1.95      0.00
   -2    8   35      4.07      0.00
    0    8   35      5.71      0.00
    2    8   35      6.05      0.00
    4    8   35      4.88      0.00
    6    8   35      2.93      0.00
  -11    9   35      2.33      0.00
   -9    9   35      2.86      0.00
   -7    9   35      2.08      0.00
   -5    9   35      0.04      0.00
   -3    9   35     -2.19      0.00
   -1    9   35     -3.12      0.00
    1    9   35     -2.11      0.00
    3    9   35     -0.08      0.00
   -4   10   35      2.81      0.00
  -22    0   36      1.89      0.00
  -20    0   36      1.57      0.00
  -18    0   36      1.52      0.00
   10    0   36     -2.77      0.00
   12    0   36     -3.02      0.00
   14    0   36     -2.11      0.00
  -21    1   36      1.03      0.00
  -19    1   36      3.36      0.00
   11    1   36      1.24      0.00
   13    1   36      1.13      0.00
  -22    2   36     -1.58      0.00
  -20    2   36     -0.41      0.00
  -18    2   36     -0.28      0.00
   10    2   36      2.85      0.00
   12    2   36      3.71      0.00
   14    2   36      3.41      0.00
  -21    3   36      1.54      0.00
  -19    3   36      1.97      0.00
  -17    3   36      4.01      0.00
    9    3   36     -1.09      0.00
   11    3   36     -0.46      0.00
   13    3   36     -1.08      0.00
  -20    4   36      2.46      0.00
  -18    4   36      3.41      0.00
  -16    4   36      3.78      0.00
    8    4   36     -2.54      0.00
   10    4   36     -3.51      0.00
   12    4   36     -2.62      0.00
  -19    5   36      0.92      0.00
  -17    5   36     -1.72      0.00
  -15    5   36     -4.40      0.00
    7    5   36     -0.03      0.00
    9    5   36      1.26      0.00
   11    5   36      1.91      0.00
  -18    6   36     -1.00      0.00
  -16    6   36      0.99      0.00
  -14    6   36      2.88      0.00
  -12    6   36      2.84      0.00
    4    6   36     -2.43      0.00
    6    6   36     -1.19      0.00
    8    6   36     -0.20      0.00
   10    6   36     -0.10      0.00
  -15    7   36     -0.60      0.00
  -13    7   36     -1.53      0.00
  -11    7   36     -1.73      0.00
   -9    7   36     -1.34      0.00
   -7    7   36     -1.07      0.00
   -5    7   36     -0.86      0.00
   -3    7   36      0.24      0.00
   -1    7   36      2.62      0.00
    1    7   36      5.00      0.00
    3    7   36      5.41      0.00
    5    7   36      3.31      0.00
    7    7   36      0.24      0.00
  -14    8   36     -1.94      0.00
  -12    8   36     -1.62      0.00
  -10    8   36     -1.28      0.00
   -8    8   36     -0.94      0.00
   -6    8   36     -0.54      0.00
   -4    8   36     -0.30      0.00
   -2    8   36     -0.58      0.00
    0    8   36     -1.38      0.00
    2    8   36     -2.18      0.00
    4    8   36     -2.36      0.00
   -9    9   36      2.12      0.00
   -7    9   36      1.74      0.00
   -5    9   36      0.83      0.00
   -3    9   36     -0.07      0.00
   -1    9   36     -0.60      0.00
    1    9   36     -0.64      0.00
  -21    1   37     -0.14      0.00
  -19    1   37      1.19      0.00
  -17    1   37      0.44      0.00
    9    1   37      0.63      0.00
   11    1   37      1.06      0.00
   13    1   37      0.20      0.00
  -20    2   37      2.21      0.00
  -18    2   37      3.23      0.00
  -16    2   37      5.49      0.00
    8    2   37     -1.56      0.00
   10    2   37     -1.68      0.00
   12    2   37     -1.35      0.00
  -19    3   37      5.22      0.00
  -17    3   37      8.99      0.00
  -15    3   37     11.10      0.00
    7    3   37     -5.05      0.00
    9    3   37     -4.34      0.00
   11    3   37     -2.62      0.00
  -18    4   37      0.45      0.00
  -16    4   37     -3.06      0.00
  -14    4   37     -5.78      0.00
    6    4   37      2.06      0.00
    8    4   37      1.53      0.00
   10    4   37      0.37      0.00
  -17    5   37      2.48      0.00
  -15    5   37      4.49      0.00
  -13    5   37      4.53      0.00
    3    5   37     -4.80      0.00
    5    5   37     -4.87      0.00
    7    5   37     -2.98      0.00
    9    5   37     -0.76      0.00
  -16    6   37      3.55      0.00
  -14    6   37      2.69      0.00
  -12    6   37      0.76      0.00
  -10    6   37     -0.91      0.00
   -8    6   37     -1.91      0.00
    0    6   37     -1.51      0.00
    2    6   37      0.10      0.00
    4    6   37      0.53      0.00
    6    6   37     -0.16      0.00
    8    6   37     -0.90      0.00
  -13    7   37     -1.08      0.00
  -11    7   37     -1.23      0.00
   -9    7   37     -1.30      0.00
   -7    7   37     -1.06      0.00
   -5    7   37     -0.13      0.00
   -3    7   37      1.29      0.00
   -1    7   37      2.34      0.00
    1    7   37      2.45      0.00
    3    7   37      1.85      0.00
    5    7   37      1.19      0.00
  -10    8   37      0.89      0.00
   -8    8   37     -0.15      0.00
   -6    8   37     -1.49      0.00
   -4    8   37     -2.83      0.00
   -2    8   37     -4.00      0.00
    0    8   37     -4.68      0.00
    2    8   37     -4.45      0.00
  -20    0   38     -0.41      0.00
  -18    0   38     -1.27      0.00
  -16    0   38     -3.23      0.00
    6    0   38     -1.92      0.00
    8    0   38      1.09      0.00
   10    0   38      2.88      0.00
   12    0   38      2.94      0.00
  -19    1   38     -2.87      0.00
  -17    1   38     -3.61      0.00
  -15    1   38     -3.01      0.00
    7    1   38      0.96      0.00
    9    1   38     -0.13      0.00
   11    1   38     -0.76      0.00
  -20    2   38      0.71      0.00
  -18    2   38      0.54      0.00
  -16    2   38      1.20      0.00
  -14    2   38      1.18      0.00
    6    2   38      0.28      0.00
    8    2   38     -0.53      0.00
   10    2   38     -1.19      0.00
  -19    3   38     -1.89      0.00
  -17    3   38     -3.91      0.00
  -15    3   38     -5.55      0.00
  -13    3   38     -4.15      0.00
    5    3   38      3.22      0.00
    7    3   38      1.96      0.00
    9    3   38      1.09      0.00
  -18    4   38     -1.98      0.00
  -16    4   38     -2.09      0.00
  -14    4   38     -1.76      0.00
  -12    4   38     -1.44      0.00
    4    4   38     -1.37      0.00
    6    4   38      0.51      0.00
    8    4   38      1.98      0.00
   10    4   38      2.07      0.00
  -17    5   38      1.49      0.00
  -15    5   38      2.87      0.00
  -13    5   38      2.87      0.00
  -11    5   38      1.72      0.00
   -9    5   38      0.78      0.00
   -7    5   38      0.53      0.00
   -1    5   38     -0.13      0.00
    1    5   38      0.08      0.00
    3    5   38      0.09      0.00
    5    5   38     -0.40      0.00
    7    5   38     -1.02      0.00
  -14    6   38     -1.47      0.00
  -12    6   38     -1.50      0.00
  -10    6   38     -0.58      0.00
   -8    6   38      0.19      0.00
   -6    6   38      0.44      0.00
   -4    6   38      0.84      0.00
   -2    6   38      1.77      0.00
    0    6   38      2.63      0.00
    2    6   38      2.64      0.00
    4    6   38      1.74      0.00
    6    6   38      0.55      0.00
  -13    7   38      1.09      0.00
  -11    7   38      0.80      0.00
   -9    7   38      0.11      0.00
   -7    7   38     -0.14      0.00
   -5    7   38      0.03      0.00
   -3    7   38     -0.38      0.00
   -1    7   38     -1.84      0.00
    1    7   38     -3.37      0.00
    3    7   38     -3.50      0.00
   -8    8   38     -0.39      0.00
   -6    8   38     -0.81      0.00
   -4    8   38     -0.79      0.00
   -2    8   38     -0.19      0.00
    0    8   38      0.71      0.00
  -19    1   39     -1.09      0.00
  -17    1   39     -0.18      0.00
  -15    1   39      1.05      0.00
  -13    1   39      0.43      0.00
    5    1   39      3.77      0.00
    7    1   39      1.54      0.00
    9    1   39      0.13      0.00
  -18    2   39     -1.98      0.00
  -16    2   39     -4.31      0.00
  -14    2   39     -5.24      0.00
  -12    2   39     -3.25      0.00
    4    2   39      0.43      0.00
    6    2   39      0.76      0.00
    8    2   39      1.52      0.00
   10    2   39      1.95      0.00
  -17    3   39     -5.07      0.00
  -15    3   39     -6.94      0.00
  -13    3   39     -6.56      0.00
  -11    3   39     -4.18      0.00
    1    3   39     -0.38      0.00
    3    3   39      1.86      0.00
    5    3   39      3.85      0.00
    7    3   39      4.24      0.00
    9    3   39      3.06      0.00
  -16    4   39      2.43      0.00
  -14    4   39      3.55      0.00
  -12    4   39      2.64      0.00
  -10    4   39      0.93      0.00
   -8    4   39      0.51      0.00
   -6    4   39      1.49      0.00
   -2    4   39      1.73      0.00
    0    4   39      0.33      0.00
    2    4   39     -1.14      0.00
    4    4   39     -2.00      0.00
    6    4   39     -1.80      0.00
    8    4   39     -0.72      0.00
  -15    5   39     -4.03      0.00
  -13    5   39     -4.15      0.00
  -11    5   39     -2.22      0.00
   -9    5   39     -0.12      0.00
   -7    5   39      0.12      0.00
   -5    5   39     -1.09      0.00
   -3    5   39     -1.62      0.00
   -1    5   39     -0.30      0.00
    1    5   39      2.00      0.00
    3    5   39      3.58      0.00
    5    5   39      3.54      0.00
  -12    6   39     -0.35      0.00
  -10    6   39      0.41      0.00
   -8    6   39      1.00      0.00
   -6    6   39      1.80      0.00
   -4    6   39      2.52      0.00
   -2    6   39      2.42      0.00
    0    6   39      1.50      0.00
    2    6   39      0.68      0.00
    4    6   39      0.64      0.00
   -9    7   39     -0.34      0.00
   -7    7   39      0.17      0.00
   -5    7   39      0.09      0.00
   -3    7   39     -0.63      0.00
   -1    7   39     -1.34      0.00
    1    7   39     -1.45      0.00
  -16    0   40      0.97      0.00
  -14    0   40      1.06      0.00
  -12    0   40     -1.04      0.00
  -10    0   40     -3.20      0.00
    0    0   40      3.66      0.00
    2    0   40      4.10      0.00
    4    0   40      3.33      0.00
    6    0   40      1.33      0.00
    8    0   40     -0.90      0.00
  -17    1   40      2.11      0.00
  -15    1   40      2.60      0.00
  -13    1   40      2.86      0.00
  -11    1   40      2.42      0.00
   -9    1   40      0.78      0.00
    1    1   40     -1.42      0.00
    3    1   40     -1.73      0.00
    5    1   40     -1.69      0.00
    7    1   40     -0.96      0.00
  -16    2   40     -0.44      0.00
  -14    2   40      0.08      0.00
  -12    2   40      1.34      0.00
  -10    2   40      1.89      0.00
   -8    2   40      0.51      0.00
   -2    2   40     -4.00      0.00
    0    2   40     -2.99      0.00
    2    2   40     -1.60      0.00
    4    2   40     -0.60      0.00
    6    2   40     -0.37      0.00
    8    2   40     -0.58      0.00
  -15    3   40      3.08      0.00
  -13    3   40      2.15      0.00
  -11    3   40     -0.41      0.00
   -9    3   40     -1.95      0.00
   -7    3   40     -1.16      0.00
   -5    3   40      0.30      0.00
   -3    3   40      0.42      0.00
   -1    3   40     -0.78      0.00
    1    3   40     -1.86      0.00
    3    3   40     -1.99      0.00
    5    3   40     -1.35      0.00
    7    3   40     -0.66      0.00
  -14    4   40      0.03      0.00
  -12    4   40      0.24      0.00
  -10    4   40      0.35      0.00
   -8    4   40     -0.33      0.00
   -6    4   40     -1.39      0.00
   -4    4   40     -1.45      0.00
   -2    4   40      0.04      0.00
    0    4   40      1.82      0.00
    2    4   40      2.25      0.00
    4    4   40      1.16      0.00
    6    4   40     -0.24      0.00
  -13    5   40     -1.22      0.00
  -11    5   40     -0.86      0.00
   -9    5   40     -0.45      0.00
   -7    5   40     -0.14      0.00
   -5    5   40      0.30      0.00
   -3    5   40      0.73      0.00
   -1    5   40      0.78      0.00
    1    5   40      0.57      0.00
    3    5   40      0.51      0.00
  -10    6   40     -0.06      0.00
   -8    6   40     -0.02      0.00
   -6    6   40      0.01      0.00
   -4    6   40     -0.51      0.00
   -2    6   40     -1.54      0.00
    0    6   40     -2.20      0.00
    2    6   40     -1.81      0.00
    0    0    0      0.00      0.00
# SQUEEZE RESULTS (Version = 230916)
# Note: Data are Listed for all Voids in the P1 Unit Cell
# i.e. Centre of Gravity, Solvent Accessible Volume,
# Recovered number of Electrons in the Void and
# Details about the Squeezed Material
loop_
  _platon_squeeze_void_nr
  _platon_squeeze_void_average_x
  _platon_squeeze_void_average_y
  _platon_squeeze_void_average_z
  _platon_squeeze_void_volume
  _platon_squeeze_void_count_electrons
  _platon_squeeze_void_content
   1  0.000  0.105  0.250       245        91 ' '
   2  0.500 -0.045  0.250       245        91 ' '
   3  0.000 -0.118  0.750       245        91 ' '
   4  0.500  0.021  0.750       245        91 ' '
# Missing Reflections Below sin(th)/lambda = 0.25
loop_
  _platon_missing_refln_index_h
  _platon_missing_refln_index_k
  _platon_missing_refln_index_l
  _platon_missing_refln_theta
    4    0    0     3.311
    8    0    0     6.633
   -7    1    1     5.964
    9    1    1     7.756
   -6    2    1     5.885
  -12    0    2     9.866
   -8    0    2     6.560
   -4    0    2     3.352
    3    1    2     3.345
    3    1    3     3.678
    5    1    3     5.044
    7    1    3     6.550
    5    1    4     5.370
    7    1    4     6.828
    5    1    5     5.744
   -2    0    6     3.792
   -1    1    6     3.982
    5    1    6     6.157
   -2    0    8     4.927
    2    0    8     5.403
_platon_squeeze_void_probe_radius                  1.20
_platon_squeeze_details
)
TITL shelxt_a.res in C2/c
CELL   24.8990   12.6150   33.6890     90.00     98.70     90.00
SPGR C2/c
# Solvent Accessible Volume =       973
# Electrons Found in S.A.V. =       364
# Note: Atoms in Void as Cxxx and Qxxx all others
C101 0.564 0.169 0.743 !       3.63 eA-3
C102 0.512 0.479 0.211 !       2.68 eA-3
C103 0.983 0.389 0.235 !       2.22 eA-3
C104 0.998 0.506 0.238 !       2.20 eA-3
C105 1.002 0.494 0.254 !       2.20 eA-3
C106 0.515 0.040 0.749 !       2.13 eA-3
C107 0.015 0.279 0.295 !       1.89 eA-3
C108 0.508 0.196 0.807 !       1.87 eA-3
C109 1.000 0.187 0.751 !       1.79 eA-3
C110 0.977 0.343 0.263 !       1.69 eA-3
C111 0.951 0.379 0.250 !       1.61 eA-3
C112 0.478 0.230 0.771 !       1.53 eA-3
C113 0.515 0.273 0.244 !       1.29 eA-3
C114 0.518 0.414 0.259 !       1.25 eA-3
C115 0.981 0.107 0.759 !       1.14 eA-3
C116 0.500 0.203 0.750 !       1.12 eA-3
Q117 0.031 0.177 0.299 !       1.10 eA-3
C118 0.023 0.209 0.322 !       1.08 eA-3
Q119 0.587 0.214 0.318 !       1.00 eA-3
Q120 0.049 0.275 0.783 !       0.96 eA-3
Q121 0.494 0.365 0.693 !       0.88 eA-3
Q122 0.506 0.077 0.223 !       0.87 eA-3
Q123 0.951 0.269 0.172 !       0.87 eA-3
Q124 0.454 0.316 0.257 !       0.87 eA-3
C125 0.537 0.092 0.808 !       0.85 eA-3
Q126 0.552 0.463 0.218 !       0.84 eA-3
Q127 0.022 0.347 0.172 !       0.83 eA-3
Q128 0.073 0.341 0.788 !       0.83 eA-3
Q129 0.968 0.171 0.780 !       0.81 eA-3
Q130 0.516 0.423 0.159 !       0.79 eA-3
C131 0.506 0.118 0.254 !       0.77 eA-3
Q132 0.462 0.479 0.804 !       0.77 eA-3
Q133 0.913 0.423 0.233 !       0.75 eA-3
Q134 0.424 0.234 0.242 !       0.75 eA-3
Q135 0.438 0.448 0.251 !       0.75 eA-3
C136 0.493 0.420 0.790 !       0.75 eA-3
Q137 0.591 0.147 0.328 !       0.74 eA-3
C138 0.974 0.348 0.748 !       0.72 eA-3
Q139 0.055 0.184 0.251 !       0.72 eA-3
Q140 0.008 0.127 0.271 !       0.71 eA-3
Q141 0.923 0.271 0.198 !       0.71 eA-3
Q142 0.085 0.396 0.304 !       0.71 eA-3
Q143 0.074 0.200 0.327 !       0.71 eA-3
Q144 0.508 0.501 0.674 !       0.70 eA-3
Q145 0.487 0.234 0.659 !       0.70 eA-3
Q146 0.404 0.367 0.310 !       0.70 eA-3
Q147 0.985 0.454 0.179 !       0.69 eA-3
Q148 0.414 0.439 0.294 !       0.69 eA-3
Q149 0.046 0.363 0.195 !       0.69 eA-3
Q150 0.518 0.156 0.215 !       0.67 eA-3
Q151 0.546 0.086 0.841 !       0.67 eA-3
Q152 0.376 0.151 0.188 !       0.67 eA-3
Q153 0.101 0.454 0.244 !       0.67 eA-3
Q154 0.578 0.113 0.336 !       0.66 eA-3
Q155 0.766 0.222 0.211 !       0.65 eA-3
Q156 0.935 0.066 0.181 !       0.65 eA-3
Q157 0.430 0.048 0.187 !       0.65 eA-3
Q158 0.543 0.220 0.227 !       0.64 eA-3
C159 0.506 0.454 0.802 !       0.64 eA-3
Q160 0.946 0.082 0.860 !       0.64 eA-3
Q161 0.951 0.405 0.278 !       0.64 eA-3
Q162 0.029 0.438 0.195 !       0.64 eA-3
Q163 0.930 0.405 0.210 !       0.63 eA-3
Q164 0.090 0.178 0.226 !       0.63 eA-3
Q165 0.623 0.238 0.309 !       0.63 eA-3
Q166 0.421 0.133 0.243 !       0.63 eA-3
Q167 0.311 0.466 0.246 !       0.63 eA-3
Q168 0.141 0.403 0.800 !       0.62 eA-3
Q169 0.096 0.287 0.788 !       0.62 eA-3
Q170 0.524 0.234 0.673 !       0.62 eA-3
Q171 0.600 0.462 0.442 !       0.62 eA-3
Q172 0.210 0.046 0.312 !       0.62 eA-3
Q173 0.054 0.142 0.328 !       0.61 eA-3
Q174 0.429 0.457 0.327 !       0.61 eA-3
Q175 0.888 0.334 0.750 !       0.61 eA-3
Q176 0.011 0.279 0.797 !       0.60 eA-3
Q177 0.068 0.456 0.297 !       0.60 eA-3
Q178 0.025 0.342 0.782 !       0.60 eA-3
Q179 0.847 0.345 0.749 !       0.59 eA-3
Q180 0.616 0.121 0.339 !       0.59 eA-3
Q181 0.981 0.217 0.716 !       0.59 eA-3
Q182 0.398 0.154 0.132 !       0.59 eA-3
Q183 0.929 0.474 0.167 !       0.59 eA-3
Q184 0.422 0.246 0.382 !       0.58 eA-3
Q185 0.055 0.389 0.323 !       0.58 eA-3
Q186 0.404 0.267 0.304 !       0.58 eA-3
Q187 0.867 0.189 0.733 !       0.58 eA-3
Q188 0.226 0.049 0.226 !       0.58 eA-3
Q189 0.061 0.039 0.407 !       0.58 eA-3
Q190 0.392 0.479 0.238 !       0.57 eA-3
Q191 0.462 0.480 0.178 !       0.57 eA-3
Q192 1.000 0.183 0.711 !       0.57 eA-3
Q193 0.281 0.309 0.623 !       0.57 eA-3
Q194 0.187 0.229 0.205 !       0.57 eA-3
Q195 0.963 0.428 0.765 !       0.57 eA-3
Q196 0.937 0.238 0.728 !       0.56 eA-3
Q197 0.500 0.014 0.306 !       0.56 eA-3
Q198 0.381 0.101 0.133 !       0.56 eA-3
Q199 0.968 0.050 0.361 !       0.56 eA-3
)
;
_shelx_fab_checksum              13673
loop_
_space_group_symop_operation_xyz
'x, y, z'
'-x, y, -z+1/2'
'x+1/2, y+1/2, z'
'-x+1/2, y+1/2, -z+1/2'
'-x, -y, -z'
'x, -y, z-1/2'
'-x+1/2, -y+1/2, -z'
'x+1/2, -y+1/2, z-1/2'
loop_
_atom_site_label
_atom_site_type_symbol
_atom_site_fract_x
_atom_site_fract_y
_atom_site_fract_z
_atom_site_U_iso_or_equiv
_atom_site_adp_type
_atom_site_occupancy
_atom_site_site_symmetry_order
_atom_site_calc_flag
_atom_site_refinement_flags_posn
_atom_site_refinement_flags_adp
_atom_site_refinement_flags_occupancy
_atom_site_disorder_assembly
_atom_site_disorder_group
Ni Ni 0.40246(3) 0.47961(6) 0.56991(2) 0.0561(3) Uani 1 1 d . U . . .
O1 O 0.2981(4) 0.6296(5) 0.7001(2) 0.139(3) Uani 1 1 d . U . . .
O2 O 0.3676(4) 0.6983(6) 0.7378(2) 0.169(3) Uani 1 1 d . U . . .
N5 N 0.3476(5) 0.6507(7) 0.7076(3) 0.125(3) Uani 1 1 d . U . . .
N1 N 0.4058(2) 0.5561(4) 0.61946(15) 0.0686(15) Uani 1 1 d D U . . .
C1 C 0.3761(3) 0.5339(5) 0.6507(2) 0.0742(19) Uani 1 1 d D U . . .
C2 C 0.3785(3) 0.6257(6) 0.6761(2) 0.088(2) Uani 1 1 d D U . . .
C3 C 0.4128(3) 0.6994(6) 0.6646(2) 0.085(2) Uani 1 1 d D U . . .
C4 C 0.4286(3) 0.6553(5) 0.6285(2) 0.0722(19) Uani 1 1 d D U . . .
N2 N 0.4349(2) 0.5970(4) 0.54659(15) 0.0607(13) Uani 1 1 d D U . . .
C6 C 0.4672(3) 0.6759(5) 0.5667(2) 0.0682(17) Uani 1 1 d D U . . .
C7 C 0.4962(3) 0.7291(5) 0.5395(2) 0.0741(19) Uani 1 1 d D U . . .
H7A H 0.5222 0.7818 0.5461 0.089 Uiso 1 1 calc R U . . .
C8 C 0.4794(3) 0.6900(5) 0.5028(2) 0.0691(18) Uani 1 1 d D U . . .
H8A H 0.4912 0.7114 0.4791 0.083 Uiso 1 1 calc R U . . .
C9 C 0.4406(3) 0.6102(4) 0.50664(18) 0.0564(15) Uani 1 1 d D U . . .
N3 N 0.3905(2) 0.4086(3) 0.51862(13) 0.0550(13) Uani 1 1 d D U . . .
C11 C 0.3855(3) 0.4570(4) 0.48148(17) 0.0574(16) Uani 1 1 d D U . . .
C12 C 0.3615(2) 0.3854(4) 0.45039(17) 0.0562(16) Uani 1 1 d D U . . .
C13 C 0.3565(3) 0.2916(5) 0.46813(18) 0.0596(16) Uani 1 1 d D U . . .
C14 C 0.3761(2) 0.3051(4) 0.51075(17) 0.0554(15) Uani 1 1 d D U . . .
N4 N 0.3775(2) 0.3571(4) 0.59430(15) 0.0697(15) Uani 1 1 d D U . . .
C16 C 0.3792(3) 0.2532(5) 0.5803(2) 0.075(2) Uani 1 1 d D U . . .
C17 C 0.3725(4) 0.1800(5) 0.6123(2) 0.102(3) Uani 1 1 d D U . . .
H17A H 0.3748 0.1064 0.6114 0.122 Uiso 1 1 calc R U . . .
C18 C 0.3625(4) 0.2387(5) 0.6436(2) 0.101(2) Uani 1 1 d D U . . .
H18A H 0.3553 0.2127 0.6681 0.121 Uiso 1 1 calc R U . . .
C19 C 0.3647(3) 0.3478(5) 0.6328(2) 0.085(2) Uani 1 1 d D U . . .
N6 N 0.1742(4) 0.4164(7) 0.1951(2) 0.146(3) Uani 1 1 d D U . . .
C42 C 0.1622(4) 0.4923(10) 0.2914(3) 0.109(3) Uani 0.816(9) 1 d D U P A 1
N7 N 0.1302(4) 0.5360(9) 0.3065(3) 0.155(4) Uani 0.816(9) 1 d D U P A 1
C42A C 0.186(2) 0.5515(18) 0.2831(12) 0.109(3) Uani 0.184(9) 1 d D U P A 2
N7A N 0.1720(19) 0.6377(17) 0.2872(13) 0.155(4) Uani 0.184(9) 1 d D U P A 2
C51 C 0.2178(19) -0.250(2) 0.3933(11) 0.097(4) Uani 0.29(4) 1 d D U P B 1
N8 N 0.207(2) -0.327(2) 0.3761(13) 0.119(5) Uani 0.29(4) 1 d D U P B 1
C51A C 0.2039(8) -0.2592(9) 0.4043(6) 0.097(4) Uani 0.71(4) 1 d D U P B 2
N8A N 0.1889(8) -0.3398(8) 0.3911(7) 0.119(5) Uani 0.71(4) 1 d D U P B 2
N9 N 0.2043(3) -0.1397(6) 0.4927(3) 0.127(3) Uani 1 1 d D U . . .
C5 C 0.4636(3) 0.7066(5) 0.6059(2) 0.0722(18) Uani 1 1 d . U . . .
C10 C 0.4107(3) 0.5547(4) 0.47492(18) 0.0546(15) Uani 1 1 d . U . . .
C15 C 0.3789(3) 0.2265(5) 0.5413(2) 0.0636(17) Uani 1 1 d . U . . .
C20 C 0.3584(3) 0.4336(6) 0.6582(2) 0.081(2) Uani 1 1 d . U . . .
C21 C 0.4943(3) 0.8034(6) 0.6232(2) 0.082(2) Uani 1 1 d . U . . .
C22 C 0.5324(3) 0.7955(7) 0.6566(3) 0.098(2) Uani 1 1 d . U . . .
H22A H 0.5390 0.7303 0.6693 0.118 Uiso 1 1 calc R U . . .
C23 C 0.5617(4) 0.8853(8) 0.6720(3) 0.119(3) Uani 1 1 d . U . . .
H23A H 0.5877 0.8800 0.6948 0.142 Uiso 1 1 calc R U . . .
C24 C 0.5515(5) 0.9816(9) 0.6529(3) 0.128(3) Uani 1 1 d . U . . .
H24A H 0.5718 1.0407 0.6625 0.154 Uiso 1 1 calc R U . . .
C25 C 0.5134(4) 0.9910(7) 0.6212(3) 0.122(3) Uani 1 1 d . U . . .
H25A H 0.5057 1.0571 0.6096 0.146 Uiso 1 1 calc R U . . .
C26 C 0.4848(4) 0.9018(6) 0.6053(3) 0.107(3) Uani 1 1 d . U . . .
H26A H 0.4590 0.9086 0.5824 0.129 Uiso 1 1 calc R U . . .
C27 C 0.4128(3) 0.5977(5) 0.43421(19) 0.0610(16) Uani 1 1 d . U . . .
C28 C 0.4535(3) 0.5708(7) 0.4128(2) 0.098(3) Uani 1 1 d . U . . .
H28A H 0.4781 0.5178 0.4223 0.118 Uiso 1 1 calc R U . . .
C29 C 0.4582(4) 0.6225(7) 0.3768(3) 0.118(3) Uani 1 1 d . U . . .
H29A H 0.4860 0.6046 0.3624 0.142 Uiso 1 1 calc R U . . .
C30 C 0.4221(4) 0.6985(7) 0.3632(3) 0.111(3) Uani 1 1 d . U . . .
H30A H 0.4260 0.7344 0.3397 0.133 Uiso 1 1 calc R U . . .
C31 C 0.3802(4) 0.7241(7) 0.3830(3) 0.118(3) Uani 1 1 d . U . . .
H31A H 0.3543 0.7733 0.3721 0.141 Uiso 1 1 calc R U . . .
C32 C 0.3763(3) 0.6770(5) 0.4193(2) 0.092(2) Uani 1 1 d . U . . .
H32A H 0.3493 0.6982 0.4339 0.110 Uiso 1 1 calc R U . . .
C33 C 0.3376(3) 0.4073(5) 0.40813(19) 0.0596(16) Uani 1 1 d . U . . .
C34 C 0.3599(3) 0.3666(6) 0.3754(2) 0.082(2) Uani 1 1 d . U . . .
H34A H 0.3937 0.3336 0.3798 0.099 Uiso 1 1 calc R U . . .
C35 C 0.3322(3) 0.3752(6) 0.3368(2) 0.086(2) Uani 1 1 d . U . . .
H35A H 0.3482 0.3485 0.3157 0.103 Uiso 1 1 calc R U . . .
C36 C 0.2823(3) 0.4213(5) 0.3285(2) 0.0709(18) Uani 1 1 d . U . . .
C37 C 0.2620(3) 0.4664(5) 0.3607(2) 0.082(2) Uani 1 1 d . U . . .
H37A H 0.2293 0.5031 0.3560 0.098 Uiso 1 1 calc R U . . .
C38 C 0.2889(3) 0.4583(5) 0.3991(2) 0.0748(19) Uani 1 1 d . U . . .
H38A H 0.2735 0.4887 0.4198 0.090 Uiso 1 1 calc R U . . .
C39 C 0.2539(3) 0.4169(5) 0.2875(2) 0.082(2) Uani 1 1 d . U . . .
H39A H 0.2738 0.3857 0.2694 0.098 Uiso 1 1 calc R U . . .
C40 C 0.2050(4) 0.4492(6) 0.27140(19) 0.098(2) Uani 1 1 d D U . . .
C41 C 0.1876(4) 0.4297(7) 0.2290(2) 0.123(3) Uani 1 1 d D U . . .
C43 C 0.3294(3) 0.1960(5) 0.44849(19) 0.0619(17) Uani 1 1 d . U . . .
C44 C 0.3501(3) 0.1341(6) 0.4208(2) 0.083(2) Uani 1 1 d . U . . .
H44A H 0.3829 0.1537 0.4129 0.100 Uiso 1 1 calc R U . . .
C45 C 0.3243(4) 0.0441(6) 0.4043(2) 0.091(2) Uani 1 1 d . U . . .
H45A H 0.3397 0.0048 0.3855 0.109 Uiso 1 1 calc R U . . .
C46 C 0.2762(3) 0.0124(5) 0.4152(2) 0.079(2) Uani 1 1 d . U . . .
C47 C 0.2534(3) 0.0768(6) 0.4415(3) 0.097(2) Uani 1 1 d . U . . .
H47A H 0.2200 0.0588 0.4487 0.116 Uiso 1 1 calc R U . . .
C48 C 0.2793(3) 0.1664(5) 0.4570(2) 0.085(2) Uani 1 1 d . U . . .
H48A H 0.2625 0.2089 0.4740 0.102 Uiso 1 1 calc R U . . .
C49 C 0.2525(3) -0.0887(6) 0.4003(2) 0.092(2) Uani 1 1 d . U . . .
H49A H 0.2567 -0.1068 0.3742 0.110 Uiso 1 1 calc R U . . .
C50 C 0.2255(3) -0.1583(5) 0.4199(2) 0.093(2) Uani 1 1 d D U . . .
C52 C 0.2123(4) -0.1438(6) 0.4600(3) 0.097(3) Uani 1 1 d D U . . .
C53 C 0.3800(3) 0.1112(5) 0.5297(2) 0.0708(19) Uani 1 1 d . U . . .
C54 C 0.4208(3) 0.0720(5) 0.5111(2) 0.076(2) Uani 1 1 d . U . . .
H54A H 0.4491 0.1167 0.5069 0.091 Uiso 1 1 calc R U . . .
C55 C 0.4215(4) -0.0323(6) 0.4982(2) 0.098(2) Uani 1 1 d . U . . .
H55A H 0.4493 -0.0569 0.4851 0.118 Uiso 1 1 calc R U . . .
C56 C 0.3803(4) -0.0982(6) 0.5052(3) 0.100(2) Uani 1 1 d . U . . .
H56A H 0.3807 -0.1687 0.4972 0.120 Uiso 1 1 calc R U . . .
C57 C 0.3391(4) -0.0626(6) 0.5237(3) 0.111(3) Uani 1 1 d . U . . .
H57A H 0.3113 -0.1084 0.5281 0.133 Uiso 1 1 calc R U . . .
C58 C 0.3382(3) 0.0422(6) 0.5359(3) 0.098(2) Uani 1 1 d . U . . .
H58A H 0.3097 0.0666 0.5484 0.117 Uiso 1 1 calc R U . . .
C59 C 0.3289(4) 0.4068(7) 0.69438(18) 0.075(2) Uani 0.722(10) 1 d G U P C 1
C60 C 0.3607(3) 0.4130(7) 0.7319(2) 0.090(3) Uani 0.722(10) 1 d G U P C 1
H60A H 0.3963 0.4370 0.7343 0.108 Uiso 0.722(10) 1 calc R U P C 1
C61 C 0.3392(4) 0.3832(7) 0.76604(18) 0.103(3) Uani 0.722(10) 1 d G U P C 1
H61A H 0.3605 0.3873 0.7912 0.124 Uiso 0.722(10) 1 calc R U P C 1
C62 C 0.2859(4) 0.3473(7) 0.7626(2) 0.102(3) Uani 0.722(10) 1 d G U P C 1
H62A H 0.2716 0.3273 0.7854 0.122 Uiso 0.722(10) 1 calc R U P C 1
C63 C 0.2541(3) 0.3411(6) 0.7250(2) 0.095(3) Uani 0.722(10) 1 d G U P C 1
H63A H 0.2185 0.3171 0.7227 0.114 Uiso 0.722(10) 1 calc R U P C 1
C64 C 0.2756(4) 0.3709(6) 0.69089(19) 0.082(3) Uani 0.722(10) 1 d G U P C 1
H64A H 0.2543 0.3668 0.6658 0.099 Uiso 0.722(10) 1 calc R U P C 1
C59A C 0.3556(9) 0.4121(19) 0.7010(5) 0.075(2) Uani 0.278(10) 1 d G U P C 2
C60A C 0.3908(8) 0.4355(18) 0.7360(6) 0.090(3) Uani 0.278(10) 1 d G U P C 2
H60B H 0.4242 0.4672 0.7346 0.108 Uiso 0.278(10) 1 calc R U P C 2
C61A C 0.3761(10) 0.4116(19) 0.7732(5) 0.103(3) Uani 0.278(10) 1 d G U P C 2
H61B H 0.3997 0.4273 0.7966 0.124 Uiso 0.278(10) 1 calc R U P C 2
C62A C 0.3263(11) 0.3643(19) 0.7754(5) 0.102(3) Uani 0.278(10) 1 d G U P C 2
H62B H 0.3164 0.3483 0.8003 0.122 Uiso 0.278(10) 1 calc R U P C 2
C63A C 0.2910(9) 0.3409(17) 0.7404(7) 0.095(3) Uani 0.278(10) 1 d G U P C 2
H63B H 0.2577 0.3092 0.7419 0.114 Uiso 0.278(10) 1 calc R U P C 2
C64A C 0.3057(9) 0.3648(18) 0.7032(5) 0.082(3) Uani 0.278(10) 1 d G U P C 2
H64B H 0.2822 0.3491 0.6798 0.099 Uiso 0.278(10) 1 calc R U P C 2
loop_
_atom_site_aniso_label
_atom_site_aniso_U_11
_atom_site_aniso_U_22
_atom_site_aniso_U_33
_atom_site_aniso_U_23
_atom_site_aniso_U_13
_atom_site_aniso_U_12
Ni 0.0689(6) 0.0516(5) 0.0483(5) -0.0010(4) 0.0109(4) 0.0046(4)
O1 0.179(6) 0.127(5) 0.127(5) -0.014(4) 0.078(5) -0.005(5)
O2 0.230(8) 0.176(7) 0.112(5) -0.064(5) 0.061(5) -0.036(6)
N5 0.167(7) 0.109(6) 0.113(6) -0.020(4) 0.064(6) -0.007(5)
N1 0.091(4) 0.058(3) 0.060(3) -0.001(2) 0.022(3) 0.006(3)
C1 0.093(5) 0.070(4) 0.062(4) -0.003(3) 0.020(4) 0.007(3)
C2 0.123(6) 0.079(4) 0.067(4) -0.016(3) 0.034(4) 0.002(4)
C3 0.099(6) 0.088(5) 0.071(4) -0.011(4) 0.023(4) 0.008(4)
C4 0.081(5) 0.068(4) 0.069(4) -0.010(3) 0.016(3) 0.003(3)
N2 0.069(3) 0.055(3) 0.058(3) -0.002(2) 0.009(3) -0.001(2)
C6 0.073(5) 0.064(4) 0.068(4) -0.007(3) 0.013(3) 0.000(3)
C7 0.087(5) 0.062(4) 0.075(4) -0.004(3) 0.018(4) -0.011(3)
C8 0.083(5) 0.062(4) 0.063(4) -0.003(3) 0.013(3) -0.012(3)
C9 0.068(4) 0.046(3) 0.057(3) 0.000(3) 0.015(3) 0.004(3)
N3 0.071(4) 0.047(3) 0.048(3) 0.000(2) 0.012(2) 0.005(2)
C11 0.071(4) 0.053(3) 0.048(3) 0.001(2) 0.008(3) 0.002(3)
C12 0.066(4) 0.048(3) 0.053(3) 0.004(2) 0.003(3) 0.000(3)
C13 0.068(4) 0.056(3) 0.055(3) -0.003(3) 0.011(3) -0.001(3)
C14 0.060(4) 0.051(3) 0.056(3) 0.000(2) 0.009(3) -0.001(3)
N4 0.096(4) 0.063(3) 0.051(3) 0.002(2) 0.014(3) 0.003(3)
C16 0.111(6) 0.059(4) 0.057(3) 0.008(3) 0.017(3) 0.004(3)
C17 0.175(9) 0.061(4) 0.078(5) 0.015(3) 0.044(5) 0.016(4)
C18 0.153(6) 0.075(4) 0.081(4) 0.008(3) 0.041(4) 0.002(4)
C19 0.129(7) 0.069(4) 0.062(4) 0.007(3) 0.034(4) 0.006(4)
N6 0.190(9) 0.141(7) 0.094(5) -0.003(5) -0.024(5) 0.017(6)
C42 0.109(6) 0.114(5) 0.095(5) -0.008(4) -0.011(4) 0.013(4)
N7 0.146(8) 0.160(7) 0.151(8) -0.031(5) -0.003(6) 0.039(5)
C42A 0.109(6) 0.114(5) 0.095(5) -0.008(4) -0.011(4) 0.013(4)
N7A 0.146(8) 0.160(7) 0.151(8) -0.031(5) -0.003(6) 0.039(5)
C51 0.101(7) 0.073(4) 0.115(7) -0.006(4) 0.010(5) -0.012(4)
N8 0.126(11) 0.086(5) 0.142(11) -0.018(6) 0.015(8) -0.024(5)
C51A 0.101(7) 0.073(4) 0.115(7) -0.006(4) 0.010(5) -0.012(4)
N8A 0.126(11) 0.086(5) 0.142(11) -0.018(6) 0.015(8) -0.024(5)
N9 0.116(6) 0.120(6) 0.144(6) -0.018(5) 0.020(6) -0.007(5)
C5 0.080(5) 0.071(4) 0.065(4) -0.008(3) 0.011(3) 0.003(3)
C10 0.063(4) 0.048(3) 0.054(3) 0.003(2) 0.013(3) 0.008(3)
C15 0.074(5) 0.053(3) 0.064(3) 0.000(3) 0.012(3) 0.000(3)
C20 0.107(5) 0.072(4) 0.067(4) 0.003(3) 0.024(3) 0.004(3)
C21 0.079(5) 0.076(4) 0.091(5) -0.026(4) 0.014(4) -0.007(4)
C22 0.089(6) 0.111(5) 0.095(5) -0.026(4) 0.016(4) -0.015(4)
C23 0.092(6) 0.128(6) 0.134(7) -0.045(5) 0.010(5) -0.022(5)
C24 0.130(8) 0.120(6) 0.133(8) -0.035(5) 0.016(6) -0.034(6)
C25 0.143(8) 0.091(5) 0.130(7) -0.036(5) 0.012(6) -0.024(5)
C26 0.138(7) 0.082(5) 0.100(6) -0.024(4) 0.012(5) -0.010(4)
C27 0.074(4) 0.049(4) 0.059(4) 0.003(3) 0.009(3) -0.007(3)
C28 0.107(6) 0.112(6) 0.080(5) 0.029(4) 0.030(4) 0.033(5)
C29 0.133(7) 0.141(7) 0.085(5) 0.026(5) 0.032(5) 0.005(5)
C30 0.142(8) 0.106(6) 0.084(6) 0.033(5) 0.016(5) -0.011(5)
C31 0.160(8) 0.092(6) 0.101(6) 0.035(5) 0.022(5) 0.023(5)
C32 0.125(6) 0.068(4) 0.083(5) 0.020(4) 0.017(4) 0.021(4)
C33 0.069(4) 0.051(4) 0.057(3) -0.002(3) 0.002(3) -0.007(3)
C34 0.082(5) 0.100(5) 0.065(4) -0.001(4) 0.006(3) 0.027(4)
C35 0.093(5) 0.112(6) 0.054(4) -0.006(4) 0.012(3) 0.022(4)
C36 0.082(5) 0.067(4) 0.062(4) 0.009(3) 0.006(3) 0.000(4)
C37 0.090(5) 0.083(5) 0.068(4) 0.001(4) -0.001(3) 0.017(4)
C38 0.076(4) 0.082(5) 0.064(4) -0.004(3) 0.004(3) 0.013(4)
C39 0.097(5) 0.075(5) 0.071(4) 0.008(3) 0.003(3) -0.001(4)
C40 0.111(5) 0.097(5) 0.078(5) -0.003(4) -0.014(4) 0.011(4)
C41 0.157(8) 0.113(6) 0.087(5) -0.001(5) -0.020(5) 0.009(6)
C43 0.072(4) 0.057(3) 0.057(4) 0.002(3) 0.009(3) 0.000(3)
C44 0.091(5) 0.085(4) 0.077(5) -0.024(4) 0.023(4) -0.013(4)
C45 0.106(5) 0.085(5) 0.085(5) -0.031(4) 0.024(4) -0.012(4)
C46 0.087(5) 0.066(4) 0.078(5) -0.005(3) -0.004(4) 0.003(3)
C47 0.090(5) 0.071(4) 0.132(6) -0.022(4) 0.025(5) -0.014(4)
C48 0.081(5) 0.062(4) 0.117(6) -0.028(4) 0.029(4) -0.009(3)
C49 0.096(6) 0.076(4) 0.097(5) -0.011(4) -0.005(4) -0.007(4)
C50 0.085(6) 0.065(4) 0.120(5) -0.005(4) -0.011(4) -0.003(4)
C52 0.082(6) 0.075(5) 0.131(6) -0.006(5) 0.000(5) 0.002(4)
C53 0.088(5) 0.057(3) 0.070(4) 0.000(3) 0.021(4) -0.003(3)
C54 0.095(5) 0.056(4) 0.079(5) -0.004(3) 0.017(4) 0.000(3)
C55 0.113(6) 0.067(4) 0.114(6) -0.017(4) 0.019(5) 0.015(4)
C56 0.109(5) 0.071(4) 0.113(5) 0.001(4) -0.009(4) 0.005(4)
C57 0.109(6) 0.070(4) 0.153(8) 0.015(5) 0.016(5) -0.011(4)
C58 0.097(6) 0.067(4) 0.133(7) 0.018(4) 0.028(5) -0.007(4)
C59 0.088(5) 0.075(4) 0.066(3) 0.002(3) 0.019(3) 0.006(4)
C60 0.096(5) 0.102(5) 0.074(4) 0.008(4) 0.014(4) -0.002(4)
C61 0.125(6) 0.109(6) 0.079(4) 0.012(4) 0.028(4) 0.003(5)
C62 0.122(6) 0.098(5) 0.090(5) 0.011(4) 0.028(4) 0.005(5)
C63 0.110(6) 0.085(5) 0.096(5) 0.007(4) 0.032(4) 0.002(5)
C64 0.093(5) 0.077(5) 0.080(4) 0.002(4) 0.020(4) -0.002(4)
C59A 0.088(5) 0.075(4) 0.066(3) 0.002(3) 0.019(3) 0.006(4)
C60A 0.096(5) 0.102(5) 0.074(4) 0.008(4) 0.014(4) -0.002(4)
C61A 0.125(6) 0.109(6) 0.079(4) 0.012(4) 0.028(4) 0.003(5)
C62A 0.122(6) 0.098(5) 0.090(5) 0.011(4) 0.028(4) 0.005(5)
C63A 0.110(6) 0.085(5) 0.096(5) 0.007(4) 0.032(4) 0.002(5)
C64A 0.093(5) 0.077(5) 0.080(4) 0.002(4) 0.020(4) -0.002(4)
loop_
_atom_type_symbol
_atom_type_description
_atom_type_scat_dispersion_real
_atom_type_scat_dispersion_imag
_atom_type_scat_source
C C 0.0033 0.0016 'International Tables Vol C Tables 4.2.6.8 and 6.1.1.4'
H H 0.0000 0.0000 'International Tables Vol C Tables 4.2.6.8 and 6.1.1.4'
N N 0.0061 0.0033 'International Tables Vol C Tables 4.2.6.8 and 6.1.1.4'
O O 0.0106 0.0060 'International Tables Vol C Tables 4.2.6.8 and 6.1.1.4'
Ni Ni 0.3393 1.1124 'International Tables Vol C Tables 4.2.6.8 and 6.1.1.4'
loop_
_geom_angle_atom_site_label_1
_geom_angle_atom_site_label_2
_geom_angle_atom_site_label_3
_geom_angle
N4 Ni N2 174.1(2)
N4 Ni N1 90.4(2)
N2 Ni N1 90.2(2)
N4 Ni N3 89.6(2)
N2 Ni N3 90.5(2)
N1 Ni N3 173.4(2)
O2 N5 O1 122.5(10)
O2 N5 C2 121.9(10)
O1 N5 C2 115.3(9)
C4 N1 C1 105.0(5)
C4 N1 Ni 127.3(4)
C1 N1 Ni 126.4(4)
C20 C1 N1 122.7(6)
C20 C1 C2 128.1(6)
N1 C1 C2 107.9(6)
C3 C2 C1 110.7(6)
C3 C2 N5 119.3(7)
C1 C2 N5 129.7(7)
C2 C3 C4 103.8(6)
N1 C4 C5 124.4(6)
N1 C4 C3 112.2(6)
C5 C4 C3 123.4(6)
C9 N2 C6 104.6(5)
C9 N2 Ni 127.2(4)
C6 N2 Ni 127.1(4)
N2 C6 C5 123.2(6)
N2 C6 C7 109.8(6)
C5 C6 C7 126.3(6)
C8 C7 C6 107.7(6)
C8 C7 H7A 126.2
C6 C7 H7A 126.2
C7 C8 C9 107.4(6)
C7 C8 H8A 126.3
C9 C8 H8A 126.3
N2 C9 C10 124.3(5)
N2 C9 C8 110.2(5)
C10 C9 C8 125.4(6)
C14 N3 C11 105.2(4)
C14 N3 Ni 128.1(4)
C11 N3 Ni 125.9(4)
N3 C11 C10 123.0(5)
N3 C11 C12 110.6(5)
C10 C11 C12 125.2(5)
C13 C12 C11 106.6(5)
C13 C12 C33 122.8(5)
C11 C12 C33 130.0(5)
C12 C13 C14 107.3(5)
C12 C13 C43 125.7(6)
C14 C13 C43 126.5(5)
N3 C14 C15 122.8(5)
N3 C14 C13 110.0(5)
C15 C14 C13 127.2(5)
C19 N4 C16 105.0(5)
C19 N4 Ni 127.6(4)
C16 N4 Ni 126.2(4)
C15 C16 N4 124.3(6)
C15 C16 C17 125.4(6)
N4 C16 C17 109.6(6)
C18 C17 C16 106.7(6)
C18 C17 H17A 126.6
C16 C17 H17A 126.6
C17 C18 C19 108.3(6)
C17 C18 H18A 125.9
C19 C18 H18A 125.9
N4 C19 C20 124.7(6)
N4 C19 C18 110.0(6)
C20 C19 C18 125.2(6)
N7 C42 C40 173.2(14)
N7A C42A C40 170(4)
N8 C51 C50 170(3)
N8A C51A C50 176.9(16)
C6 C5 C4 121.4(6)
C6 C5 C21 119.4(6)
C4 C5 C21 119.0(6)
C9 C10 C11 121.0(5)
C9 C10 C27 115.8(5)
C11 C10 C27 122.8(5)
C16 C15 C14 121.4(5)
C16 C15 C53 119.5(6)
C14 C15 C53 119.1(6)
C1 C20 C19 121.9(6)
C1 C20 C59A 114.2(11)
C19 C20 C59A 118.7(11)
C1 C20 C59 123.1(6)
C19 C20 C59 114.9(6)
C22 C21 C26 118.5(8)
C22 C21 C5 120.6(7)
C26 C21 C5 121.0(8)
C21 C22 C23 120.3(9)
C21 C22 H22A 119.8
C23 C22 H22A 119.8
C24 C23 C22 119.4(10)
C24 C23 H23A 120.3
C22 C23 H23A 120.3
C25 C24 C23 120.9(10)
C25 C24 H24A 119.5
C23 C24 H24A 119.5
C24 C25 C26 120.1(10)
C24 C25 H25A 120.0
C26 C25 H25A 120.0
C21 C26 C25 120.8(9)
C21 C26 H26A 119.6
C25 C26 H26A 119.6
C28 C27 C32 118.7(6)
C28 C27 C10 121.8(6)
C32 C27 C10 119.0(6)
C27 C28 C29 120.4(8)
C27 C28 H28A 119.8
C29 C28 H28A 119.8
C30 C29 C28 119.1(9)
C30 C29 H29A 120.4
C28 C29 H29A 120.4
C29 C30 C31 121.7(9)
C29 C30 H30A 119.1
C31 C30 H30A 119.1
C30 C31 C32 119.8(9)
C30 C31 H31A 120.1
C32 C31 H31A 120.1
C31 C32 C27 120.0(8)
C31 C32 H32A 120.0
C27 C32 H32A 120.0
C38 C33 C34 116.1(6)
C38 C33 C12 121.1(6)
C34 C33 C12 122.4(6)
C35 C34 C33 120.7(7)
C35 C34 H34A 119.7
C33 C34 H34A 119.7
C36 C35 C34 122.4(7)
C36 C35 H35A 118.8
C34 C35 H35A 118.8
C35 C36 C37 116.4(7)
C35 C36 C39 118.4(7)
C37 C36 C39 125.2(7)
C38 C37 C36 121.6(7)
C38 C37 H37A 119.2
C36 C37 H37A 119.2
C33 C38 C37 122.6(7)
C33 C38 H38A 118.7
C37 C38 H38A 118.7
C40 C39 C36 131.6(7)
C40 C39 H39A 114.2
C36 C39 H39A 114.2
C39 C40 C41 118.3(8)
C39 C40 C42 128.4(7)
C41 C40 C42 112.9(8)
C39 C40 C42A 119(2)
C41 C40 C42A 110.7(18)
N6 C41 C40 178.4(12)
C48 C43 C44 115.7(6)
C48 C43 C13 119.5(6)
C44 C43 C13 124.7(6)
C43 C44 C45 122.8(7)
C43 C44 H44A 118.6
C45 C44 H44A 118.6
C46 C45 C44 120.3(7)
C46 C45 H45A 119.8
C44 C45 H45A 119.8
C45 C46 C47 117.5(7)
C45 C46 C49 119.1(7)
C47 C46 C49 123.3(8)
C48 C47 C46 121.0(8)
C48 C47 H47A 119.5
C46 C47 H47A 119.5
C47 C48 C43 122.4(7)
C47 C48 H48A 118.8
C43 C48 H48A 118.8
C50 C49 C46 127.5(7)
C50 C49 H49A 116.3
C46 C49 H49A 116.3
C49 C50 C52 125.4(6)
C49 C50 C51A 125.6(11)
C52 C50 C51A 109.0(11)
C49 C50 C51 104.1(19)
C52 C50 C51 130.3(19)
N9 C52 C50 174.3(10)
C54 C53 C58 117.8(7)
C54 C53 C15 120.9(6)
C58 C53 C15 121.3(7)
C53 C54 C55 122.2(7)
C53 C54 H54A 118.9
C55 C54 H54A 118.9
C56 C55 C54 118.5(8)
C56 C55 H55A 120.7
C54 C55 H55A 120.7
C57 C56 C55 121.2(8)
C57 C56 H56A 119.4
C55 C56 H56A 119.4
C56 C57 C58 120.0(8)
C56 C57 H57A 120.0
C58 C57 H57A 120.0
C57 C58 C53 120.3(8)
C57 C58 H58A 119.9
C53 C58 H58A 119.9
C60 C59 C64 120.0
C60 C59 C20 115.5(6)
C64 C59 C20 124.3(6)
C59 C60 C61 120.0
C59 C60 H60A 120.0
C61 C60 H60A 120.0
C60 C61 C62 120.0
C60 C61 H61A 120.0
C62 C61 H61A 120.0
C63 C62 C61 120.0
C63 C62 H62A 120.0
C61 C62 H62A 120.0
C62 C63 C64 120.0
C62 C63 H63A 120.0
C64 C63 H63A 120.0
C63 C64 C59 120.0
C63 C64 H64A 120.0
C59 C64 H64A 120.0
C60A C59A C64A 120.0
C60A C59A C20 132.2(13)
C64A C59A C20 107.7(13)
C59A C60A C61A 120.0
C59A C60A H60B 120.0
C61A C60A H60B 120.0
C62A C61A C60A 120.0
C62A C61A H61B 120.0
C60A C61A H61B 120.0
C63A C62A C61A 120.0
C63A C62A H62B 120.0
C61A C62A H62B 120.0
C62A C63A C64A 120.0
C62A C63A H63B 120.0
C64A C63A H63B 120.0
C63A C64A C59A 120.0
C63A C64A H64B 120.0
C59A C64A H64B 120.0
loop_
_geom_bond_atom_site_label_1
_geom_bond_atom_site_label_2
_geom_bond_distance
Ni N4 1.899(5)
Ni N2 1.912(5)
Ni N1 1.919(5)
Ni N3 1.929(4)
O1 N5 1.248(10)
O2 N5 1.220(10)
N5 C2 1.437(10)
N1 C4 1.389(7)
N1 C1 1.402(7)
C1 C20 1.377(9)
C1 C2 1.436(8)
C2 C3 1.357(8)
C3 C4 1.447(8)
C4 C5 1.399(9)
N2 C9 1.384(7)
N2 C6 1.388(7)
C6 C5 1.394(8)
C6 C7 1.418(8)
C7 C8 1.340(7)
C7 H7A 0.9300
C8 C9 1.416(7)
C8 H8A 0.9300
C9 C10 1.394(8)
N3 C14 1.369(6)
N3 C11 1.381(6)
C11 C10 1.415(8)
C11 C12 1.442(7)
C12 C13 1.340(7)
C12 C33 1.484(8)
C13 C14 1.455(7)
C13 C43 1.488(8)
C14 C15 1.422(8)
N4 C19 1.386(7)
N4 C16 1.395(7)
C16 C15 1.358(8)
C16 C17 1.448(8)
C17 C18 1.341(8)
C17 H17A 0.9300
C18 C19 1.428(8)
C18 H18A 0.9300
C19 C20 1.402(9)
N6 C41 1.152(6)
C42 N7 1.149(6)
C42 C40 1.452(7)
C42A N7A 1.153(7)
C42A C40 1.453(8)
C51 N8 1.154(7)
C51 C50 1.454(8)
C51A N8A 1.150(6)
C51A C50 1.449(7)
N9 C52 1.151(6)
C5 C21 1.509(9)
C10 C27 1.483(8)
C15 C53 1.508(9)
C20 C59A 1.482(15)
C20 C59 1.553(9)
C21 C22 1.360(10)
C21 C26 1.386(10)
C22 C23 1.404(11)
C22 H22A 0.9300
C23 C24 1.379(12)
C23 H23A 0.9300
C24 C25 1.321(13)
C24 H24A 0.9300
C25 C26 1.395(11)
C25 H25A 0.9300
C26 H26A 0.9300
C27 C28 1.374(9)
C27 C32 1.393(9)
C28 C29 1.398(10)
C28 H28A 0.9300
C29 C30 1.345(12)
C29 H29A 0.9300
C30 C31 1.360(12)
C30 H30A 0.9300
C31 C32 1.375(10)
C31 H31A 0.9300
C32 H32A 0.9300
C33 C38 1.364(8)
C33 C34 1.404(9)
C34 C35 1.382(9)
C34 H34A 0.9300
C35 C36 1.361(9)
C35 H35A 0.9300
C36 C37 1.385(9)
C36 C39 1.454(9)
C37 C38 1.367(9)
C37 H37A 0.9300
C38 H38A 0.9300
C39 C40 1.321(10)
C39 H39A 0.9300
C40 C41 1.449(7)
C43 C48 1.373(9)
C43 C44 1.375(8)
C44 C45 1.381(9)
C44 H44A 0.9300
C45 C46 1.366(10)
C45 H45A 0.9300
C46 C47 1.384(10)
C46 C49 1.462(9)
C47 C48 1.365(9)
C47 H47A 0.9300
C48 H48A 0.9300
C49 C50 1.339(10)
C49 H49A 0.9300
C50 C52 1.448(7)
C53 C54 1.363(9)
C53 C58 1.398(9)
C54 C55 1.386(9)
C54 H54A 0.9300
C55 C56 1.367(11)
C55 H55A 0.9300
C56 C57 1.355(11)
C56 H56A 0.9300
C57 C58 1.385(10)
C57 H57A 0.9300
C58 H58A 0.9300
C59 C60 1.3900
C59 C64 1.3900
C60 C61 1.3900
C60 H60A 0.9300
C61 C62 1.3900
C61 H61A 0.9300
C62 C63 1.3900
C62 H62A 0.9300
C63 C64 1.3900
C63 H63A 0.9300
C64 H64A 0.9300
C59A C60A 1.3900
C59A C64A 1.3900
C60A C61A 1.3900
C60A H60B 0.9300
C61A C62A 1.3900
C61A H61B 0.9300
C62A C63A 1.3900
C62A H62B 0.9300
C63A C64A 1.3900
C63A H63B 0.9300
C64A H64B 0.9300
loop_
_geom_torsion_atom_site_label_1
_geom_torsion_atom_site_label_2
_geom_torsion_atom_site_label_3
_geom_torsion_atom_site_label_4
_geom_torsion
C4 N1 C1 C20 -163.8(7)
Ni N1 C1 C20 28.1(10)
C4 N1 C1 C2 4.6(8)
Ni N1 C1 C2 -163.4(5)
C20 C1 C2 C3 161.2(8)
N1 C1 C2 C3 -6.4(9)
C20 C1 C2 N5 -24.4(14)
N1 C1 C2 N5 168.0(9)
O2 N5 C2 C3 -41.7(13)
O1 N5 C2 C3 131.7(9)
O2 N5 C2 C1 144.4(10)
O1 N5 C2 C1 -42.3(13)
C1 C2 C3 C4 5.1(9)
N5 C2 C3 C4 -169.9(8)
C1 N1 C4 C5 177.1(7)
Ni N1 C4 C5 -14.9(10)
C1 N1 C4 C3 -1.6(8)
Ni N1 C4 C3 166.3(5)
C2 C3 C4 N1 -2.2(9)
C2 C3 C4 C5 179.0(7)
C9 N2 C6 C5 164.8(6)
Ni N2 C6 C5 -26.7(9)
C9 N2 C6 C7 -5.8(7)
Ni N2 C6 C7 162.7(4)
N2 C6 C7 C8 4.5(8)
C5 C6 C7 C8 -165.7(7)
C6 C7 C8 C9 -1.2(8)
C6 N2 C9 C10 -173.1(6)
Ni N2 C9 C10 18.4(8)
C6 N2 C9 C8 5.1(7)
Ni N2 C9 C8 -163.4(4)
C7 C8 C9 N2 -2.5(7)
C7 C8 C9 C10 175.7(6)
C14 N3 C11 C10 -161.4(6)
Ni N3 C11 C10 28.8(8)
C14 N3 C11 C12 6.7(7)
Ni N3 C11 C12 -163.2(4)
N3 C11 C12 C13 -5.2(7)
C10 C11 C12 C13 162.5(6)
N3 C11 C12 C33 165.3(6)
C10 C11 C12 C33 -26.9(11)
C11 C12 C13 C14 1.5(7)
C33 C12 C13 C14 -169.8(6)
C11 C12 C13 C43 174.4(6)
C33 C12 C13 C43 3.0(10)
C11 N3 C14 C15 176.2(6)
Ni N3 C14 C15 -14.2(8)
C11 N3 C14 C13 -5.6(7)
Ni N3 C14 C13 163.9(4)
C12 C13 C14 N3 2.6(7)
C43 C13 C14 N3 -170.2(6)
C12 C13 C14 C15 -179.4(6)
C43 C13 C14 C15 7.9(10)
N1 Ni N4 C19 4.7(6)
N3 Ni N4 C19 -168.7(6)
N1 Ni N4 C16 -160.7(6)
N3 Ni N4 C16 26.0(6)
C19 N4 C16 C15 165.4(7)
Ni N4 C16 C15 -26.6(10)
C19 N4 C16 C17 -5.6(8)
Ni N4 C16 C17 162.4(5)
C15 C16 C17 C18 -165.9(8)
N4 C16 C17 C18 5.0(10)
C16 C17 C18 C19 -2.3(10)
C16 N4 C19 C20 -179.5(8)
Ni N4 C19 C20 12.7(11)
C16 N4 C19 C18 4.2(9)
Ni N4 C19 C18 -163.6(6)
C17 C18 C19 N4 -1.2(10)
C17 C18 C19 C20 -177.4(8)
N2 C6 C5 C4 3.2(10)
C7 C6 C5 C4 172.2(7)
N2 C6 C5 C21 -171.1(6)
C7 C6 C5 C21 -2.1(11)
N1 C4 C5 C6 17.8(11)
C3 C4 C5 C6 -163.6(7)
N1 C4 C5 C21 -167.9(7)
C3 C4 C5 C21 10.8(11)
N2 C9 C10 C11 -21.1(9)
C8 C9 C10 C11 161.0(6)
N2 C9 C10 C27 165.7(5)
C8 C9 C10 C27 -12.2(9)
N3 C11 C10 C9 -3.0(9)
C12 C11 C10 C9 -169.3(6)
N3 C11 C10 C27 169.7(6)
C12 C11 C10 C27 3.4(10)
N4 C16 C15 C14 -0.9(11)
C17 C16 C15 C14 168.7(7)
N4 C16 C15 C53 -179.0(7)
C17 C16 C15 C53 -9.4(11)
N3 C14 C15 C16 21.5(10)
C13 C14 C15 C16 -156.4(7)
N3 C14 C15 C53 -160.4(6)
C13 C14 C15 C53 21.7(10)
N1 C1 C20 C19 -5.8(11)
C2 C1 C20 C19 -171.8(8)
N1 C1 C20 C59A 148.4(12)
C2 C1 C20 C59A -17.5(15)
N1 C1 C20 C59 175.7(7)
C2 C1 C20 C59 9.8(13)
N4 C19 C20 C1 -14.9(12)
C18 C19 C20 C1 160.8(8)
N4 C19 C20 C59A -168.0(12)
C18 C19 C20 C59A 7.7(16)
N4 C19 C20 C59 163.7(7)
C18 C19 C20 C59 -20.6(12)
C6 C5 C21 C22 -120.3(8)
C4 C5 C21 C22 65.3(10)
C6 C5 C21 C26 59.0(10)
C4 C5 C21 C26 -115.4(8)
C26 C21 C22 C23 -0.9(12)
C5 C21 C22 C23 178.4(7)
C21 C22 C23 C24 0.0(13)
C22 C23 C24 C25 2.2(16)
C23 C24 C25 C26 -3.4(16)
C22 C21 C26 C25 -0.3(12)
C5 C21 C26 C25 -179.6(8)
C24 C25 C26 C21 2.5(15)
C9 C10 C27 C28 86.0(8)
C11 C10 C27 C28 -87.0(9)
C9 C10 C27 C32 -86.1(8)
C11 C10 C27 C32 100.9(7)
C32 C27 C28 C29 0.2(12)
C10 C27 C28 C29 -171.9(7)
C27 C28 C29 C30 -0.5(14)
C28 C29 C30 C31 -2.0(15)
C29 C30 C31 C32 4.6(15)
C30 C31 C32 C27 -4.8(13)
C28 C27 C32 C31 2.4(11)
C10 C27 C32 C31 174.8(7)
C13 C12 C33 C38 97.8(8)
C11 C12 C33 C38 -71.4(9)
C13 C12 C33 C34 -74.6(9)
C11 C12 C33 C34 116.2(8)
C38 C33 C34 C35 -2.5(10)
C12 C33 C34 C35 170.3(6)
C33 C34 C35 C36 -1.0(12)
C34 C35 C36 C37 4.5(11)
C34 C35 C36 C39 -173.7(7)
C35 C36 C37 C38 -4.6(11)
C39 C36 C37 C38 173.5(7)
C34 C33 C38 C37 2.4(10)
C12 C33 C38 C37 -170.5(6)
C36 C37 C38 C33 1.2(11)
C35 C36 C39 C40 176.2(8)
C37 C36 C39 C40 -1.9(13)
C36 C39 C40 C41 -177.8(8)
C36 C39 C40 C42 -5.9(16)
C36 C39 C40 C42A 43(2)
C12 C13 C43 C48 -106.0(8)
C14 C13 C43 C48 65.5(9)
C12 C13 C43 C44 72.2(10)
C14 C13 C43 C44 -116.3(8)
C48 C43 C44 C45 -3.8(11)
C13 C43 C44 C45 178.0(7)
C43 C44 C45 C46 -0.3(12)
C44 C45 C46 C47 3.5(12)
C44 C45 C46 C49 -173.9(7)
C45 C46 C47 C48 -2.5(12)
C49 C46 C47 C48 174.8(8)
C46 C47 C48 C43 -1.8(13)
C44 C43 C48 C47 4.8(11)
C13 C43 C48 C47 -176.8(7)
C45 C46 C49 C50 143.2(9)
C47 C46 C49 C50 -34.0(13)
C46 C49 C50 C52 3.0(14)
C46 C49 C50 C51A -178.2(11)
C46 C49 C50 C51 -173(2)
N8 C51 C50 C49 -170(28)
N8 C51 C50 C52 15(30)
C16 C15 C53 C54 -121.3(8)
C14 C15 C53 C54 60.6(9)
C16 C15 C53 C58 61.6(10)
C14 C15 C53 C58 -116.6(8)
C58 C53 C54 C55 0.6(11)
C15 C53 C54 C55 -176.6(7)
C53 C54 C55 C56 -1.4(12)
C54 C55 C56 C57 1.2(13)
C55 C56 C57 C58 -0.3(14)
C56 C57 C58 C53 -0.5(13)
C54 C53 C58 C57 0.3(11)
C15 C53 C58 C57 177.6(7)
C1 C20 C59 C60 -68.7(9)
C19 C20 C59 C60 112.7(7)
C1 C20 C59 C64 116.1(8)
C19 C20 C59 C64 -62.4(9)
C64 C59 C60 C61 0.0
C20 C59 C60 C61 -175.3(7)
C59 C60 C61 C62 0.0
C60 C61 C62 C63 0.0
C61 C62 C63 C64 0.0
C62 C63 C64 C59 0.0
C60 C59 C64 C63 0.0
C20 C59 C64 C63 174.9(8)
C1 C20 C59A C60A -43(2)
C19 C20 C59A C60A 112.0(16)
C1 C20 C59A C64A 133.1(10)
C19 C20 C59A C64A -71.8(14)
C64A C59A C60A C61A 0.0
C20 C59A C60A C61A 176(2)
C59A C60A C61A C62A 0.0
C60A C61A C62A C63A 0.0
C61A C62A C63A C64A 0.0
C62A C63A C64A C59A 0.0
C60A C59A C64A C63A 0.0
C20 C59A C64A C63A -176.7(18)
