#------------------------------------------------------------------------------
#$Date: 2016-12-14 06:10:25 +0200 (Wed, 14 Dec 2016) $
#$Revision: 189113 $
#$URL: file:///home/coder/svn-repositories/cod/cif/7/22/72/7227265.cif $
#------------------------------------------------------------------------------
#
# This file is available in the Crystallography Open Database (COD),
# http://www.crystallography.net/
#
# All data on this site have been placed in the public domain by the
# contributors.
#
data_7227265
loop_
_publ_author_name
'Escudero, Eduardo Carmelo'
'Bauza, Antonio'
'Hern\'andez-Egu\'ia, Laura P'
'W\"urthner, Frank'
'Ballester, Pablo'
'Frontera, Antonio'
_publ_section_title
;
 Solid-state Inclusion of C60 and C70 in a Co-polymer Induced by
 Metal-Ligand Coordination of a Zn-Porphyrin Cage with a bis-pyridyl
 Perylene Derivative
;
_journal_name_full               CrystEngComm
_journal_paper_doi               10.1039/C6CE02341J
_journal_year                    2016
_chemical_formula_sum            'C384 H324 N12 O12 Zn2'
_chemical_formula_weight         5429.27
_chemical_name_systematic
;
 ?
;
_space_group_IT_number           15
_space_group_name_Hall           '-C 2yc'
_symmetry_cell_setting           monoclinic
_symmetry_space_group_name_Hall  '-C 2yc'
_symmetry_space_group_name_H-M   'C 1 2/c 1'
_atom_sites_solution_hydrogens   difmap
_audit_creation_method           SHELXL-2014
_audit_update_record
;
2016-11-29 deposited with the CCDC.
2016-12-13 downloaded from the CCDC.
;
_cell_angle_alpha                90
_cell_angle_beta                 92.683(3)
_cell_angle_gamma                90
_cell_formula_units_Z            4
_cell_length_a                   23.4161(15)
_cell_length_b                   37.487(2)
_cell_length_c                   32.528(2)
_cell_measurement_reflns_used    9860
_cell_measurement_temperature    100(2)
_cell_measurement_theta_max      28.32
_cell_measurement_theta_min      2.51
_cell_volume                     28522(3)
_computing_cell_refinement       'Bruker APEX2 v2014.9-0'
_computing_data_collection       'Bruker APEX2 v2014.9-0'
_computing_data_reduction        'Bruker SAINT V7.60A'
_computing_molecular_graphics    'Bruker SHELXTL'
_computing_publication_material  'Bruker SHELXTL'
_computing_structure_refinement  'SHELXL-2014 (Sheldrick, 2014)'
_computing_structure_solution    Sir2011
_diffrn_ambient_temperature      100(2)
_diffrn_detector_area_resol_mean 512
_diffrn_detector_type            '4K CCD area detector APEX II'
_diffrn_measured_fraction_theta_full 0.973
_diffrn_measured_fraction_theta_max 0.905
_diffrn_measurement_device_type  'APEX DUO Kappa 4-axis goniometer'
_diffrn_measurement_method
;
 Fullsphere data collection, phi and omega scans
;
_diffrn_measurement_specimen_support 'magnetic support with MicroMount'
_diffrn_radiation_monochromator  'Quazar MX Multilayer Optics'
_diffrn_radiation_type           MoK\a
_diffrn_radiation_wavelength     0.71073
_diffrn_reflns_av_R_equivalents  0.0768
_diffrn_reflns_av_unetI/netI     0.0653
_diffrn_reflns_Laue_measured_fraction_full 0.973
_diffrn_reflns_Laue_measured_fraction_max 0.905
_diffrn_reflns_limit_h_max       31
_diffrn_reflns_limit_h_min       -28
_diffrn_reflns_limit_k_max       50
_diffrn_reflns_limit_k_min       -48
_diffrn_reflns_limit_l_max       43
_diffrn_reflns_limit_l_min       -43
_diffrn_reflns_number            157990
_diffrn_reflns_point_group_measured_fraction_full 0.973
_diffrn_reflns_point_group_measured_fraction_max 0.905
_diffrn_reflns_theta_full        25.242
_diffrn_reflns_theta_max         28.578
_diffrn_reflns_theta_min         1.254
_diffrn_source                   'Microfocus source E025 IuS'
_diffrn_source_current           0.6
_diffrn_source_power             50
_diffrn_source_size              '0.2 mm x 0.2 mm fine focus'
_diffrn_source_type              'Bruker APEX DUO'
_exptl_absorpt_coefficient_mu    0.238
_exptl_absorpt_correction_T_max  0.981
_exptl_absorpt_correction_T_min  0.701
_exptl_absorpt_correction_type   multi-scan
_exptl_absorpt_process_details
; 
 SADABS Version 2008/1 Bruker-Nonius
 Blessing, Acta Cryst. (1995) A51 33-38
;
_exptl_crystal_colour            red
_exptl_crystal_density_diffrn    1.264
_exptl_crystal_description       block
_exptl_crystal_F_000             11472
_exptl_crystal_size_max          0.15
_exptl_crystal_size_mid          0.10
_exptl_crystal_size_min          0.08
_refine_diff_density_max         2.238
_refine_diff_density_min         -1.273
_refine_diff_density_rms         0.128
_refine_ls_extinction_method     none
_refine_ls_goodness_of_fit_ref   1.041
_refine_ls_hydrogen_treatment    noref
_refine_ls_matrix_type           full
_refine_ls_number_parameters     2593
_refine_ls_number_reflns         32986
_refine_ls_number_restraints     3045
_refine_ls_restrained_S_all      1.033
_refine_ls_R_factor_all          0.1472
_refine_ls_R_factor_gt           0.1076
_refine_ls_shift/su_max          0.005
_refine_ls_shift/su_mean         0.000
_refine_ls_structure_factor_coef Fsqd
_refine_ls_weighting_details
'w=1/[\s^2^(Fo^2^)+(0.1801P)^2^+211.9796P] where P=(Fo^2^+2Fc^2^)/3'
_refine_ls_weighting_scheme      calc
_refine_ls_wR_factor_gt          0.2956
_refine_ls_wR_factor_ref         0.3372
_reflns_Friedel_coverage         0.000
_reflns_number_gt                22503
_reflns_number_total             32986
_reflns_threshold_expression     'I > 2\s(I)'
_cod_data_source_file            c6ce02341j2.cif
_cod_data_source_block           LPH005C70111_0m
_cod_depositor_comments
;
The following automatic conversions were performed:

'_symmetry_cell_setting' value 'Monoclinic' changed to 'monoclinic'
according to
/usr/data/users/saulius/crontab/automatic-downloads/rss-feeds/RSC/lib/dictionaries/cif_core.dic
dictionary named 'cif_core.dic' version 2.4.2 from 2011-04-26.

'_exptl_absorpt_correction_type' value 'Multi-scan' changed to
'multi-scan' according to
/usr/data/users/saulius/crontab/automatic-downloads/rss-feeds/RSC/lib/dictionaries/cif_core.dic
dictionary named 'cif_core.dic' version 2.4.2 from 2011-04-26.

Automatic conversion script
Id: cif_fix_values 4268 2015-11-12 08:31:59Z antanas 
;
_cod_original_cell_volume        28521(3)
_cod_original_sg_symbol_H-M      C2/c
_cod_database_code               7227265
_shelx_space_group_comment
;
The symmetry employed for this shelxl refinement is uniquely defined
by the following loop, which should always be used as a source of
symmetry information in preference to the above space-group names.
They are only intended as comments.
;
_shelx_estimated_absorpt_t_min   0.965
_shelx_estimated_absorpt_t_max   0.981
_shelxl_version_number           2014-3
_shelx_res_file
;
TITL LPH005C70111_0m in C2/c
CELL 0.71073  23.4161  37.4865  32.5281  90.000  92.683  90.000
ZERR    4.00   0.0015   0.0023   0.0020   0.000   0.003   0.000
LATT 7
SYMM -X, Y, 0.5-Z
SFAC C  H  N  O  Zn
UNIT 1536  1296  48  48  8
rem shel 15 0
rem same 0.001 c1d' > C70'
rem omit -8   6  16
rem omit -4   6   2
rem omit -1  27  18
rem omit 3   7   9
omit -3 1 2
omit 1 1 0
omit 9 7 1
omit 5 3 14
L.S. 12
ACTA
BOND
FMAP 2
PLAN 60
SIZE 0.080 0.100 0.150
conf
DELU 0.02 C1D > C70D
DELU 0.01 C1D' > C70'
SIMU 0.02 C1D > C70D
SIMU 0.01 C1D' > C70'
ISOR 0.005 C1D > C70'
isor 0.003 c61d
TEMP -173.000
WGHT    0.180100  211.979614
FVAR       0.02224
MOLE 1
C1    1    0.508223    0.425986    0.656699    11.00000    0.02061    0.01685 =
         0.01501   -0.00155   -0.00124   -0.00105
C2    1    0.549581    0.426359    0.624942    11.00000    0.02085    0.02663 =
         0.01627   -0.00022    0.00007    0.00003
AFIX   1
H2    2    0.541800    0.429601    0.596290    11.00000   -1.20000
AFIX   0
C3    1    0.601627    0.421221    0.643915    11.00000    0.01971    0.02693 =
         0.01952   -0.00047    0.00105   -0.00092
AFIX   1
H3    2    0.637219    0.420082    0.631041    11.00000   -1.20000
AFIX   0
C4    1    0.592885    0.418422    0.687614    11.00000    0.01974    0.01640 =
         0.01846   -0.00087   -0.00070   -0.00092
C5    1    0.637358    0.414785    0.717706    11.00000    0.01503    0.01729 =
         0.02240    0.00120   -0.00110   -0.00076
C6    1    0.695379    0.405860    0.703268    11.00000    0.01626    0.02804 =
         0.01687    0.00105   -0.00267    0.00177
C7    1    0.709424    0.369911    0.697938    11.00000    0.02058    0.02811 =
         0.02301   -0.00535   -0.00228    0.00192
C8    1    0.762830    0.361267    0.682871    11.00000    0.02508    0.03598 =
         0.03576   -0.01058    0.00008    0.00523
AFIX   1
H8    2    0.772879    0.336954    0.679380    11.00000   -1.20000
AFIX   0
C9    1    0.801577    0.387643    0.672892    11.00000    0.01777    0.05331 =
         0.03331   -0.01389    0.00239    0.00032
C10   1    0.787344    0.423056    0.678892    11.00000    0.01772    0.04847 =
         0.03078   -0.00053    0.00069   -0.00782
AFIX   1
H10   2    0.813494    0.441172    0.672113    11.00000   -1.20000
AFIX   0
C11   1    0.734840    0.432470    0.694263    11.00000    0.02039    0.03225 =
         0.02187    0.00167   -0.00181   -0.00468
C12   1    0.668850    0.340289    0.707524    11.00000    0.03274    0.02264 =
         0.04130   -0.00324    0.00107    0.00132
AFIX   1
H12A  2    0.689788    0.318039    0.711456    11.00000   -1.50000
H12B  2    0.640493    0.337596    0.684181    11.00000   -1.50000
H12C  2    0.648703    0.346216    0.732280    11.00000   -1.50000
AFIX   0
C13   1    0.858795    0.377590    0.656611    11.00000    0.02519    0.07927 =
         0.06082   -0.02545    0.01036   -0.00087
AFIX   1
H13A  2    0.858907    0.383614    0.627234    11.00000   -1.50000
H13B  2    0.865721    0.352346    0.660600    11.00000   -1.50000
H13C  2    0.888676    0.391577    0.671573    11.00000   -1.50000
AFIX   0
C14   1    0.720152    0.471315    0.700107    11.00000    0.02787    0.03045 =
         0.04081    0.00319    0.00014   -0.00876
AFIX   1
H14A  2    0.752562    0.486344    0.693961    11.00000   -1.50000
H14B  2    0.709790    0.475267    0.728735    11.00000   -1.50000
H14C  2    0.687082    0.477619    0.681639    11.00000   -1.50000
AFIX   0
C15   1    0.630520    0.418693    0.760077    11.00000    0.01802    0.01659 =
         0.02119    0.00160   -0.00248   -0.00015
C16   1    0.676766    0.422573    0.790436    11.00000    0.01892    0.02441 =
         0.02173    0.00021   -0.00244   -0.00181
AFIX   1
H16   2    0.716100    0.421451    0.785439    11.00000   -1.20000
AFIX   0
C17   1    0.652997    0.427409    0.827213    11.00000    0.01824    0.02827 =
         0.02075    0.00180   -0.00511   -0.00296
AFIX   1
H17   2    0.672924    0.431164    0.853069    11.00000   -1.20000
AFIX   0
C18   1    0.591792    0.425490    0.819859    11.00000    0.01674    0.01750 =
         0.01854    0.00121   -0.00342   -0.00005
C19   1    0.551461    0.427893    0.850286    11.00000    0.01943    0.01624 =
         0.01499    0.00050   -0.00429   -0.00033
C20   1    0.573793    0.431094    0.893902    11.00000    0.01795    0.02169 =
         0.01683   -0.00017   -0.00264   -0.00134
C21   1    0.604749    0.403392    0.912512    11.00000    0.02434    0.02479 =
         0.02087    0.00128   -0.00174    0.00082
AFIX   1
H21   2    0.611403    0.382250    0.897373    11.00000   -1.20000
AFIX   0
C22   1    0.624756    0.406273    0.953025    11.00000    0.02659    0.02773 =
         0.02204    0.00476   -0.00405    0.00461
AFIX   1
H22   2    0.646659    0.387389    0.965460    11.00000   -1.20000
AFIX   0
C23   1    0.614625    0.436823    0.975547    11.00000    0.02857    0.02897 =
         0.01780    0.00143   -0.00512   -0.00096
AFIX   1
H23   2    0.627766    0.438551    1.003516    11.00000   -1.20000
AFIX   0
C24   1    0.584419    0.464948    0.956908    11.00000    0.02524    0.02122 =
         0.02012   -0.00255   -0.00103   -0.00234
C25   1    0.563595    0.462177    0.916401    11.00000    0.02352    0.02326 =
         0.01807    0.00129   -0.00322    0.00070
AFIX   1
H25   2    0.542635    0.481360    0.903819    11.00000   -1.20000
AFIX   0
C26   1    0.548425    0.524503    0.963927    11.00000    0.03873    0.02329 =
         0.02293   -0.00011   -0.00310    0.00397
AFIX   1
H26A  2    0.508261    0.518578    0.955632    11.00000   -1.20000
H26B  2    0.567871    0.532458    0.938960    11.00000   -1.20000
AFIX   0
C27   1    0.550641    0.553556    0.996023    11.00000    0.03757    0.02438 =
         0.02365   -0.00200   -0.00027    0.00016
AFIX   1
H27A  2    0.590882    0.558712    1.004265    11.00000   -1.20000
H27B  2    0.531211    0.545139    1.020569    11.00000   -1.20000
AFIX   0
C28   1    0.521866    0.587744    0.980440    11.00000    0.03825    0.02796 =
         0.02038    0.00070    0.00007    0.00203
AFIX   1
H28A  2    0.481776    0.582622    0.971308    11.00000   -1.20000
H28B  2    0.541856    0.596738    0.956295    11.00000   -1.20000
AFIX   0
C29   1    0.522515    0.616791    1.013383    11.00000    0.04348    0.02417 =
         0.02216    0.00200    0.00194    0.00236
AFIX   1
H29A  2    0.508966    0.606454    1.039129    11.00000   -1.20000
H29B  2    0.562216    0.625027    1.018734    11.00000   -1.20000
AFIX   0
C30   1    0.485058    0.648671    1.001419    11.00000    0.04158    0.02712 =
         0.02496    0.00156    0.00525    0.00422
AFIX   1
H30A  2    0.446085    0.639997    0.994637    11.00000   -1.20000
H30B  2    0.483383    0.664384    1.025829    11.00000   -1.20000
AFIX   0
C31   1    0.504474    0.670834    0.965703    11.00000    0.03687    0.02283 =
         0.02389    0.00177   -0.00053    0.00249
AFIX   1
H31A  2    0.511195    0.655371    0.941961    11.00000   -1.20000
H31B  2    0.474427    0.688462    0.957653    11.00000   -1.20000
AFIX   0
C32   1    0.405072    0.771634    0.810441    11.00000    0.02437    0.02041 =
         0.02348    0.00031    0.00384    0.00123
C33   1    0.394479    0.771544    0.853545    11.00000    0.02493    0.03563 =
         0.02354    0.00054    0.00422    0.00411
AFIX   1
H33   2    0.358122    0.774538    0.865281    11.00000   -1.20000
AFIX   0
C34   1    0.445415    0.765550    0.873950    11.00000    0.02374    0.03351 =
         0.02418    0.00312    0.00404    0.00468
AFIX   1
H34   2    0.451781    0.763311    0.903006    11.00000   -1.20000
AFIX   0
C35   1    0.488024    0.762976    0.843368    11.00000    0.02242    0.01708 =
         0.02491    0.00274    0.00245    0.00003
C36   1    0.547505    0.760105    0.852049    11.00000    0.02345    0.01648 =
         0.02500    0.00090    0.00015    0.00072
C37   1    0.568240    0.754421    0.895548    11.00000    0.02738    0.02233 =
         0.02326    0.00179    0.00348    0.00229
C38   1    0.606602    0.778102    0.915740    11.00000    0.03262    0.02682 =
         0.02524   -0.00185    0.00248   -0.00214
AFIX   1
H38   2    0.617760    0.799103    0.902210    11.00000   -1.20000
AFIX   0
C39   1    0.628261    0.770692    0.955233    11.00000    0.03282    0.03622 =
         0.02647   -0.00245   -0.00278   -0.00160
AFIX   1
H39   2    0.655799    0.786024    0.968278    11.00000   -1.20000
AFIX   0
C40   1    0.611036    0.740205    0.975585    11.00000    0.03065    0.04113 =
         0.02413    0.00184   -0.00347    0.00451
AFIX   1
H40   2    0.625589    0.734990    1.002751    11.00000   -1.20000
AFIX   0
C41   1    0.571824    0.717351    0.956312    11.00000    0.02973    0.02589 =
         0.02363    0.00255    0.00062    0.00711
C42   1    0.550863    0.724007    0.916339    11.00000    0.02565    0.02229 =
         0.02192    0.00148   -0.00077    0.00142
AFIX   1
H42   2    0.524944    0.707713    0.903149    11.00000   -1.20000
AFIX   0
C43   1    0.589191    0.762401    0.822207    11.00000    0.02140    0.01713 =
         0.02688    0.00179    0.00067    0.00255
C44   1    0.650452    0.761460    0.830624    11.00000    0.02118    0.02793 =
         0.02914    0.00171   -0.00368    0.00407
AFIX   1
H44   2    0.670243    0.757405    0.856389    11.00000   -1.20000
AFIX   0
C45   1    0.675042    0.767545    0.794306    11.00000    0.02096    0.02811 =
         0.02807    0.00148   -0.00027    0.00156
AFIX   1
H45   2    0.714700    0.769310    0.790160    11.00000   -1.20000
AFIX   0
C46   1    0.629342    0.770678    0.763368    11.00000    0.01522    0.02040 =
         0.02737   -0.00074   -0.00145    0.00200
C47   1    0.637460    0.775176    0.721313    11.00000    0.02016    0.01801 =
         0.02639   -0.00082    0.00169   -0.00023
C48   1    0.695858    0.786132    0.709301    11.00000    0.01826    0.02632 =
         0.02144    0.00055   -0.00090   -0.00114
C49   1    0.708011    0.822714    0.706593    11.00000    0.02007    0.02891 =
         0.02634    0.00539   -0.00278   -0.00056
C50   1    0.762109    0.833262    0.696212    11.00000    0.02169    0.02904 =
         0.03218    0.00954   -0.00212   -0.00292
AFIX   1
H50   2    0.769999    0.857949    0.694453    11.00000   -1.20000
AFIX   0
C51   1    0.804619    0.808679    0.688099    11.00000    0.02436    0.03866 =
         0.02374    0.00663    0.00083   -0.00107
C52   1    0.792153    0.772601    0.691051    11.00000    0.02045    0.03607 =
         0.02924   -0.00297    0.00360    0.00215
AFIX   1
H52   2    0.820228    0.755328    0.685326    11.00000   -1.20000
AFIX   0
C53   1    0.738522    0.761080    0.702234    11.00000    0.02284    0.02776 =
         0.02705   -0.00461    0.00147   -0.00056
C54   1    0.663239    0.850500    0.715063    11.00000    0.02633    0.02516 =
         0.04852    0.00736    0.00081    0.00271
AFIX   1
H54A  2    0.681495    0.874021    0.718568    11.00000   -1.50000
H54B  2    0.644410    0.844287    0.740451    11.00000   -1.50000
H54C  2    0.635050    0.851328    0.692080    11.00000   -1.50000
AFIX   0
C55   1    0.863273    0.821428    0.676188    11.00000    0.02518    0.04509 =
         0.04209    0.00951    0.00645   -0.00257
AFIX   1
H55A  2    0.862675    0.826033    0.646391    11.00000   -1.50000
H55B  2    0.891690    0.802549    0.682763    11.00000   -1.50000
H55C  2    0.873773    0.842997    0.691202    11.00000   -1.50000
AFIX   0
C56   1    0.726365    0.721780    0.707279    11.00000    0.03095    0.02599 =
         0.05288   -0.00851    0.00941    0.00188
AFIX   1
H56A  2    0.761160    0.707989    0.703340    11.00000   -1.50000
H56B  2    0.696542    0.714311    0.686729    11.00000   -1.50000
H56C  2    0.712936    0.717305    0.734922    11.00000   -1.50000
AFIX   0
C57   1    0.480019    0.336854    0.781610    11.00000    0.02204    0.01929 =
         0.02127   -0.00119   -0.00091    0.00255
AFIX   1
H57   2    0.465622    0.349876    0.803644    11.00000   -1.20000
AFIX   0
C58   1    0.478451    0.299854    0.782624    11.00000    0.02539    0.02001 =
         0.02205    0.00260   -0.00060   -0.00026
AFIX   1
H58   2    0.463785    0.287491    0.805337    11.00000   -1.20000
AFIX   0
C59   1    0.500000    0.281409    0.750000    10.50000    0.02299    0.01358 =
         0.02292    0.00000   -0.00751    0.00000
C60   1    0.468967    0.225928    0.717608    11.00000    0.02667    0.01504 =
         0.02582   -0.00026   -0.00767   -0.00061
C61   1    0.469337    0.186594    0.718608    11.00000    0.02037    0.01636 =
         0.02479    0.00089   -0.00691    0.00015
C62   1    0.440853    0.168602    0.687457    11.00000    0.02495    0.01630 =
         0.02303    0.00039   -0.00887    0.00107
AFIX   1
H62   2    0.423080    0.181412    0.665309    11.00000   -1.20000
AFIX   0
C63   1    0.500000    0.167924    0.750000    10.50000    0.01941    0.01388 =
         0.02468    0.00000   -0.00778    0.00000
C64   1    0.500000    0.130526    0.750000    10.50000    0.02130    0.01527 =
         0.02017    0.00000   -0.00256    0.00000
C65   1    0.537043    0.111756    0.778829    11.00000    0.02195    0.01250 =
         0.02208    0.00128   -0.00697    0.00209
C66   1    0.562658    0.131196    0.811489    11.00000    0.02224    0.01789 =
         0.02195    0.00308   -0.00662    0.00073
C67   1    0.636772    0.125638    0.863684    11.00000    0.02150    0.01607 =
         0.02267   -0.00064   -0.00709    0.00234
C68   1    0.677753    0.143791    0.842908    11.00000    0.03163    0.02275 =
         0.01958    0.00186   -0.00419   -0.00001
AFIX   1
H68   2    0.671459    0.149468    0.814803    11.00000   -1.20000
AFIX   0
C69   1    0.728629    0.153455    0.863633    11.00000    0.02722    0.02317 =
         0.02495    0.00253   -0.00237   -0.00283
AFIX   1
H69   2    0.755795    0.166505    0.848896    11.00000   -1.20000
AFIX   0
C70   1    0.740624    0.145010    0.904882    11.00000    0.02397    0.02149 =
         0.02470   -0.00438   -0.00212    0.00123
C71   1    0.698281    0.125764    0.924458    11.00000    0.02706    0.02819 =
         0.02002    0.00011   -0.00619   -0.00019
AFIX   1
H71   2    0.704335    0.119231    0.952439    11.00000   -1.20000
AFIX   0
C72   1    0.647302    0.116315    0.905009    11.00000    0.02639    0.02330 =
         0.02205    0.00048   -0.00450   -0.00145
AFIX   1
H72   2    0.619491    0.103428    0.918978    11.00000   -1.20000
AFIX   0
C73   1    0.796862    0.154327    0.927235    11.00000    0.02611    0.03331 =
         0.02397   -0.00229   -0.00444    0.00089
C74   1    0.832451    0.180441    0.902478    11.00000    0.02858    0.04703 =
         0.03770   -0.00404   -0.00521   -0.01075
AFIX   1
H74A  2    0.867716    0.186144    0.918339    11.00000   -1.50000
H74B  2    0.810169    0.202260    0.897343    11.00000   -1.50000
H74C  2    0.841181    0.169307    0.876458    11.00000   -1.50000
AFIX   0
C75   1    0.786666    0.171488    0.968966    11.00000    0.03999    0.05591 =
         0.03044   -0.01608   -0.00204   -0.01240
AFIX   1
H75A  2    0.762739    0.156263    0.985256    11.00000   -1.50000
H75B  2    0.768383    0.194915    0.964954    11.00000   -1.50000
H75C  2    0.823955    0.175147    0.984281    11.00000   -1.50000
AFIX   0
C76   1    0.831757    0.119900    0.933859    11.00000    0.02955    0.04485 =
         0.04253    0.00206   -0.01330    0.00218
AFIX   1
H76A  2    0.810489    0.103449    0.951315    11.00000   -1.50000
H76B  2    0.868558    0.125518    0.947788    11.00000   -1.50000
H76C  2    0.837499    0.108689    0.907428    11.00000   -1.50000
AFIX   0
C77   1    0.545082    0.073318    0.772192    11.00000    0.02273    0.01566 =
         0.02078   -0.00001   -0.00600    0.00156
C78   1    0.593775    0.053840    0.784671    11.00000    0.02189    0.01677 =
         0.02488    0.00054   -0.00705   -0.00136
C79   1    0.595470    0.016565    0.779902    11.00000    0.02559    0.01667 =
         0.03002    0.00107   -0.00620    0.00331
AFIX   1
H79   2    0.629674    0.004050    0.786779    11.00000   -1.20000
AFIX   0
C80   1    0.549042   -0.001617    0.765027    11.00000    0.02398    0.01564 =
         0.02762   -0.00042   -0.00663    0.00189
C81   1    0.500000    0.016926    0.750000    10.50000    0.02428    0.01248 =
         0.02440    0.00000   -0.00584    0.00000
C82   1    0.500000    0.054618    0.750000    10.50000    0.02258    0.01457 =
         0.02204    0.00000   -0.00305    0.00000
C83   1    0.673470    0.054628    0.831668    11.00000    0.02285    0.01817 =
         0.02217   -0.00137   -0.00558    0.00127
C84   1    0.730913    0.059487    0.833327    11.00000    0.02142    0.02191 =
         0.02234   -0.00072   -0.00331    0.00000
AFIX   1
H84   2    0.748511    0.073223    0.812999    11.00000   -1.20000
AFIX   0
C85   1    0.764118    0.044052    0.865321    11.00000    0.01951    0.02777 =
         0.02834   -0.00295   -0.00551    0.00237
AFIX   1
H85   2    0.804331    0.047839    0.866516    11.00000   -1.20000
AFIX   0
C86   1    0.740037    0.023621    0.895146    11.00000    0.03003    0.02128 =
         0.02310   -0.00255   -0.00667    0.00421
C87   1    0.680556    0.019929    0.893466    11.00000    0.03308    0.02340 =
         0.02566    0.00410   -0.00543    0.00071
AFIX   1
H87   2    0.663424    0.006435    0.914149    11.00000   -1.20000
AFIX   0
C88   1    0.646737    0.035535    0.862231    11.00000    0.02204    0.02217 =
         0.02977    0.00301   -0.00186   -0.00026
AFIX   1
H88   2    0.605928    0.033270    0.861825    11.00000   -1.20000
AFIX   0
C89   1    0.775995    0.005310    0.929858    11.00000    0.04000    0.02721 =
         0.02753    0.00224   -0.01180    0.00633
C90   1    0.758817    0.020751    0.971681    11.00000    0.05736    0.03962 =
         0.02392    0.00121   -0.00894    0.00013
AFIX   1
H90A  2    0.782540    0.009456    0.994130    11.00000   -1.50000
H90B  2    0.718609    0.015196    0.975748    11.00000   -1.50000
H90C  2    0.764787    0.046417    0.972478    11.00000   -1.50000
AFIX   0
C91   1    0.839975    0.010417    0.925256    11.00000    0.03420    0.04727 =
         0.03330   -0.00174   -0.01509    0.01354
AFIX   1
H91A  2    0.850494    0.001948    0.898326    11.00000   -1.50000
H91B  2    0.861377   -0.002609    0.946980    11.00000   -1.50000
H91C  2    0.849428    0.036125    0.927761    11.00000   -1.50000
AFIX   0
C92   1    0.763197   -0.034866    0.928753    11.00000    0.06445    0.03115 =
         0.03843    0.00411   -0.02000    0.00929
AFIX   1
H92A  2    0.765790   -0.043745    0.900703    11.00000   -1.50000
H92B  2    0.724421   -0.038917    0.938098    11.00000   -1.50000
H92C  2    0.790772   -0.047495    0.947142    11.00000   -1.50000
AFIX   0
C93   1    0.550755   -0.040934    0.763303    11.00000    0.02894    0.01440 =
         0.03129   -0.00026   -0.00481   -0.00019
N8    3    0.500000   -0.057823    0.750000    10.50000    0.02456    0.01277 =
         0.02476    0.00000   -0.00726    0.00000
C94   1    0.500000   -0.096229    0.750000    10.50000    0.01840    0.01154 =
         0.03314    0.00000   -0.00329    0.00000
C95   1    0.502126   -0.114495    0.713275    11.00000    0.03386    0.01813 =
         0.02210    0.00289    0.00137    0.00156
AFIX   1
H95   2    0.502866   -0.102084    0.687866    11.00000   -1.20000
AFIX   0
MOLE 4
C97   1    0.501855    0.848829    0.715020    11.00000    0.03687    0.01884 =
         0.02139   -0.00106    0.00162    0.00203
AFIX   1
H97   2    0.504134    0.835801    0.690130    11.00000   -1.20000
AFIX   0
MOLE 7
C1S   1    0.470042    0.110824    0.394972    11.00000    0.08708    0.04708 =
         0.04269    0.01798    0.02589    0.00851
C2S   1    0.512959    0.085922    0.394625    11.00000    0.05052    0.05834 =
         0.03821    0.01535   -0.00132   -0.00741
AFIX   1
H2S   2    0.549444    0.092062    0.406110    11.00000   -1.20000
AFIX   0
C3S   1    0.504645    0.052650    0.378774    11.00000    0.06587    0.05123 =
         0.04160    0.01074    0.01459    0.00175
AFIX   1
H3S   2    0.534924    0.036270    0.378607    11.00000   -1.20000
AFIX   0
C4S   1    0.452702    0.042135    0.363071    11.00000    0.08992    0.10282 =
         0.03335   -0.00375    0.01249   -0.05528
C5S   1    0.409394    0.066058    0.361560    11.00000    0.04700    0.18272 =
         0.03464    0.02102   -0.00181   -0.02999
AFIX   1
H5S   2    0.374573    0.057755    0.348949    11.00000   -1.20000
AFIX   0
C6S   1    0.416761    0.100086    0.377283    11.00000    0.06624    0.14854 =
         0.05191    0.05655    0.02785    0.05031
AFIX   1
H6S   2    0.385022    0.115186    0.375748    11.00000   -1.20000
AFIX   0
C7S   1    0.477571    0.147681    0.412764    11.00000    0.27003    0.04679 =
         0.07871    0.01306    0.06396    0.00564
AFIX   1
H7S1  2    0.459700    0.149421    0.438901    11.00000   -1.50000
H7S2  2    0.460320    0.165129    0.393177    11.00000   -1.50000
H7S3  2    0.518896    0.153351    0.416646    11.00000   -1.50000
AFIX   0
C8S   1    0.443159    0.004663    0.348138    11.00000    0.27695    0.15658 =
         0.07615   -0.06036    0.08422   -0.15996
AFIX   1
H8S1  2    0.429237   -0.009929    0.370187    11.00000   -1.50000
H8S2  2    0.478283   -0.004809    0.338049    11.00000   -1.50000
H8S3  2    0.413392    0.004827    0.324915    11.00000   -1.50000
AFIX   0
MOLE 3
C1T   1    0.688379    0.183002    0.056695    11.00000    0.03797    0.05212 =
         0.02887    0.00323    0.00811    0.01076
C2T   1    0.662043    0.157605    0.031122    11.00000    0.02989    0.07097 =
         0.02771    0.00728   -0.00204   -0.00148
AFIX   1
H2T   2    0.634882    0.165091    0.009941    11.00000   -1.20000
AFIX   0
C3T   1    0.674412    0.121868    0.036014    11.00000    0.04033    0.06369 =
         0.02583   -0.00205    0.00188   -0.01437
AFIX   1
H3T   2    0.655623    0.105195    0.017924    11.00000   -1.20000
AFIX   0
C4T   1    0.713100    0.109690    0.066346    11.00000    0.03170    0.04276 =
         0.03500   -0.00401    0.00521   -0.00468
C5T   1    0.738760    0.135258    0.092066    11.00000    0.03365    0.04611 =
         0.03423   -0.00268   -0.00641    0.00597
AFIX   1
H5T   2    0.764802    0.128197    0.113330    11.00000   -1.20000
AFIX   0
C6T   1    0.726723    0.171115    0.087333    11.00000    0.04103    0.04858 =
         0.03299   -0.00556   -0.00505    0.00755
AFIX   1
H6T   2    0.744277    0.187677    0.105439    11.00000   -1.20000
AFIX   0
C7T   1    0.676872    0.222091    0.050287    11.00000    0.05615    0.06052 =
         0.04369    0.00963    0.00825    0.02242
AFIX   1
H7T1  2    0.702914    0.235653    0.068466    11.00000   -1.50000
H7T2  2    0.637438    0.227235    0.055792    11.00000   -1.50000
H7T3  2    0.684090    0.227893    0.021385    11.00000   -1.50000
AFIX   0
C8T   1    0.726678    0.071004    0.071574    11.00000    0.03954    0.04516 =
         0.05309   -0.00406    0.00835   -0.00600
AFIX   1
H8T1  2    0.710717    0.062474    0.097017    11.00000   -1.50000
H8T2  2    0.767444    0.067330    0.071998    11.00000   -1.50000
H8T3  2    0.708149    0.057769    0.048066    11.00000   -1.50000
AFIX   0
MOLE 2
C1U   1    0.842444    0.213663    0.410399    11.00000    0.04123    0.04773 =
         0.03388    0.01050    0.00224    0.00321
C2U   1    0.884238    0.239665    0.411594    11.00000    0.05291    0.03428 =
         0.04175    0.00510   -0.00018    0.00094
AFIX   1
H2U   2    0.873960    0.263429    0.417732    11.00000   -1.20000
AFIX   0
C3U   1    0.940613    0.231979    0.404700    11.00000    0.04667    0.03643 =
         0.03917    0.00848   -0.00822   -0.00424
AFIX   1
H3U   2    0.967651    0.250905    0.405490    11.00000   -1.20000
AFIX   0
C4U   1    0.957562    0.197889    0.396329    11.00000    0.03811    0.04416 =
         0.02164    0.00458   -0.00376    0.00026
C5U   1    0.916692    0.171268    0.395071    11.00000    0.05490    0.03651 =
         0.03981   -0.00613    0.00176   -0.00041
AFIX   1
H5U   2    0.926226    0.147138    0.389542    11.00000   -1.20000
AFIX   0
C6U   1    0.859549    0.179211    0.401964    11.00000    0.04809    0.04976 =
         0.04786   -0.00122   -0.00103   -0.01278
AFIX   1
H6U   2    0.832188    0.160518    0.400944    11.00000   -1.20000
AFIX   0
C7U   1    0.781617    0.222051    0.419258    11.00000    0.04466    0.07001 =
         0.07728    0.01788    0.00667    0.01251
AFIX   1
H7U1  2    0.771881    0.210284    0.444968    11.00000   -1.50000
H7U2  2    0.756489    0.213301    0.396638    11.00000   -1.50000
H7U3  2    0.777372    0.247830    0.422072    11.00000   -1.50000
AFIX   0
C8U   1    1.019050    0.189695    0.388763    11.00000    0.04399    0.06689 =
         0.03413    0.00980   -0.00226    0.00765
AFIX   1
H8U1  2    1.032304    0.205457    0.367639    11.00000   -1.50000
H8U2  2    1.021138    0.164632    0.379199    11.00000   -1.50000
H8U3  2    1.041977    0.192295    0.414247    11.00000   -1.50000
AFIX   0
MOLE 5
C1V   1    0.387733    0.239355    0.556651    11.00000    0.04392    0.05286 =
         0.04412    0.00437   -0.00880   -0.01221
C2V   1    0.424940    0.250423    0.526653    11.00000    0.05548    0.06083 =
         0.04391    0.01963   -0.00720   -0.02073
AFIX   1
H2V   2    0.417623    0.272107    0.512480    11.00000   -1.20000
AFIX   0
C3V   1    0.470405    0.229489    0.516094    11.00000    0.04727    0.07153 =
         0.04368    0.01533    0.00065   -0.02587
AFIX   1
H3V   2    0.494894    0.237593    0.495551    11.00000   -1.20000
AFIX   0
C4V   1    0.481805    0.197097    0.535616    11.00000    0.03470    0.06183 =
         0.04707    0.00079   -0.00688   -0.01756
C5V   1    0.443936    0.185896    0.564553    11.00000    0.04941    0.04501 =
         0.04103    0.00713   -0.00410   -0.01327
AFIX   1
H5V   2    0.451029    0.163665    0.578130    11.00000   -1.20000
AFIX   0
C6V   1    0.398343    0.206375    0.574834    11.00000    0.04365    0.05688 =
         0.03241    0.00653   -0.00257   -0.01338
AFIX   1
H6V   2    0.372814    0.198091    0.594586    11.00000   -1.20000
AFIX   0
C7V   1    0.338541    0.261972    0.568191    11.00000    0.05637    0.06134 =
         0.06276    0.00550   -0.00775   -0.00028
AFIX   1
H7V1  2    0.303426    0.253791    0.552608    11.00000   -1.50000
H7V2  2    0.345261    0.286837    0.562090    11.00000   -1.50000
H7V3  2    0.332028    0.259127    0.597840    11.00000   -1.50000
AFIX   0
C8V   1    0.532591    0.175002    0.525943    11.00000    0.04769    0.08047 =
         0.06840    0.00412    0.00648   -0.01060
AFIX   1
H8V1  2    0.545893    0.182019    0.498829    11.00000   -1.50000
H8V2  2    0.523242    0.150165    0.526484    11.00000   -1.50000
H8V3  2    0.563653    0.180386    0.546902    11.00000   -1.50000
AFIX   0
MOLE 9
C1W   1    0.444368    0.042856    0.507773    11.00000    0.03886    0.04905 =
         0.05427    0.00314    0.01367    0.00842
C2W   1    0.415202    0.037342    0.470289    11.00000    0.05305    0.05121 =
         0.04384    0.01455    0.01172    0.01302
AFIX   1
H2W   2    0.412975    0.056185    0.450723    11.00000   -1.20000
AFIX   0
C3W   1    0.389439    0.004995    0.460927    11.00000    0.05015    0.06664 =
         0.04396    0.00589   -0.00182    0.01425
AFIX   1
H3W   2    0.370136    0.002019    0.434874    11.00000   -1.20000
AFIX   0
C4W   1    0.390450   -0.022488    0.488501    11.00000    0.03450    0.05538 =
         0.05450    0.00541    0.00130    0.00371
C5W   1    0.419537   -0.017537    0.525898    11.00000    0.04571    0.04993 =
         0.04837    0.01530    0.00459    0.00871
AFIX   1
H5W   2    0.421673   -0.036316    0.545533    11.00000   -1.20000
AFIX   0
C6W   1    0.445946    0.014584    0.535611    11.00000    0.04301    0.05914 =
         0.04256    0.00567    0.00622    0.00846
AFIX   1
H6W   2    0.465143    0.017396    0.561822    11.00000   -1.20000
AFIX   0
C7W   1    0.473727    0.077308    0.517709    11.00000    0.05756    0.06031 =
         0.08191   -0.00702    0.02262   -0.00107
AFIX   1
H7W1  2    0.487284    0.078392    0.545499    11.00000   -1.50000
H7W2  2    0.445627    0.097280    0.511701    11.00000   -1.50000
H7W3  2    0.505249    0.080870    0.498718    11.00000   -1.50000
AFIX   0
C8W   1    0.362043   -0.057858    0.478515    11.00000    0.05393    0.07060 =
         0.08954    0.00228   -0.00072   -0.00583
AFIX   1
H8W1  2    0.321307   -0.055779    0.481580    11.00000   -1.50000
H8W2  2    0.378182   -0.076018    0.497771    11.00000   -1.50000
H8W3  2    0.370288   -0.064631    0.450431    11.00000   -1.50000
AFIX   0
MOLE 8
C1X   1    0.629851    0.196477    0.697065    11.00000    0.04156    0.04790 =
         0.04323    0.00607    0.00400   -0.00052
C2X   1    0.590646    0.191836    0.664856    11.00000    0.04081    0.05647 =
         0.04597    0.01447    0.00173    0.00497
AFIX   1
H2X   2    0.575195    0.212213    0.650233    11.00000   -1.20000
AFIX   0
C3X   1    0.571983    0.158243    0.652125    11.00000    0.04173    0.07756 =
         0.03498    0.00090    0.00182    0.00010
AFIX   1
H3X   2    0.544112    0.156714    0.630072    11.00000   -1.20000
AFIX   0
C4X   1    0.592820    0.127955    0.671670    11.00000    0.03632    0.06154 =
         0.04714   -0.00949    0.01121   -0.00261
C5X   1    0.631938    0.132508    0.704962    11.00000    0.04217    0.04772 =
         0.04417    0.00933    0.00820    0.00366
AFIX   1
H5X   2    0.646357    0.111885    0.719425    11.00000   -1.20000
AFIX   0
C6X   1    0.650539    0.165441    0.717016    11.00000    0.04013    0.05728 =
         0.03301    0.00479   -0.00208    0.00598
AFIX   1
H6X   2    0.678656    0.167355    0.739081    11.00000   -1.20000
AFIX   0
C7X   1    0.650522    0.232931    0.709691    11.00000    0.05109    0.04913 =
         0.07945   -0.00038    0.01015   -0.00189
AFIX   1
H7X1  2    0.642082    0.250229    0.687558    11.00000   -1.50000
H7X2  2    0.692401    0.232552    0.715640    11.00000   -1.50000
H7X3  2    0.631902    0.240651    0.734597    11.00000   -1.50000
AFIX   0
C8X   1    0.573684    0.091543    0.657322    11.00000    0.06107    0.06412 =
         0.07336   -0.02201    0.02313   -0.01001
AFIX   1
H8X1  2    0.601594    0.081841    0.638691    11.00000   -1.50000
H8X2  2    0.536183    0.092990    0.643043    11.00000   -1.50000
H8X3  2    0.571606    0.075745    0.681340    11.00000   -1.50000
AFIX   0
MOLE 6
C1Y   1    0.263868    0.147823    0.993757    11.00000    0.10268    0.03375 =
         0.10661   -0.01531    0.04650   -0.00753
C2Y   1    0.310137    0.150424    0.969515    11.00000    0.05435    0.03689 =
         0.08726   -0.00679    0.00742   -0.00318
AFIX   1
H2Y   2    0.347527    0.144484    0.981381    11.00000   -1.20000
AFIX   0
C3Y   1    0.304828    0.162206    0.929595    11.00000    0.04241    0.03900 =
         0.08312   -0.00879    0.00881   -0.00307
AFIX   1
H3Y   2    0.337406    0.162436    0.913270    11.00000   -1.20000
AFIX   0
C4Y   1    0.252773    0.172824    0.911355    11.00000    0.04415    0.03966 =
         0.09494   -0.01701    0.00329    0.00012
C5Y   1    0.205774    0.170266    0.935941    11.00000    0.05128    0.05975 =
         0.11457   -0.02210    0.01743    0.00779
AFIX   1
H5Y   2    0.168972    0.176603    0.924212    11.00000   -1.20000
AFIX   0
C6Y   1    0.209522    0.158727    0.975232    11.00000    0.06288    0.05907 =
         0.11862   -0.01958    0.04543   -0.00034
AFIX   1
H6Y   2    0.175971    0.157772    0.990211    11.00000   -1.20000
AFIX   0
C7Y   1    0.247132    0.184410    0.867537    11.00000    0.07554    0.06002 =
         0.08247   -0.01104   -0.00437    0.00868
AFIX   1
H7Y1  2    0.279538    0.198985    0.860852    11.00000   -1.50000
H7Y2  2    0.211484    0.198796    0.863628    11.00000   -1.50000
H7Y3  2    0.243952    0.163579    0.849615    11.00000   -1.50000
AFIX   0
C8Y   1    0.270172    0.134053    1.037326    11.00000    0.15285    0.05911 =
         0.10913   -0.00825    0.04822    0.00155
AFIX   1
H8Y1  2    0.310000    0.134824    1.046703    11.00000   -1.50000
H8Y2  2    0.255325    0.109711    1.038765    11.00000   -1.50000
H8Y3  2    0.247524    0.149537    1.055309    11.00000   -1.50000
AFIX   0
MOLE 4
C1Z   1    0.274152    0.033018    0.835822    11.00000    0.03341    0.05294 =
         0.04790    0.00199   -0.00450    0.00454
C2Z   1    0.277700    0.066691    0.853341    11.00000    0.04303    0.04393 =
         0.05428    0.00921   -0.00044   -0.00946
AFIX   1
H2Z   2    0.298824    0.084822    0.840350    11.00000   -1.20000
AFIX   0
C3Z   1    0.252361    0.074156    0.889564    11.00000    0.03773    0.03597 =
         0.05116    0.00238   -0.00658   -0.00258
AFIX   1
H3Z   2    0.255143    0.097771    0.900355    11.00000   -1.20000
AFIX   0
C4Z   1    0.222617    0.048274    0.909961    11.00000    0.03440    0.04115 =
         0.04182    0.00761   -0.00836    0.00538
C5Z   1    0.218905    0.014488    0.892393    11.00000    0.04008    0.03425 =
         0.06412    0.00921    0.00272   -0.00580
AFIX   1
H5Z   2    0.197723   -0.003877    0.905530    11.00000   -1.20000
AFIX   0
C6Z   1    0.244629    0.007207    0.856334    11.00000    0.04587    0.03571 =
         0.06659   -0.00241   -0.00553   -0.00356
AFIX   1
H6Z   2    0.241792   -0.016213    0.845046    11.00000   -1.20000
AFIX   0
C7Z   1    0.299060    0.025427    0.794839    11.00000    0.06054    0.08487 =
         0.05523   -0.00962    0.00471    0.00237
AFIX   1
H7Z1  2    0.289455    0.002060    0.785823    11.00000   -1.50000
H7Z2  2    0.341112    0.028502    0.798153    11.00000   -1.50000
H7Z3  2    0.284287    0.043634    0.775103    11.00000   -1.50000
AFIX   0
C8Z   1    0.192942    0.057672    0.948597    11.00000    0.05623    0.06242 =
         0.04643    0.00825    0.00107    0.00586
AFIX   1
H8Z1  2    0.220597    0.067943    0.968407    11.00000   -1.50000
H8Z2  2    0.177007    0.035585    0.960051    11.00000   -1.50000
H8Z3  2    0.161986    0.074410    0.942171    11.00000   -1.50000
AFIX   0
MOLE 1
N1    3    0.536121    0.421450    0.694420    11.00000    0.01845    0.01643 =
         0.01671   -0.00040   -0.00179   -0.00072
N2    3    0.579428    0.420869    0.778631    11.00000    0.01763    0.01646 =
         0.01685   -0.00138   -0.00254   -0.00091
N3    3    0.577718    0.767063    0.781003    11.00000    0.02075    0.01806 =
         0.02280    0.00026   -0.00043    0.00047
N4    3    0.462238    0.766294    0.805220    11.00000    0.02162    0.01520 =
         0.02384    0.00086    0.00254    0.00035
N5    3    0.500000    0.355223    0.750000    10.50000    0.01809    0.01652 =
         0.01930    0.00000   -0.00544    0.00000
N6    3    0.500000    0.243084    0.750000    10.50000    0.02569    0.01117 =
         0.02644    0.00000   -0.00785    0.00000
N7    3    0.500000    0.830570    0.750000    10.50000    0.01892    0.01453 =
         0.02237    0.00000   -0.00143    0.00000
O1    4    0.577043    0.494005    0.981644    11.00000    0.04387    0.02240 =
         0.01961   -0.00234   -0.00935    0.00320
O2    4    0.556001    0.688609    0.979027    11.00000    0.03853    0.03262 =
         0.02881    0.01020   -0.00381    0.00182
O3    4    0.443564    0.243074    0.691057    11.00000    0.04145    0.01638 =
         0.03408    0.00311   -0.01751    0.00080
O4    4    0.585552    0.113373    0.845128    11.00000    0.02447    0.01835 =
         0.02380    0.00245   -0.01173   -0.00104
O5    4    0.641394    0.071054    0.799329    11.00000    0.02243    0.01583 =
         0.02801    0.00226   -0.01019   -0.00331
O6    4    0.592996   -0.058255    0.772839    11.00000    0.02810    0.01721 =
         0.06616    0.00086   -0.01711    0.00228
ZN1   5    0.500000    0.412688    0.750000    10.50000    0.01644    0.01409 =
         0.01474    0.00000   -0.00213    0.00000
ZN2   5    0.500000    0.773992    0.750000    10.50000    0.01808    0.01397 =
         0.02042    0.00000    0.00027    0.00000
PART -1  10.25
AFIX   6
C1D   1    0.580443    0.630080    0.832501    10.25000    0.12459    0.12681 =
         0.12430    0.00520    0.00963    0.00576
C2D   1    0.523774    0.631665    0.845721    10.25000    0.11055    0.11111 =
         0.11516    0.00703    0.00725   -0.00071
C3D   1    0.488722    0.658650    0.828629    10.25000    0.08731    0.07860 =
         0.08433   -0.00476    0.00988    0.00210
C4D   1    0.510502    0.680428    0.795098    10.25000    0.07398    0.06427 =
         0.08051   -0.00997    0.01663   -0.00325
C5D   1    0.564864    0.676836    0.780356    10.25000    0.10142    0.09656 =
         0.10105   -0.00109    0.00184   -0.00209
C6D   1    0.601621    0.653120    0.801206    10.25000    0.11667    0.12333 =
         0.12076    0.00394    0.00144   -0.00077
C7D   1    0.644750    0.633104    0.779145    10.25000    0.11826    0.12093 =
         0.12090   -0.00138    0.00646   -0.00169
C8D   1    0.652449    0.598286    0.797710    10.25000    0.12921    0.12858 =
         0.12981   -0.00297    0.00398    0.00164
C9D   1    0.612423    0.595140    0.831595    10.25000    0.13612    0.13606 =
         0.13857    0.00039    0.00905    0.00188
C10D  1    0.584662    0.564627    0.839415    10.25000    0.13138    0.13054 =
         0.13695   -0.00258    0.00668    0.00254
C11D  1    0.524920    0.562333    0.848340    10.25000    0.12918    0.12711 =
         0.13166   -0.00533    0.00477    0.00100
C12D  1    0.495463    0.595709    0.852838    10.25000    0.12147    0.11728 =
         0.12520   -0.00239    0.00481    0.00205
C13D  1    0.433647    0.590893    0.845152    10.25000    0.10301    0.10503 =
         0.09874   -0.00017    0.01596   -0.00720
C14D  1    0.403447    0.623698    0.832444    10.25000    0.11441    0.11560 =
         0.11525   -0.00137    0.00951   -0.00289
C15D  1    0.431612    0.654728    0.825327    10.25000    0.08464    0.08967 =
         0.08582   -0.01164    0.01338   -0.00130
C16D  1    0.409841    0.675417    0.787536    10.25000    0.10033    0.10709 =
         0.10564   -0.00448   -0.00138    0.00139
C17D  1    0.463831    0.692167    0.771696    10.25000    0.09900    0.08795 =
         0.09010    0.00250   -0.00283   -0.00314
C18D  1    0.465065    0.694039    0.730609    10.25000    0.10561    0.10513 =
         0.10969    0.00055    0.00448   -0.00264
C19D  1    0.519961    0.686895    0.710512    10.25000    0.09790    0.09006 =
         0.10102    0.00010    0.00150   -0.00336
C20D  1    0.565517    0.678891    0.732062    10.25000    0.05748    0.04238 =
         0.05246    0.00501    0.01067   -0.01856
C21D  1    0.608013    0.659261    0.714437    10.25000    0.08919    0.08886 =
         0.09315    0.00259    0.01284   -0.01144
C22D  1    0.649428    0.635431    0.739198    10.25000    0.11698    0.12346 =
         0.12638    0.00026    0.00852    0.00245
C23D  1    0.657891    0.603812    0.713957    10.25000    0.11847    0.12103 =
         0.12030   -0.00013    0.00586    0.00169
C24D  1    0.666479    0.569938    0.732314    10.25000    0.11822    0.12035 =
         0.11773    0.00212    0.00543   -0.00182
C25D  1    0.662591    0.567662    0.777158    10.25000    0.12553    0.12684 =
         0.12764    0.00073    0.00693    0.00005
C26D  1    0.633114    0.532803    0.784018    10.25000    0.11727    0.11738 =
         0.12245   -0.00065    0.00263    0.00477
C27D  1    0.597710    0.531553    0.815414    10.25000    0.10492    0.10503 =
         0.10614    0.00516   -0.00412    0.00741
C28D  1    0.542178    0.513713    0.809233    10.25000    0.10784    0.10069 =
         0.10479    0.00630    0.00230    0.00358
C29D  1    0.498478    0.532054    0.830455    10.25000    0.10377    0.10314 =
         0.10504    0.00780    0.00857    0.00090
C30D  1    0.440693    0.532970    0.815992    10.25000    0.07724    0.05824 =
         0.06275    0.01753    0.01794   -0.02025
C31D  1    0.408618    0.560953    0.827418    10.25000    0.07509    0.08680 =
         0.08172    0.00902    0.02822   -0.01274
C32D  1    0.362344    0.573064    0.801437    10.25000    0.09562    0.09945 =
         0.09624   -0.00098    0.01171   -0.00498
C33D  1    0.355000    0.610295    0.803960    10.25000    0.11174    0.11060 =
         0.11018   -0.00266    0.00338   -0.00037
C34D  1    0.340161    0.630272    0.770946    10.25000    0.11823    0.11779 =
         0.11357    0.00191    0.00876   -0.00087
C35D  1    0.368241    0.664147    0.762680    10.25000    0.11269    0.11143 =
         0.11047   -0.00320    0.00151   -0.00009
C36D  1    0.371254    0.667043    0.719344    10.25000    0.09150    0.09032 =
         0.09342   -0.00367    0.00907    0.00680
C37D  1    0.418769    0.683205    0.702702    10.25000    0.09351    0.09065 =
         0.09372    0.01089   -0.00396    0.00102
C38D  1    0.442476    0.666627    0.668820    10.25000    0.08976    0.08516 =
         0.09539    0.01391    0.00214    0.00230
C39D  1    0.504144    0.669758    0.673162    10.25000    0.08892    0.08158 =
         0.08454    0.01813   -0.00330   -0.00819
C40D  1    0.540908    0.643751    0.657592    10.25000    0.07746    0.07195 =
         0.07197    0.01554    0.02066   -0.01580
C41D  1    0.594040    0.640904    0.677393    10.25000    0.11069    0.10622 =
         0.10923   -0.00210    0.01203   -0.00192
C42D  1    0.622548    0.607425    0.676964    10.25000    0.11384    0.11279 =
         0.11659    0.00076    0.00498    0.00356
C43D  1    0.596631    0.579601    0.658580    10.25000    0.10337    0.10971 =
         0.11241    0.00115    0.00761   -0.00014
C44D  1    0.604199    0.543132    0.676414    10.25000    0.10626    0.10640 =
         0.11149    0.01084    0.00046    0.00209
C45D  1    0.639457    0.542150    0.712738    10.25000    0.11869    0.11932 =
         0.11861   -0.00006    0.00314   -0.00398
C46D  1    0.616085    0.515905    0.747334    10.25000    0.11454    0.11026 =
         0.11220    0.00135    0.00264    0.00170
C47D  1    0.568675    0.499546    0.736506    10.25000    0.09984    0.10721 =
         0.10574    0.00794    0.00715    0.00143
C48D  1    0.527033    0.498259    0.773225    10.25000    0.09391    0.08709 =
         0.08973    0.00422   -0.00209    0.00151
C49D  1    0.472701    0.499227    0.754994    10.25000    0.07762    0.07011 =
         0.08103    0.00445    0.01529   -0.00660
C50D  1    0.427219    0.514396    0.777605    10.25000    0.06856    0.05183 =
         0.06939    0.01011    0.01496   -0.01561
C51D  1    0.382001    0.529507    0.749281    10.25000    0.05901    0.05638 =
         0.06298    0.00482    0.00929   -0.02489
C52D  1    0.351428    0.556516    0.763825    10.25000    0.06795    0.07609 =
         0.07774    0.00237    0.01118   -0.00747
C53D  1    0.330945    0.579441    0.729801    10.25000    0.08239    0.08767 =
         0.08879    0.00042    0.00596   -0.00526
C54D  1    0.327748    0.614922    0.732763    10.25000    0.09423    0.09639 =
         0.09806   -0.00213    0.00775    0.00449
C55D  1    0.344976    0.638179    0.700055    10.25000    0.08586    0.08700 =
         0.08950    0.00007    0.00146    0.00429
C56D  1    0.367754    0.622554    0.668875    10.25000    0.04955    0.06469 =
         0.05475    0.00721   -0.01211    0.00741
C57D  1    0.420169    0.637615    0.650374    10.25000    0.07874    0.07549 =
         0.07127    0.01620   -0.01002   -0.00174
C58D  1    0.453425    0.610140    0.636350    10.25000    0.06744    0.07593 =
         0.05891    0.01190    0.00002   -0.00275
C59D  1    0.423855    0.576700    0.644158    10.25000    0.06055    0.06287 =
         0.05149   -0.00505   -0.00215   -0.00489
C60D  1    0.456473    0.546924    0.654062    10.25000    0.07349    0.06926 =
         0.06729   -0.00575    0.00460   -0.00780
C61D  1    0.512359    0.546764    0.647710    10.25000    0.05741    0.05639 =
         0.05011   -0.00850    0.00756    0.00498
C62D  1    0.553650    0.524059    0.671461    10.25000    0.09551    0.09663 =
         0.09250    0.00342    0.00319    0.00281
C63D  1    0.534789    0.503563    0.701920    10.25000    0.09047    0.09433 =
         0.09383    0.00390    0.00966    0.00453
C64D  1    0.476825    0.503742    0.709140    10.25000    0.07457    0.05210 =
         0.06617   -0.00231    0.00497   -0.00149
C65D  1    0.433493    0.522494    0.687816    10.25000    0.05540    0.04986 =
         0.05944   -0.01297    0.00379   -0.00768
C66D  1    0.384800    0.532652    0.707437    10.25000    0.05588    0.05824 =
         0.06242   -0.00084    0.00515   -0.02105
C67D  1    0.353030    0.564064    0.694740    10.25000    0.05851    0.06267 =
         0.06559   -0.00224    0.00175   -0.00889
C68D  1    0.372251    0.584950    0.665122    10.25000    0.06022    0.06713 =
         0.06541   -0.00174   -0.01039   -0.00672
C69D  1    0.512911    0.611950    0.637959    10.25000    0.09381    0.09331 =
         0.08395    0.00511    0.01115   -0.00450
C70D  1    0.542856    0.581385    0.640299    10.25000    0.07446    0.07911 =
         0.06221   -0.00231    0.01195    0.00176
AFIX   0
PART -2  10.25
same 0.005 c1d > C70D
C1D'  1    0.582125    0.652811    0.818943    10.25000    0.08742    0.09025 =
         0.08941   -0.00724    0.00715   -0.00088
C2D'  1    0.524503    0.655688    0.830427    10.25000    0.08785    0.08769 =
         0.09047   -0.00113   -0.00089   -0.00082
C3D'  1    0.488668    0.676022    0.803764    10.25000    0.08713    0.07872 =
         0.08074   -0.00186    0.00447    0.00422
C4D'  1    0.509231    0.688474    0.764174    10.25000    0.07581    0.05951 =
         0.07651   -0.00454   -0.00240   -0.00300
C5D'  1    0.564366    0.682736    0.751477    10.25000    0.08054    0.07596 =
         0.08382   -0.00147    0.00263   -0.00525
C6D'  1    0.601852    0.667040    0.780696    10.25000    0.07719    0.07981 =
         0.08602   -0.00506   -0.00181   -0.00388
C7D'  1    0.646438    0.642853    0.766634    10.25000    0.07791    0.08471 =
         0.08186   -0.00240    0.00179   -0.00360
C8D'  1    0.656595    0.615076    0.796958    10.25000    0.08297    0.08715 =
         0.08482   -0.00079   -0.00028    0.00010
C9D'  1    0.616195    0.619646    0.830579    10.25000    0.08945    0.09170 =
         0.08951   -0.00121    0.00359   -0.00092
C10'  1    0.590588    0.591678    0.848642    10.25000    0.09161    0.09212 =
         0.09395   -0.00400    0.00412   -0.00300
C11'  1    0.530553    0.589997    0.857768    10.25000    0.09139    0.09154 =
         0.09559    0.00424    0.00373    0.00189
C12'  1    0.498718    0.622378    0.849249    10.25000    0.09235    0.09259 =
         0.09427    0.00478    0.00668   -0.00121
C13'  1    0.437431    0.613715    0.842874    10.25000    0.07997    0.08415 =
         0.07530   -0.00418    0.01272    0.00568
C14'  1    0.406592    0.640614    0.817604    10.25000    0.08220    0.08004 =
         0.07991   -0.00423    0.01652    0.00720
C15'  1    0.432144    0.669147    0.800704    10.25000    0.07561    0.07079 =
         0.07322   -0.00763    0.01144    0.01383
C16'  1    0.410508    0.677823    0.757073    10.25000    0.06032    0.05963 =
         0.07115   -0.00493    0.01709    0.01508
C17'  1    0.463448    0.691141    0.736627    10.25000    0.07094    0.05869 =
         0.07410    0.00155    0.00707    0.00057
C18'  1    0.464852    0.682534    0.696735    10.25000    0.06230    0.03845 =
         0.05292    0.02100    0.00109    0.00315
C19'  1    0.520782    0.672934    0.679687    10.25000    0.06903    0.06149 =
         0.06386    0.01307    0.00703   -0.00929
C20'  1    0.564879    0.672260    0.704705    10.25000    0.07295    0.07430 =
         0.07888    0.00798    0.00472   -0.01281
C21'  1    0.608955    0.649930    0.695038    10.25000    0.08075    0.08419 =
         0.07970   -0.00135    0.00222   -0.00810
C22'  1    0.650625    0.634982    0.727598    10.25000    0.08415    0.09176 =
         0.08471   -0.00158    0.00564   -0.00046
C23'  1    0.662191    0.598634    0.714476    10.25000    0.09052    0.09391 =
         0.08999   -0.00271    0.00386    0.00242
C24'  1    0.672799    0.571792    0.744105    10.25000    0.09224    0.09518 =
         0.08923   -0.00235    0.00635    0.00119
C25'  1    0.668918    0.580766    0.787776    10.25000    0.08706    0.09168 =
         0.08962   -0.00215    0.00273    0.00570
C26'  1    0.641912    0.548530    0.806078    10.25000    0.08666    0.08964 =
         0.08777    0.00376   -0.00013    0.00709
C27'  1    0.606315    0.554202    0.836730    10.25000    0.08715    0.09034 =
         0.08871    0.00483   -0.00244    0.00470
C28'  1    0.552528    0.533901    0.836247    10.25000    0.08949    0.08335 =
         0.08413    0.00672   -0.00429   -0.00027
C29'  1    0.506717    0.555692    0.850552    10.25000    0.08789    0.09017 =
         0.08474    0.00518    0.00490   -0.00355
C30'  1    0.449796    0.551068    0.834776    10.25000    0.08620    0.08616 =
         0.08115    0.00459    0.01005   -0.00347
C31'  1    0.415385    0.580098    0.835089    10.25000    0.08049    0.08686 =
         0.07787    0.00270    0.01624   -0.00252
C32'  1    0.370429    0.583649    0.804857    10.25000    0.06861    0.07866 =
         0.07295    0.00086    0.02120   -0.00726
C33'  1    0.361252    0.619490    0.793602    10.25000    0.07177    0.07676 =
         0.07249   -0.00435    0.01780    0.00710
C34'  1    0.345355    0.629333    0.755305    10.25000    0.07201    0.07668 =
         0.07928   -0.00404    0.01015    0.00590
C35'  1    0.370669    0.660389    0.736234    10.25000    0.06383    0.06122 =
         0.06768   -0.00212    0.00382    0.01784
C36'  1    0.373333    0.652452    0.693744    10.25000    0.06408    0.06805 =
         0.07351    0.00551   -0.00079    0.00694
C37'  1    0.420466    0.664401    0.673062    10.25000    0.06019    0.05413 =
         0.06235    0.02512   -0.00216    0.00989
C38'  1    0.445870    0.640964    0.645558    10.25000    0.05806    0.05330 =
         0.03785    0.02472   -0.00765   -0.00151
C39'  1    0.506880    0.647358    0.649073    10.25000    0.06135    0.05518 =
         0.04939    0.02305    0.00923   -0.00723
C40'  1    0.545628    0.618945    0.643660    10.25000    0.06299    0.07347 =
         0.05628    0.00626    0.01692   -0.00558
C41'  1    0.596526    0.622618    0.666094    10.25000    0.07990    0.08796 =
         0.08136   -0.00056    0.00553   -0.00112
C42'  1    0.627655    0.591593    0.677861    10.25000    0.08643    0.08855 =
         0.08656   -0.00186    0.00312    0.00300
C43'  1    0.603991    0.560144    0.669415    10.25000    0.08701    0.08998 =
         0.09463    0.00095    0.00398    0.00170
C44'  1    0.613939    0.530656    0.699388    10.25000    0.09233    0.09662 =
         0.09456    0.00170    0.00158   -0.00393
C45'  1    0.648079    0.539947    0.734459    10.25000    0.09533    0.09646 =
         0.09365   -0.00371    0.00458   -0.00109
C46'  1    0.626961    0.522938    0.776479    10.25000    0.09340    0.09330 =
         0.09549   -0.00210    0.00263    0.00443
C47'  1    0.581230    0.503718    0.770559    10.25000    0.08857    0.09028 =
         0.09488   -0.00288    0.00348    0.00476
C48'  1    0.539120    0.510391    0.806109    10.25000    0.08849    0.07771 =
         0.08542    0.00655   -0.00097    0.00180
C49'  1    0.485889    0.505430    0.787022    10.25000    0.07921    0.06175 =
         0.07503    0.01358    0.00259   -0.00845
C50'  1    0.438546    0.524219    0.803292    10.25000    0.07919    0.07226 =
         0.07611    0.01333    0.00539   -0.01166
C51'  1    0.393577    0.529464    0.770210    10.25000    0.06357    0.06155 =
         0.06827    0.01086    0.00976   -0.01498
C52'  1    0.360494    0.558246    0.774503    10.25000    0.05912    0.06807 =
         0.06804    0.00480    0.01761   -0.01127
C53'  1    0.340022    0.570826    0.733856    10.25000    0.06474    0.07072 =
         0.07392    0.00116    0.00560   -0.00427
C54'  1    0.333265    0.605158    0.723833    10.25000    0.06645    0.07119 =
         0.07541   -0.00031    0.00586    0.00620
C55'  1    0.349453    0.619539    0.684735    10.25000    0.06450    0.06901 =
         0.07295    0.00252   -0.00386    0.00235
C56'  1    0.373065    0.597320    0.659564    10.25000    0.05888    0.06901 =
         0.06207    0.00447   -0.00896   -0.00264
C57'  1    0.425161    0.608277    0.637146    10.25000    0.06406    0.06962 =
         0.05511    0.00704   -0.00913   -0.00249
C58'  1    0.460197    0.578870    0.632962    10.25000    0.07164    0.07282 =
         0.05249   -0.00837    0.00015   -0.00102
C59'  1    0.432595    0.548064    0.651603    10.25000    0.06322    0.06314 =
         0.05661   -0.01632   -0.00509   -0.00436
C60'  1    0.466848    0.523032    0.672438    10.25000    0.07422    0.06397 =
         0.06824   -0.01072    0.00361    0.00059
C61'  1    0.523376    0.523955    0.669041    10.25000    0.07287    0.07121 =
         0.07347   -0.01014    0.01184    0.01059
C62'  1    0.565577    0.509554    0.699815    10.25000    0.08767    0.08754 =
         0.08997    0.00337    0.00044   -0.00013
C63'  1    0.548340    0.497693    0.736065    10.25000    0.08692    0.09016 =
         0.09174    0.00149    0.00634    0.00555
C64'  1    0.490148    0.498482    0.741614    10.25000    0.08181    0.07119 =
         0.08319    0.00058   -0.00009    0.00071
C65'  1    0.446037    0.508026    0.713578    10.25000    0.06678    0.05266 =
         0.06965   -0.00382    0.00716   -0.00644
C66'  1    0.396405    0.521615    0.729099    10.25000    0.05833    0.05099 =
         0.06982   -0.00112    0.00260   -0.01560
C67'  1    0.363580    0.547742    0.705428    10.25000    0.05987    0.06270 =
         0.06971    0.00113   -0.00055   -0.00669
C68'  1    0.380531    0.560588    0.669610    10.25000    0.06024    0.06590 =
         0.06390   -0.00620   -0.00509   -0.00683
C69'  1    0.519449    0.583126    0.636147    10.25000    0.06405    0.06686 =
         0.04403   -0.00847    0.01983    0.00470
C70'  1    0.551449    0.555502    0.649908    10.25000    0.07868    0.07713 =
         0.07177   -0.00745    0.01189    0.00513
PART 0
HKLF 4
REM  LPH005C70111_0m in C2/c
REM R1 =  0.1076 for   22503 Fo > 4sig(Fo)  and  0.1472 for all   32986 data
REM   2593 parameters refined using   3045 restraints
END
WGHT      0.1911    214.5567
REM Highest difference peak  2.238,  deepest hole -1.273,  1-sigma level  0.128
Q1    1   0.4202  0.6727  0.6909  11.00000  0.05    2.24
Q2    1   0.5828  0.5114  0.7497  11.00000  0.05    2.12
Q3    1   0.4624  0.6360  0.6391  11.00000  0.05    2.10
Q4    1   0.4791  0.6788  0.6899  11.00000  0.05    1.99
Q5    1   0.4876  0.6876  0.7685  11.00000  0.05    1.92
Q6    1   0.4203  0.6050  0.8408  11.00000  0.05    1.87
Q7    1   0.4021  0.6472  0.6608  11.00000  0.05    1.83
Q8    1   0.6090  0.5568  0.6944  11.00000  0.05    1.83
Q9    1   0.4372  0.6428  0.8315  11.00000  0.05    1.82
Q10   1   0.6012  0.6750  0.7674  11.00000  0.05    1.80
Q11   1   0.5903  0.6586  0.7003  11.00000  0.05    1.77
Q12   1   0.4964  0.6577  0.8416  11.00000  0.05    1.64
Q13   1   0.4577  0.6002  0.6290  11.00000  0.05    1.60
Q14   1   0.4215  0.5852  0.6318  11.00000  0.05    1.56
Q15   1   0.4888  0.5379  0.6503  11.00000  0.05    1.51
Q16   1   0.6093  0.5804  0.6805  11.00000  0.05    1.50
Q17   1   0.4076  0.5814  0.6370  11.00000  0.05    1.44
Q18   1   0.4988  0.5030  0.7785  11.00000  0.05    1.41
Q19   1   0.5461  0.5132  0.7132  11.00000  0.05    1.40
Q20   1   0.3701  0.6333  0.7883  11.00000  0.05    1.30
Q21   1   0.5446  0.5956  0.6381  11.00000  0.05    1.29
Q22   1   0.6674  0.5879  0.7406  11.00000  0.05    1.26
Q23   1   0.3796  0.6279  0.7993  11.00000  0.05    1.26
Q24   1   0.4165  0.5234  0.6764  11.00000  0.05    1.25
Q25   1   0.4301  0.5100  0.6974  11.00000  0.05    1.19
Q26   1   0.4013  0.5181  0.7084  11.00000  0.05    1.19
Q27   1   0.3441  0.5746  0.6840  11.00000  0.05    1.18
Q28   1   0.5091  0.5902  0.6309  11.00000  0.05    1.15
Q29   1   0.4336  0.5621  0.6383  11.00000  0.05    1.14
Q30   1   0.5484  0.5365  0.6697  11.00000  0.05    1.13
Q31   1   0.6528  0.5784  0.7305  11.00000  0.05    1.12
Q32   1   0.3216  0.5968  0.7133  11.00000  0.05    1.00
Q33   1   0.3675  0.6119  0.6607  11.00000  0.05    0.99
Q34   1   0.5220  0.5645  0.6375  11.00000  0.05    0.93
Q35   1   0.5219  0.5174  0.6831  11.00000  0.05    0.91
Q36   1   0.6147  0.6158  0.8501  11.00000  0.05    0.90
Q37   1   0.4664  0.5409  0.8407  11.00000  0.05    0.89
Q38   1   0.6285  0.5435  0.8083  11.00000  0.05    0.88
Q39   1   0.5304  0.5244  0.6815  11.00000  0.05    0.87
Q40   1   0.6511  0.6147  0.7250  11.00000  0.05    0.84
Q41   1   0.5108  0.5124  0.6866  11.00000  0.05    0.84
Q42   1   0.6454  0.6495  0.7596  11.00000  0.05    0.76
Q43   1   0.3673  0.5318  0.7381  11.00000  0.05    0.76
Q44   1   0.6657  0.6248  0.7915  11.00000  0.05    0.75
Q45   1   0.5000  0.7902  0.7500  10.50000  0.05    0.73
Q46   1   0.4726  0.4158  0.7669  11.00000  0.05    0.72
Q47   1   0.4912  0.7713  0.7785  11.00000  0.05    0.71
Q48   1   0.4744  0.7732  0.7688  11.00000  0.05    0.68
Q49   1   0.5000  0.0307  0.7500  10.50000  0.05    0.54
Q50   1   0.6699  0.4103  0.7106  11.00000  0.05    0.51
Q51   1   0.3612  0.5982  0.7956  11.00000  0.05    0.51
Q52   1   0.3511  0.5531  0.7420  11.00000  0.05    0.50
Q53   1   0.6308  0.7648  0.7417  11.00000  0.05    0.48
Q54   1   0.6368  0.4132  0.7421  11.00000  0.05    0.48
Q55   1   0.4517 -0.0009  0.3504  11.00000  0.05    0.47
Q56   1   0.7377  0.1433  0.8830  11.00000  0.05    0.46
Q57   1   0.7786  0.8190  0.6904  11.00000  0.05    0.46
Q58   1   0.5600  0.4293  0.8714  11.00000  0.05    0.46
Q59   1   0.4676  0.7703  0.8585  11.00000  0.05    0.45
Q60   1   0.7771  0.3772  0.6736  11.00000  0.05    0.45
;
_shelx_res_checksum              93404
loop_
_space_group_symop_operation_xyz
'x, y, z'
'-x, y, -z+1/2'
'x+1/2, y+1/2, z'
'-x+1/2, y+1/2, -z+1/2'
'-x, -y, -z'
'x, -y, z-1/2'
'-x+1/2, -y+1/2, -z'
'x+1/2, -y+1/2, z-1/2'
loop_
_atom_site_label
_atom_site_type_symbol
_atom_site_fract_x
_atom_site_fract_y
_atom_site_fract_z
_atom_site_U_iso_or_equiv
_atom_site_adp_type
_atom_site_occupancy
_atom_site_site_symmetry_order
_atom_site_calc_flag
_atom_site_refinement_flags_posn
_atom_site_refinement_flags_adp
_atom_site_refinement_flags_occupancy
_atom_site_disorder_assembly
_atom_site_disorder_group
C1 C 0.50822(18) 0.42599(9) 0.65670(11) 0.0176(7) Uani 1 1 d . . . . .
C2 C 0.54958(19) 0.42636(11) 0.62494(12) 0.0213(8) Uani 1 1 d . . . . .
H2 H 0.5418 0.4296 0.5963 0.026 Uiso 1 1 d . U . . .
C3 C 0.60163(19) 0.42122(11) 0.64392(12) 0.0220(8) Uani 1 1 d . . . . .
H3 H 0.6372 0.4201 0.6310 0.026 Uiso 1 1 d . U . . .
C4 C 0.59289(18) 0.41842(10) 0.68761(11) 0.0182(8) Uani 1 1 d . . . . .
C5 C 0.63736(18) 0.41479(9) 0.71771(12) 0.0183(8) Uani 1 1 d . . . . .
C6 C 0.69538(19) 0.40586(10) 0.70327(12) 0.0205(8) Uani 1 1 d . . . . .
C7 C 0.7094(2) 0.36991(11) 0.69794(12) 0.0240(8) Uani 1 1 d . . . . .
C8 C 0.7628(2) 0.36127(13) 0.68287(15) 0.0323(10) Uani 1 1 d . . . . .
H8 H 0.7729 0.3370 0.6794 0.039 Uiso 1 1 d . U . . .
C9 C 0.8016(2) 0.38764(14) 0.67289(15) 0.0348(11) Uani 1 1 d . . . . .
C10 C 0.7873(2) 0.42306(14) 0.67889(15) 0.0323(10) Uani 1 1 d . . . . .
H10 H 0.8135 0.4412 0.6721 0.039 Uiso 1 1 d . U . . .
C11 C 0.7348(2) 0.43247(11) 0.69426(13) 0.0249(9) Uani 1 1 d . . . . .
C12 C 0.6689(2) 0.34029(11) 0.70752(15) 0.0322(10) Uani 1 1 d . . . . .
H12A H 0.6898 0.3180 0.7115 0.048 Uiso 1 1 d . U . . .
H12B H 0.6405 0.3376 0.6842 0.048 Uiso 1 1 d . U . . .
H12C H 0.6487 0.3462 0.7323 0.048 Uiso 1 1 d . U . . .
C13 C 0.8588(3) 0.3776(2) 0.6566(2) 0.0548(17) Uani 1 1 d . . . . .
H13A H 0.8589 0.3836 0.6272 0.082 Uiso 1 1 d . U . . .
H13B H 0.8657 0.3523 0.6606 0.082 Uiso 1 1 d . U . . .
H13C H 0.8887 0.3916 0.6716 0.082 Uiso 1 1 d . U . . .
C14 C 0.7202(2) 0.47131(12) 0.70011(15) 0.0331(10) Uani 1 1 d . . . . .
H14A H 0.7526 0.4863 0.6940 0.050 Uiso 1 1 d . U . . .
H14B H 0.7098 0.4753 0.7287 0.050 Uiso 1 1 d . U . . .
H14C H 0.6871 0.4776 0.6816 0.050 Uiso 1 1 d . U . . .
C15 C 0.63052(18) 0.41869(10) 0.76008(12) 0.0187(8) Uani 1 1 d . . . . .
C16 C 0.67677(19) 0.42257(11) 0.79044(12) 0.0218(8) Uani 1 1 d . . . . .
H16 H 0.7161 0.4215 0.7854 0.026 Uiso 1 1 d . U . . .
C17 C 0.65300(19) 0.42741(11) 0.82721(12) 0.0226(8) Uani 1 1 d . . . . .
H17 H 0.6729 0.4312 0.8531 0.027 Uiso 1 1 d . U . . .
C18 C 0.59179(18) 0.42549(9) 0.81986(11) 0.0177(7) Uani 1 1 d . . . . .
C19 C 0.55146(18) 0.42789(9) 0.85029(11) 0.0170(7) Uani 1 1 d . . . . .
C20 C 0.57379(18) 0.43109(10) 0.89390(11) 0.0189(8) Uani 1 1 d . . . . .
C21 C 0.6047(2) 0.40339(11) 0.91251(12) 0.0234(8) Uani 1 1 d . . . . .
H21 H 0.6114 0.3823 0.8974 0.028 Uiso 1 1 d . U . . .
C22 C 0.6248(2) 0.40627(11) 0.95303(13) 0.0256(9) Uani 1 1 d . . . . .
H22 H 0.6467 0.3874 0.9655 0.031 Uiso 1 1 d . U . . .
C23 C 0.6146(2) 0.43682(11) 0.97555(12) 0.0253(9) Uani 1 1 d . . . . .
H23 H 0.6278 0.4386 1.0035 0.030 Uiso 1 1 d . U . . .
C24 C 0.5844(2) 0.46495(10) 0.95691(12) 0.0223(8) Uani 1 1 d . . . . .
C25 C 0.56360(19) 0.46218(10) 0.91640(12) 0.0217(8) Uani 1 1 d . . . . .
H25 H 0.5426 0.4814 0.9038 0.026 Uiso 1 1 d . U . . .
C26 C 0.5484(2) 0.52450(11) 0.96393(13) 0.0285(10) Uani 1 1 d . . . . .
H26A H 0.5083 0.5186 0.9556 0.034 Uiso 1 1 d . U . . .
H26B H 0.5679 0.5325 0.9390 0.034 Uiso 1 1 d . U . . .
C27 C 0.5506(2) 0.55356(11) 0.99602(13) 0.0286(10) Uani 1 1 d . . . . .
H27A H 0.5909 0.5587 1.0043 0.034 Uiso 1 1 d . U . . .
H27B H 0.5312 0.5451 1.0206 0.034 Uiso 1 1 d . U . . .
C28 C 0.5219(2) 0.58774(11) 0.98044(13) 0.0289(10) Uani 1 1 d . . . . .
H28A H 0.4818 0.5826 0.9713 0.035 Uiso 1 1 d . U . . .
H28B H 0.5419 0.5967 0.9563 0.035 Uiso 1 1 d . U . . .
C29 C 0.5225(2) 0.61679(11) 1.01338(13) 0.0299(10) Uani 1 1 d . . . . .
H29A H 0.5090 0.6065 1.0391 0.036 Uiso 1 1 d . U . . .
H29B H 0.5622 0.6250 1.0187 0.036 Uiso 1 1 d . U . . .
C30 C 0.4851(2) 0.64867(12) 1.00142(14) 0.0311(10) Uani 1 1 d . . . . .
H30A H 0.4461 0.6400 0.9946 0.037 Uiso 1 1 d . U . . .
H30B H 0.4834 0.6644 1.0258 0.037 Uiso 1 1 d . U . . .
C31 C 0.5045(2) 0.67083(11) 0.96570(13) 0.0279(9) Uani 1 1 d . . . . .
H31A H 0.5112 0.6554 0.9420 0.034 Uiso 1 1 d . U . . .
H31B H 0.4744 0.6885 0.9577 0.034 Uiso 1 1 d . U . . .
C32 C 0.4051(2) 0.77163(10) 0.81044(12) 0.0227(8) Uani 1 1 d . . . . .
C33 C 0.3945(2) 0.77154(12) 0.85354(13) 0.0279(9) Uani 1 1 d . . . . .
H33 H 0.3581 0.7745 0.8653 0.034 Uiso 1 1 d . U . . .
C34 C 0.4454(2) 0.76555(12) 0.87395(13) 0.0271(9) Uani 1 1 d . . . . .
H34 H 0.4518 0.7633 0.9030 0.032 Uiso 1 1 d . U . . .
C35 C 0.48802(19) 0.76298(10) 0.84337(12) 0.0214(8) Uani 1 1 d . . . . .
C36 C 0.54751(19) 0.76010(10) 0.85205(12) 0.0217(8) Uani 1 1 d . . . . .
C37 C 0.5682(2) 0.75442(11) 0.89555(12) 0.0243(9) Uani 1 1 d . . . . .
C38 C 0.6066(2) 0.77810(11) 0.91574(13) 0.0282(9) Uani 1 1 d . . . . .
H38 H 0.6178 0.7991 0.9022 0.034 Uiso 1 1 d . U . . .
C39 C 0.6283(2) 0.77069(13) 0.95523(14) 0.0320(10) Uani 1 1 d . . . . .
H39 H 0.6558 0.7860 0.9683 0.038 Uiso 1 1 d . U . . .
C40 C 0.6110(2) 0.74021(13) 0.97558(14) 0.0321(10) Uani 1 1 d . . . . .
H40 H 0.6256 0.7350 1.0028 0.039 Uiso 1 1 d . U . . .
C41 C 0.5718(2) 0.71735(11) 0.95631(13) 0.0264(9) Uani 1 1 d . . . . .
C42 C 0.5509(2) 0.72401(10) 0.91634(12) 0.0233(8) Uani 1 1 d . . . . .
H42 H 0.5249 0.7077 0.9031 0.028 Uiso 1 1 d . U . . .
C43 C 0.58919(19) 0.76240(10) 0.82221(13) 0.0218(8) Uani 1 1 d . . . . .
C44 C 0.6505(2) 0.76146(11) 0.83062(13) 0.0262(9) Uani 1 1 d . . . . .
H44 H 0.6702 0.7574 0.8564 0.031 Uiso 1 1 d . U . . .
C45 C 0.6750(2) 0.76755(11) 0.79431(13) 0.0258(9) Uani 1 1 d . . . . .
H45 H 0.7147 0.7693 0.7902 0.031 Uiso 1 1 d . U . . .
C46 C 0.62934(18) 0.77068(10) 0.76337(13) 0.0211(8) Uani 1 1 d . . . . .
C47 C 0.63746(19) 0.77518(10) 0.72131(13) 0.0215(8) Uani 1 1 d . . . . .
C48 C 0.69586(19) 0.78613(11) 0.70930(12) 0.0221(8) Uani 1 1 d . . . . .
C49 C 0.7080(2) 0.82271(11) 0.70659(13) 0.0252(9) Uani 1 1 d . . . . .
C50 C 0.7621(2) 0.83326(12) 0.69621(14) 0.0277(9) Uani 1 1 d . . . . .
H50 H 0.7700 0.8579 0.6945 0.033 Uiso 1 1 d . U . . .
C51 C 0.8046(2) 0.80868(13) 0.68810(13) 0.0289(10) Uani 1 1 d . . . . .
C52 C 0.7922(2) 0.77260(12) 0.69105(14) 0.0285(9) Uani 1 1 d . . . . .
H52 H 0.8202 0.7553 0.6853 0.034 Uiso 1 1 d . U . . .
C53 C 0.7385(2) 0.76108(11) 0.70223(13) 0.0259(9) Uani 1 1 d . . . . .
C54 C 0.6632(2) 0.85050(12) 0.71506(16) 0.0334(10) Uani 1 1 d . . . . .
H54A H 0.6815 0.8740 0.7186 0.050 Uiso 1 1 d . U . . .
H54B H 0.6444 0.8443 0.7405 0.050 Uiso 1 1 d . U . . .
H54C H 0.6350 0.8513 0.6921 0.050 Uiso 1 1 d . U . . .
C55 C 0.8633(2) 0.82143(14) 0.67619(16) 0.0373(11) Uani 1 1 d . . . . .
H55A H 0.8627 0.8260 0.6464 0.056 Uiso 1 1 d . U . . .
H55B H 0.8917 0.8025 0.6828 0.056 Uiso 1 1 d . U . . .
H55C H 0.8738 0.8430 0.6912 0.056 Uiso 1 1 d . U . . .
C56 C 0.7264(2) 0.72178(12) 0.70728(17) 0.0364(11) Uani 1 1 d . . . . .
H56A H 0.7612 0.7080 0.7033 0.055 Uiso 1 1 d . U . . .
H56B H 0.6965 0.7143 0.6867 0.055 Uiso 1 1 d . U . . .
H56C H 0.7129 0.7173 0.7349 0.055 Uiso 1 1 d . U . . .
C57 C 0.48002(19) 0.33685(10) 0.78161(12) 0.0209(8) Uani 1 1 d . . . . .
H57 H 0.4656 0.3499 0.8036 0.025 Uiso 1 1 d . U . . .
C58 C 0.4785(2) 0.29985(10) 0.78262(12) 0.0225(8) Uani 1 1 d . . . . .
H58 H 0.4638 0.2875 0.8053 0.027 Uiso 1 1 d . U . . .
C59 C 0.5000 0.28141(13) 0.7500 0.0201(11) Uani 1 2 d S T P . .
C60 C 0.4690(2) 0.22593(10) 0.71761(12) 0.0228(8) Uani 1 1 d . . . . .
C61 C 0.46934(19) 0.18659(10) 0.71861(12) 0.0208(8) Uani 1 1 d . . . . .
C62 C 0.4409(2) 0.16860(10) 0.68746(12) 0.0217(8) Uani 1 1 d . . . . .
H62 H 0.4231 0.1814 0.6653 0.026 Uiso 1 1 d . U . . .
C63 C 0.5000 0.16792(13) 0.7500 0.0196(11) Uani 1 2 d S T P . .
C64 C 0.5000 0.13053(13) 0.7500 0.0190(11) Uani 1 2 d S T P . .
C65 C 0.53704(19) 0.11176(9) 0.77883(12) 0.0191(8) Uani 1 1 d . . . . .
C66 C 0.56266(19) 0.13120(10) 0.81149(12) 0.0209(8) Uani 1 1 d . . . . .
C67 C 0.63677(19) 0.12564(10) 0.86368(12) 0.0203(8) Uani 1 1 d . . . . .
C68 C 0.6778(2) 0.14379(11) 0.84291(12) 0.0248(9) Uani 1 1 d . . . . .
H68 H 0.6715 0.1495 0.8148 0.030 Uiso 1 1 d . U . . .
C69 C 0.7286(2) 0.15346(11) 0.86363(13) 0.0252(9) Uani 1 1 d . . . . .
H69 H 0.7558 0.1665 0.8489 0.030 Uiso 1 1 d . U . . .
C70 C 0.7406(2) 0.14501(10) 0.90488(13) 0.0235(8) Uani 1 1 d . . . . .
C71 C 0.6983(2) 0.12576(11) 0.92446(12) 0.0253(9) Uani 1 1 d . . . . .
H71 H 0.7043 0.1192 0.9524 0.030 Uiso 1 1 d . U . . .
C72 C 0.6473(2) 0.11631(11) 0.90501(12) 0.0241(9) Uani 1 1 d . . . . .
H72 H 0.6195 0.1034 0.9190 0.029 Uiso 1 1 d . U . . .
C73 C 0.7969(2) 0.15433(12) 0.92723(13) 0.0280(9) Uani 1 1 d . . . . .
C74 C 0.8325(2) 0.18044(15) 0.90248(16) 0.0380(11) Uani 1 1 d . . . . .
H74A H 0.8677 0.1861 0.9183 0.057 Uiso 1 1 d . U . . .
H74B H 0.8102 0.2023 0.8973 0.057 Uiso 1 1 d . U . . .
H74C H 0.8412 0.1693 0.8765 0.057 Uiso 1 1 d . U . . .
C75 C 0.7867(3) 0.17149(16) 0.96897(16) 0.0422(13) Uani 1 1 d . . . . .
H75A H 0.7627 0.1563 0.9853 0.063 Uiso 1 1 d . U . . .
H75B H 0.7684 0.1949 0.9650 0.063 Uiso 1 1 d . U . . .
H75C H 0.8240 0.1751 0.9843 0.063 Uiso 1 1 d . U . . .
C76 C 0.8318(3) 0.11990(15) 0.93386(17) 0.0394(12) Uani 1 1 d . . . . .
H76A H 0.8105 0.1034 0.9513 0.059 Uiso 1 1 d . U . . .
H76B H 0.8686 0.1255 0.9478 0.059 Uiso 1 1 d . U . . .
H76C H 0.8375 0.1087 0.9074 0.059 Uiso 1 1 d . U . . .
C77 C 0.54508(19) 0.07332(10) 0.77219(12) 0.0199(8) Uani 1 1 d . . . . .
C78 C 0.59378(19) 0.05384(10) 0.78467(12) 0.0214(8) Uani 1 1 d . . . . .
C79 C 0.5955(2) 0.01656(10) 0.77990(13) 0.0243(9) Uani 1 1 d . . . . .
H79 H 0.6297 0.0041 0.7868 0.029 Uiso 1 1 d . U . . .
C80 C 0.5490(2) -0.00162(10) 0.76503(13) 0.0227(8) Uani 1 1 d . . . . .
C81 C 0.5000 0.01693(13) 0.7500 0.0206(11) Uani 1 2 d S T P . .
C82 C 0.5000 0.05462(13) 0.7500 0.0199(11) Uani 1 2 d S T P . .
C83 C 0.67347(19) 0.05463(10) 0.83167(12) 0.0213(8) Uani 1 1 d . . . . .
C84 C 0.73091(19) 0.05949(10) 0.83333(12) 0.0220(8) Uani 1 1 d . . . . .
H84 H 0.7485 0.0732 0.8130 0.026 Uiso 1 1 d . U . . .
C85 C 0.7641(2) 0.04405(11) 0.86532(13) 0.0254(9) Uani 1 1 d . . . . .
H85 H 0.8043 0.0478 0.8665 0.030 Uiso 1 1 d . U . . .
C86 C 0.7400(2) 0.02362(11) 0.89515(13) 0.0251(9) Uani 1 1 d . . . . .
C87 C 0.6806(2) 0.01993(11) 0.89347(13) 0.0276(9) Uani 1 1 d . . . . .
H87 H 0.6634 0.0064 0.9141 0.033 Uiso 1 1 d . U . . .
C88 C 0.6467(2) 0.03553(11) 0.86223(13) 0.0248(9) Uani 1 1 d . . . . .
H88 H 0.6059 0.0333 0.8618 0.030 Uiso 1 1 d . U . . .
C89 C 0.7760(2) 0.00531(12) 0.92986(14) 0.0320(10) Uani 1 1 d . . . . .
C90 C 0.7588(3) 0.02075(14) 0.97168(15) 0.0406(13) Uani 1 1 d . . . . .
H90A H 0.7825 0.0095 0.9941 0.061 Uiso 1 1 d . U . . .
H90B H 0.7186 0.0152 0.9757 0.061 Uiso 1 1 d . U . . .
H90C H 0.7648 0.0464 0.9725 0.061 Uiso 1 1 d . U . . .
C91 C 0.8400(3) 0.01042(15) 0.92526(16) 0.0388(12) Uani 1 1 d . . . . .
H91A H 0.8505 0.0019 0.8983 0.058 Uiso 1 1 d . U . . .
H91B H 0.8614 -0.0026 0.9470 0.058 Uiso 1 1 d . U . . .
H91C H 0.8494 0.0361 0.9278 0.058 Uiso 1 1 d . U . . .
C92 C 0.7632(3) -0.03487(14) 0.92875(17) 0.0454(14) Uani 1 1 d . . . . .
H92A H 0.7658 -0.0437 0.9007 0.068 Uiso 1 1 d . U . . .
H92B H 0.7244 -0.0389 0.9381 0.068 Uiso 1 1 d . U . . .
H92C H 0.7908 -0.0475 0.9471 0.068 Uiso 1 1 d . U . . .
C93 C 0.5508(2) -0.04093(10) 0.76330(13) 0.0251(9) Uani 1 1 d . . . . .
N8 N 0.5000 -0.05782(11) 0.7500 0.0210(10) Uani 1 2 d S T P . .
C94 C 0.5000 -0.09623(13) 0.7500 0.0212(11) Uani 1 2 d S T P . .
C95 C 0.5021(2) -0.11450(10) 0.71328(12) 0.0247(9) Uani 1 1 d . . . . .
H95 H 0.5029 -0.1021 0.6879 0.030 Uiso 1 1 d . U . . .
C97 C 0.5019(2) 0.84883(10) 0.71502(12) 0.0257(9) Uani 1 1 d . . . . .
H97 H 0.5041 0.8358 0.6901 0.031 Uiso 1 1 d . U . . .
C1S C 0.4700(4) 0.11082(17) 0.39497(19) 0.058(2) Uani 1 1 d . . . . .
C2S C 0.5130(3) 0.08592(17) 0.39462(18) 0.0491(15) Uani 1 1 d . . . . .
H2S H 0.5494 0.0921 0.4061 0.059 Uiso 1 1 d . U . . .
C3S C 0.5046(3) 0.05265(17) 0.37877(19) 0.0525(16) Uani 1 1 d . . . . .
H3S H 0.5349 0.0363 0.3786 0.063 Uiso 1 1 d . U . . .
C4S C 0.4527(5) 0.0421(3) 0.3631(2) 0.075(3) Uani 1 1 d . . . . .
C5S C 0.4094(4) 0.0661(4) 0.3616(2) 0.088(3) Uani 1 1 d . . . . .
H5S H 0.3746 0.0578 0.3489 0.106 Uiso 1 1 d . U . . .
C6S C 0.4168(4) 0.1001(3) 0.3773(3) 0.088(4) Uani 1 1 d . . . . .
H6S H 0.3850 0.1152 0.3757 0.106 Uiso 1 1 d . U . . .
C7S C 0.4776(7) 0.1477(2) 0.4128(3) 0.130(6) Uani 1 1 d . . . . .
H7S1 H 0.4597 0.1494 0.4389 0.195 Uiso 1 1 d . U . . .
H7S2 H 0.4603 0.1651 0.3932 0.195 Uiso 1 1 d . U . . .
H7S3 H 0.5189 0.1534 0.4166 0.195 Uiso 1 1 d . U . . .
C8S C 0.4432(8) 0.0047(4) 0.3481(3) 0.168(8) Uani 1 1 d . . . . .
H8S1 H 0.4292 -0.0099 0.3702 0.251 Uiso 1 1 d . U . . .
H8S2 H 0.4783 -0.0048 0.3380 0.251 Uiso 1 1 d . U . . .
H8S3 H 0.4134 0.0048 0.3249 0.251 Uiso 1 1 d . U . . .
C1T C 0.6884(3) 0.18300(15) 0.05669(15) 0.0394(12) Uani 1 1 d . . . . .
C2T C 0.6620(3) 0.15760(17) 0.03112(16) 0.0430(13) Uani 1 1 d . . . . .
H2T H 0.6349 0.1651 0.0099 0.052 Uiso 1 1 d . U . . .
C3T C 0.6744(3) 0.12187(17) 0.03601(15) 0.0433(13) Uani 1 1 d . . . . .
H3T H 0.6556 0.1052 0.0179 0.052 Uiso 1 1 d . U . . .
C4T C 0.7131(2) 0.10969(14) 0.06635(16) 0.0364(11) Uani 1 1 d . . . . .
C5T C 0.7388(3) 0.13526(14) 0.09207(16) 0.0382(11) Uani 1 1 d . . . . .
H5T H 0.7648 0.1282 0.1133 0.046 Uiso 1 1 d . U . . .
C6T C 0.7267(3) 0.17111(15) 0.08733(16) 0.0411(12) Uani 1 1 d . . . . .
H6T H 0.7443 0.1877 0.1054 0.049 Uiso 1 1 d . U . . .
C7T C 0.6769(3) 0.22209(18) 0.05029(19) 0.0533(16) Uani 1 1 d . . . . .
H7T1 H 0.7029 0.2357 0.0685 0.080 Uiso 1 1 d . U . . .
H7T2 H 0.6374 0.2272 0.0558 0.080 Uiso 1 1 d . U . . .
H7T3 H 0.6841 0.2279 0.0214 0.080 Uiso 1 1 d . U . . .
C8T C 0.7267(3) 0.07100(15) 0.07157(19) 0.0457(14) Uani 1 1 d . . . . .
H8T1 H 0.7107 0.0625 0.0970 0.069 Uiso 1 1 d . U . . .
H8T2 H 0.7674 0.0673 0.0720 0.069 Uiso 1 1 d . U . . .
H8T3 H 0.7081 0.0578 0.0481 0.069 Uiso 1 1 d . U . . .
C1U C 0.8424(3) 0.21366(15) 0.41040(16) 0.0409(12) Uani 1 1 d . . . . .
C2U C 0.8842(3) 0.23967(14) 0.41159(17) 0.0431(13) Uani 1 1 d . . . . .
H2U H 0.8740 0.2634 0.4177 0.052 Uiso 1 1 d . U . . .
C3U C 0.9406(3) 0.23198(14) 0.40470(16) 0.0411(12) Uani 1 1 d . . . . .
H3U H 0.9677 0.2509 0.4055 0.049 Uiso 1 1 d . U . . .
C4U C 0.9576(2) 0.19789(14) 0.39633(14) 0.0348(11) Uani 1 1 d . . . . .
C5U C 0.9167(3) 0.17127(14) 0.39507(17) 0.0438(13) Uani 1 1 d . . . . .
H5U H 0.9262 0.1471 0.3895 0.053 Uiso 1 1 d . U . . .
C6U C 0.8595(3) 0.17921(16) 0.40196(19) 0.0487(14) Uani 1 1 d . . . . .
H6U H 0.8322 0.1605 0.4009 0.058 Uiso 1 1 d . U . . .
C7U C 0.7816(3) 0.2221(2) 0.4193(2) 0.0639(19) Uani 1 1 d . . . . .
H7U1 H 0.7719 0.2103 0.4450 0.096 Uiso 1 1 d . U . . .
H7U2 H 0.7565 0.2133 0.3966 0.096 Uiso 1 1 d . U . . .
H7U3 H 0.7774 0.2478 0.4221 0.096 Uiso 1 1 d . U . . .
C8U C 1.0190(3) 0.18969(18) 0.38876(17) 0.0485(14) Uani 1 1 d . . . . .
H8U1 H 1.0323 0.2055 0.3676 0.073 Uiso 1 1 d . U . . .
H8U2 H 1.0211 0.1646 0.3792 0.073 Uiso 1 1 d . U . . .
H8U3 H 1.0420 0.1923 0.4142 0.073 Uiso 1 1 d . U . . .
C1V C 0.3877(3) 0.23936(17) 0.55665(18) 0.0473(14) Uani 1 1 d . . . . .
C2V C 0.4249(3) 0.25042(18) 0.52665(19) 0.0537(16) Uani 1 1 d . . . . .
H2V H 0.4176 0.2721 0.5125 0.064 Uiso 1 1 d . U . . .
C3V C 0.4704(3) 0.22949(19) 0.51609(19) 0.0542(17) Uani 1 1 d . . . . .
H3V H 0.4949 0.2376 0.4956 0.065 Uiso 1 1 d . U . . .
C4V C 0.4818(3) 0.19710(17) 0.53562(19) 0.0481(14) Uani 1 1 d . . . . .
C5V C 0.4439(3) 0.18590(15) 0.56455(17) 0.0453(14) Uani 1 1 d . . . . .
H5V H 0.4510 0.1637 0.5781 0.054 Uiso 1 1 d . U . . .
C6V C 0.3983(3) 0.20637(16) 0.57483(16) 0.0445(13) Uani 1 1 d . . . . .
H6V H 0.3728 0.1981 0.5946 0.053 Uiso 1 1 d . U . . .
C7V C 0.3385(3) 0.2620(2) 0.5682(2) 0.0605(17) Uani 1 1 d . . . . .
H7V1 H 0.3034 0.2538 0.5526 0.091 Uiso 1 1 d . U . . .
H7V2 H 0.3453 0.2868 0.5621 0.091 Uiso 1 1 d . U . . .
H7V3 H 0.3320 0.2591 0.5978 0.091 Uiso 1 1 d . U . . .
C8V C 0.5326(3) 0.1750(2) 0.5259(2) 0.0654(19) Uani 1 1 d . . . . .
H8V1 H 0.5459 0.1820 0.4988 0.098 Uiso 1 1 d . U . . .
H8V2 H 0.5232 0.1502 0.5265 0.098 Uiso 1 1 d . U . . .
H8V3 H 0.5637 0.1804 0.5469 0.098 Uiso 1 1 d . U . . .
C1W C 0.4444(3) 0.04286(16) 0.50777(19) 0.0470(14) Uani 1 1 d . . . . .
C2W C 0.4152(3) 0.03734(17) 0.47029(18) 0.0491(15) Uani 1 1 d . . . . .
H2W H 0.4130 0.0562 0.4507 0.059 Uiso 1 1 d . U . . .
C3W C 0.3894(3) 0.00500(19) 0.46093(19) 0.0537(16) Uani 1 1 d . . . . .
H3W H 0.3701 0.0020 0.4349 0.064 Uiso 1 1 d . U . . .
C4W C 0.3905(3) -0.02249(17) 0.4885(2) 0.0482(14) Uani 1 1 d . . . . .
C5W C 0.4195(3) -0.01754(16) 0.52590(19) 0.0479(14) Uani 1 1 d . . . . .
H5W H 0.4217 -0.0363 0.5455 0.058 Uiso 1 1 d . U . . .
C6W C 0.4459(3) 0.01458(17) 0.53561(18) 0.0481(14) Uani 1 1 d . . . . .
H6W H 0.4651 0.0174 0.5618 0.058 Uiso 1 1 d . U . . .
C7W C 0.4737(3) 0.0773(2) 0.5177(3) 0.066(2) Uani 1 1 d . . . . .
H7W1 H 0.4873 0.0784 0.5455 0.099 Uiso 1 1 d . U . . .
H7W2 H 0.4456 0.0973 0.5117 0.099 Uiso 1 1 d . U . . .
H7W3 H 0.5052 0.0809 0.4987 0.099 Uiso 1 1 d . U . . .
C8W C 0.3620(4) -0.0579(2) 0.4785(3) 0.071(2) Uani 1 1 d . . . . .
H8W1 H 0.3213 -0.0558 0.4816 0.107 Uiso 1 1 d . U . . .
H8W2 H 0.3782 -0.0760 0.4978 0.107 Uiso 1 1 d . U . . .
H8W3 H 0.3703 -0.0646 0.4504 0.107 Uiso 1 1 d . U . . .
C1X C 0.6299(3) 0.19648(16) 0.69706(18) 0.0442(13) Uani 1 1 d . . . . .
C2X C 0.5906(3) 0.19184(17) 0.66486(19) 0.0478(14) Uani 1 1 d . . . . .
H2X H 0.5752 0.2122 0.6502 0.057 Uiso 1 1 d . U . . .
C3X C 0.5720(3) 0.15824(19) 0.65212(18) 0.0514(15) Uani 1 1 d . . . . .
H3X H 0.5441 0.1567 0.6301 0.062 Uiso 1 1 d . U . . .
C4X C 0.5928(3) 0.12796(17) 0.67167(19) 0.0480(14) Uani 1 1 d . . . . .
C5X C 0.6319(3) 0.13251(15) 0.70496(18) 0.0445(13) Uani 1 1 d . . . . .
H5X H 0.6464 0.1119 0.7194 0.053 Uiso 1 1 d . U . . .
C6X C 0.6505(3) 0.16544(16) 0.71702(16) 0.0436(13) Uani 1 1 d . . . . .
H6X H 0.6787 0.1674 0.7391 0.052 Uiso 1 1 d . U . . .
C7X C 0.6505(3) 0.23293(18) 0.7097(2) 0.0597(18) Uani 1 1 d . . . . .
H7X1 H 0.6421 0.2502 0.6876 0.090 Uiso 1 1 d . U . . .
H7X2 H 0.6924 0.2326 0.7156 0.090 Uiso 1 1 d . U . . .
H7X3 H 0.6319 0.2407 0.7346 0.090 Uiso 1 1 d . U . . .
C8X C 0.5737(4) 0.09154(19) 0.6573(3) 0.066(2) Uani 1 1 d . . . . .
H8X1 H 0.6016 0.0818 0.6387 0.098 Uiso 1 1 d . U . . .
H8X2 H 0.5362 0.0930 0.6430 0.098 Uiso 1 1 d . U . . .
H8X3 H 0.5716 0.0757 0.6813 0.098 Uiso 1 1 d . U . . .
C1Y C 0.2639(4) 0.14782(18) 0.9938(3) 0.080(3) Uani 1 1 d . . . . .
C2Y C 0.3101(3) 0.15042(16) 0.9695(3) 0.0594(18) Uani 1 1 d . . . . .
H2Y H 0.3475 0.1445 0.9814 0.071 Uiso 1 1 d . U . . .
C3Y C 0.3048(3) 0.16221(16) 0.9296(2) 0.0547(16) Uani 1 1 d . . . . .
H3Y H 0.3374 0.1624 0.9133 0.066 Uiso 1 1 d . U . . .
C4Y C 0.2528(3) 0.17282(16) 0.9114(3) 0.0596(18) Uani 1 1 d . . . . .
C5Y C 0.2058(4) 0.1703(2) 0.9359(3) 0.075(2) Uani 1 1 d . . . . .
H5Y H 0.1690 0.1766 0.9242 0.090 Uiso 1 1 d . U . . .
C6Y C 0.2095(4) 0.1587(2) 0.9752(3) 0.079(3) Uani 1 1 d . . . . .
H6Y H 0.1760 0.1578 0.9902 0.095 Uiso 1 1 d . U . . .
C7Y C 0.2471(4) 0.1844(2) 0.8675(3) 0.073(2) Uani 1 1 d . . . . .
H7Y1 H 0.2795 0.1990 0.8609 0.109 Uiso 1 1 d . U . . .
H7Y2 H 0.2115 0.1988 0.8636 0.109 Uiso 1 1 d . U . . .
H7Y3 H 0.2440 0.1636 0.8496 0.109 Uiso 1 1 d . U . . .
C8Y C 0.2702(6) 0.1341(2) 1.0373(4) 0.106(4) Uani 1 1 d . . . . .
H8Y1 H 0.3100 0.1348 1.0467 0.159 Uiso 1 1 d . U . . .
H8Y2 H 0.2553 0.1097 1.0388 0.159 Uiso 1 1 d . U . . .
H8Y3 H 0.2475 0.1495 1.0553 0.159 Uiso 1 1 d . U . . .
C1Z C 0.2742(3) 0.03302(16) 0.83582(18) 0.0449(13) Uani 1 1 d . . . . .
C2Z C 0.2777(3) 0.06669(16) 0.85334(19) 0.0472(14) Uani 1 1 d . . . . .
H2Z H 0.2988 0.0848 0.8404 0.057 Uiso 1 1 d . U . . .
C3Z C 0.2524(3) 0.07416(14) 0.88956(18) 0.0419(12) Uani 1 1 d . . . . .
H3Z H 0.2551 0.0978 0.9004 0.050 Uiso 1 1 d . U . . .
C4Z C 0.2226(3) 0.04827(14) 0.90996(17) 0.0394(12) Uani 1 1 d . . . . .
C5Z C 0.2189(3) 0.01449(14) 0.8924(2) 0.0461(14) Uani 1 1 d . . . . .
H5Z H 0.1977 -0.0039 0.9055 0.055 Uiso 1 1 d . U . . .
C6Z C 0.2446(3) 0.00721(15) 0.8563(2) 0.0496(14) Uani 1 1 d . . . . .
H6Z H 0.2418 -0.0162 0.8450 0.060 Uiso 1 1 d . U . . .
C7Z C 0.2991(4) 0.0254(2) 0.7948(2) 0.067(2) Uani 1 1 d . . . . .
H7Z1 H 0.2895 0.0021 0.7858 0.100 Uiso 1 1 d . U . . .
H7Z2 H 0.3411 0.0285 0.7982 0.100 Uiso 1 1 d . U . . .
H7Z3 H 0.2843 0.0436 0.7751 0.100 Uiso 1 1 d . U . . .
C8Z C 0.1929(3) 0.05767(19) 0.9486(2) 0.0551(16) Uani 1 1 d . . . . .
H8Z1 H 0.2206 0.0679 0.9684 0.083 Uiso 1 1 d . U . . .
H8Z2 H 0.1770 0.0356 0.9601 0.083 Uiso 1 1 d . U . . .
H8Z3 H 0.1620 0.0744 0.9422 0.083 Uiso 1 1 d . U . . .
N1 N 0.53612(15) 0.42145(8) 0.69442(9) 0.0173(6) Uani 1 1 d . . . . .
N2 N 0.57943(15) 0.42087(8) 0.77863(9) 0.0171(6) Uani 1 1 d . . . . .
N3 N 0.57772(16) 0.76706(8) 0.78100(10) 0.0206(7) Uani 1 1 d . . . . .
N4 N 0.46224(16) 0.76629(8) 0.80522(10) 0.0202(7) Uani 1 1 d . . . . .
N5 N 0.5000 0.35522(11) 0.7500 0.0182(9) Uani 1 2 d S T P . .
N6 N 0.5000 0.24308(11) 0.7500 0.0214(10) Uani 1 2 d S T P . .
N7 N 0.5000 0.83057(11) 0.7500 0.0187(9) Uani 1 2 d S T P . .
O1 O 0.57704(16) 0.49400(8) 0.98164(9) 0.0290(7) Uani 1 1 d . . . . .
O2 O 0.55600(16) 0.68861(9) 0.97903(10) 0.0335(8) Uani 1 1 d . . . . .
O3 O 0.44356(16) 0.24307(7) 0.69106(10) 0.0312(7) Uani 1 1 d . . . . .
O4 O 0.58555(14) 0.11337(7) 0.84513(9) 0.0226(6) Uani 1 1 d . . . . .
O5 O 0.64139(14) 0.07105(7) 0.79933(9) 0.0224(6) Uani 1 1 d . . . . .
O6 O 0.59300(16) -0.05825(8) 0.77284(12) 0.0378(8) Uani 1 1 d . . . . .
Zn1 Zn 0.5000 0.41269(2) 0.7500 0.01518(15) Uani 1 2 d S T P . .
Zn2 Zn 0.5000 0.77399(2) 0.7500 0.01751(16) Uani 1 2 d S T P . .
C1D C 0.5804(4) 0.6301(2) 0.8325(2) 0.125(6) Uani 0.25 1 d DG U P A -1
C2D C 0.5238(4) 0.6317(2) 0.8457(2) 0.112(6) Uani 0.25 1 d DG U P A -1
C3D C 0.4887(4) 0.6586(2) 0.8286(2) 0.083(5) Uani 0.25 1 d DG U P A -1
C4D C 0.5105(4) 0.68043(17) 0.7951(3) 0.073(5) Uani 0.25 1 d DG U P A -1
C5D C 0.5649(4) 0.67684(18) 0.7804(3) 0.100(5) Uani 0.25 1 d DG U P A -1
C6D C 0.6016(4) 0.6531(2) 0.8012(3) 0.120(6) Uani 0.25 1 d DG U P A -1
C7D C 0.6447(3) 0.6331(2) 0.7791(3) 0.120(6) Uani 0.25 1 d DG U P A -1
C8D C 0.6524(3) 0.5983(3) 0.7977(3) 0.129(6) Uani 0.25 1 d DG U P A -1
C9D C 0.6124(4) 0.5951(3) 0.8316(3) 0.137(6) Uani 0.25 1 d DG U P A -1
C10D C 0.5847(4) 0.5646(2) 0.8394(2) 0.133(6) Uani 0.25 1 d DG U P A -1
C11D C 0.5249(4) 0.5623(2) 0.84834(18) 0.129(6) Uani 0.25 1 d DG U P A -1
C12D C 0.4955(4) 0.5957(2) 0.85284(17) 0.121(6) Uani 0.25 1 d DG U P A -1
C13D C 0.4336(4) 0.5909(2) 0.84515(18) 0.102(5) Uani 0.25 1 d DG U P A -1
C14D C 0.4034(4) 0.6237(2) 0.8324(2) 0.115(6) Uani 0.25 1 d DG U P A -1
C15D C 0.4316(4) 0.6547(2) 0.8253(2) 0.086(5) Uani 0.25 1 d DG U P A -1
C16D C 0.4098(4) 0.67542(17) 0.7875(3) 0.105(5) Uani 0.25 1 d DG U P A -1
C17D C 0.4638(4) 0.69217(15) 0.7717(3) 0.093(5) Uani 0.25 1 d DG U P A -1
C18D C 0.4651(4) 0.69404(13) 0.7306(3) 0.107(5) Uani 0.25 1 d DG U P A -1
C19D C 0.5200(4) 0.68690(14) 0.7105(3) 0.096(5) Uani 0.25 1 d DG U P A -1
C20D C 0.5655(4) 0.67889(17) 0.7321(3) 0.051(4) Uani 0.25 1 d DG U P A -1
C21D C 0.6080(3) 0.6593(2) 0.7144(3) 0.090(5) Uani 0.25 1 d DG U P A -1
C22D C 0.6494(3) 0.6354(2) 0.7392(3) 0.122(6) Uani 0.25 1 d DG U P A -1
C23D C 0.6579(3) 0.6038(2) 0.7140(3) 0.120(6) Uani 0.25 1 d DG U P A -1
C24D C 0.6665(3) 0.5699(3) 0.7323(3) 0.119(6) Uani 0.25 1 d DG U P A -1
C25D C 0.6626(3) 0.5677(3) 0.7772(3) 0.127(6) Uani 0.25 1 d DG U P A -1
C26D C 0.6331(3) 0.5328(2) 0.7840(3) 0.119(6) Uani 0.25 1 d DG U P A -1
C27D C 0.5977(4) 0.5316(2) 0.8154(3) 0.106(6) Uani 0.25 1 d DG U P A -1
C28D C 0.5422(4) 0.51371(19) 0.8092(2) 0.105(6) Uani 0.25 1 d DG U P A -1
C29D C 0.4985(4) 0.5321(2) 0.8305(2) 0.104(5) Uani 0.25 1 d DG U P A -1
C30D C 0.4407(4) 0.53297(19) 0.8160(2) 0.066(4) Uani 0.25 1 d DG U P A -1
C31D C 0.4086(4) 0.5610(2) 0.8274(2) 0.080(5) Uani 0.25 1 d DG U P A -1
C32D C 0.3623(3) 0.5731(2) 0.8014(2) 0.097(5) Uani 0.25 1 d DG U P A -1
C33D C 0.3550(3) 0.6103(2) 0.8040(3) 0.111(6) Uani 0.25 1 d DG U P A -1
C34D C 0.3402(3) 0.6303(2) 0.7709(3) 0.116(6) Uani 0.25 1 d DG U P A -1
C35D C 0.3682(3) 0.66415(18) 0.7627(3) 0.112(6) Uani 0.25 1 d DG U P A -1
C36D C 0.3713(3) 0.66704(18) 0.7193(3) 0.092(5) Uani 0.25 1 d DG U P A -1
C37D C 0.4188(4) 0.68321(15) 0.7027(3) 0.093(5) Uani 0.25 1 d DG U P A -1
C38D C 0.4425(4) 0.66663(17) 0.6688(2) 0.090(5) Uani 0.25 1 d DG U P A -1
C39D C 0.5041(4) 0.66976(16) 0.6732(2) 0.085(5) Uani 0.25 1 d DG U P A -1
C40D C 0.5409(4) 0.64375(19) 0.6576(2) 0.073(5) Uani 0.25 1 d DG U P A -1
C41D C 0.5940(3) 0.6409(2) 0.6774(3) 0.108(5) Uani 0.25 1 d DG U P A -1
C42D C 0.6225(3) 0.6074(2) 0.6770(3) 0.114(6) Uani 0.25 1 d DG U P A -1
C43D C 0.5966(3) 0.5796(2) 0.6586(3) 0.108(5) Uani 0.25 1 d DG U P A -1
C44D C 0.6042(3) 0.5431(2) 0.6764(3) 0.108(6) Uani 0.25 1 d DG U P A -1
C45D C 0.6395(3) 0.5422(2) 0.7127(3) 0.119(6) Uani 0.25 1 d DG U P A -1
C46D C 0.6161(3) 0.5159(2) 0.7473(3) 0.112(6) Uani 0.25 1 d DG U P A -1
C47D C 0.5687(4) 0.49955(17) 0.7365(3) 0.104(5) Uani 0.25 1 d DG U P A -1
C48D C 0.5270(4) 0.49826(16) 0.7732(3) 0.090(5) Uani 0.25 1 d DG U P A -1
C49D C 0.4727(4) 0.49923(14) 0.7550(2) 0.076(5) Uani 0.25 1 d DG U P A -1
C50D C 0.4272(4) 0.51440(16) 0.7776(2) 0.063(4) Uani 0.25 1 d DG U P A -1
C51D C 0.3820(3) 0.52951(17) 0.7493(2) 0.059(4) Uani 0.25 1 d DG U P A -1
C52D C 0.3514(3) 0.5565(2) 0.7638(3) 0.074(5) Uani 0.25 1 d DG U P A -1
C53D C 0.3309(3) 0.5794(2) 0.7298(3) 0.086(5) Uani 0.25 1 d DG U P A -1
C54D C 0.3277(3) 0.6149(2) 0.7328(3) 0.096(5) Uani 0.25 1 d DG U P A -1
C55D C 0.3450(3) 0.6382(2) 0.7001(3) 0.088(5) Uani 0.25 1 d DG U P A -1
C56D C 0.3678(3) 0.6226(2) 0.6689(2) 0.057(4) Uani 0.25 1 d DG U P A -1
C57D C 0.4202(4) 0.63762(19) 0.6504(2) 0.076(5) Uani 0.25 1 d DG U P A -1
C58D C 0.4534(4) 0.6101(2) 0.63635(17) 0.068(5) Uani 0.25 1 d DG U P A -1
C59D C 0.4239(4) 0.5767(2) 0.64416(18) 0.058(4) Uani 0.25 1 d DG U P A -1
C60D C 0.4565(4) 0.54692(18) 0.65406(18) 0.070(5) Uani 0.25 1 d DG U P A -1
C61D C 0.5124(4) 0.54676(19) 0.6477(2) 0.054(4) Uani 0.25 1 d DG U P A -1
C62D C 0.5536(4) 0.52406(18) 0.6715(2) 0.095(5) Uani 0.25 1 d DG U P A -1
C63D C 0.5348(4) 0.50356(15) 0.7019(3) 0.093(5) Uani 0.25 1 d DG U P A -1
C64D C 0.4768(4) 0.50374(14) 0.7091(2) 0.064(4) Uani 0.25 1 d DG U P A -1
C65D C 0.4335(4) 0.52249(15) 0.6878(2) 0.055(4) Uani 0.25 1 d DG U P A -1
C66D C 0.3848(3) 0.53265(17) 0.7074(2) 0.059(4) Uani 0.25 1 d DG U P A -1
C67D C 0.3530(3) 0.5641(2) 0.6947(2) 0.062(4) Uani 0.25 1 d DG U P A -1
C68D C 0.3723(3) 0.5849(2) 0.6651(2) 0.065(4) Uani 0.25 1 d DG U P A -1
C69D C 0.5129(4) 0.6120(2) 0.63796(19) 0.090(5) Uani 0.25 1 d DG U P A -1
C70D C 0.5429(4) 0.5814(2) 0.6403(2) 0.072(5) Uani 0.25 1 d DG U P A -1
C1D' C 0.5821(5) 0.6528(3) 0.8189(4) 0.089(3) Uani 0.25 1 d D U P B -2
C2D' C 0.5245(4) 0.6557(3) 0.8304(4) 0.089(3) Uani 0.25 1 d D U P B -2
C3D' C 0.4887(4) 0.6760(3) 0.8038(3) 0.082(3) Uani 0.25 1 d D U P B -2
C4D' C 0.5092(4) 0.6885(4) 0.7642(3) 0.071(3) Uani 0.25 1 d D U P B -2
C5D' C 0.5644(4) 0.6827(4) 0.7515(3) 0.080(3) Uani 0.25 1 d D U P B -2
C6D' C 0.6019(5) 0.6670(3) 0.7807(3) 0.081(3) Uani 0.25 1 d D U P B -2
C7D' C 0.6464(5) 0.6429(3) 0.7666(3) 0.082(3) Uani 0.25 1 d D U P B -2
C8D' C 0.6566(5) 0.6151(3) 0.7970(3) 0.085(3) Uani 0.25 1 d D U P B -2
C9D' C 0.6162(5) 0.6196(3) 0.8306(4) 0.090(3) Uani 0.25 1 d D U P B -2
C10' C 0.5906(5) 0.5917(3) 0.8486(4) 0.093(3) Uani 0.25 1 d D U P B -2
C11' C 0.5306(4) 0.5900(3) 0.8578(4) 0.093(3) Uani 0.25 1 d D U P B -2
C12' C 0.4987(4) 0.6224(3) 0.8492(5) 0.093(3) Uani 0.25 1 d D U P B -2
C13' C 0.4374(5) 0.6137(3) 0.8429(4) 0.080(3) Uani 0.25 1 d D U P B -2
C14' C 0.4066(5) 0.6406(3) 0.8176(3) 0.080(3) Uani 0.25 1 d D U P B -2
C15' C 0.4321(4) 0.6691(3) 0.8007(3) 0.073(3) Uani 0.25 1 d D U P B -2
C16' C 0.4105(4) 0.6778(3) 0.7571(3) 0.063(3) Uani 0.25 1 d D U P B -2
C17' C 0.4634(4) 0.6911(3) 0.7366(3) 0.068(3) Uani 0.25 1 d D U P B -2
C18' C 0.4649(4) 0.6825(3) 0.6967(3) 0.051(3) Uani 0.25 1 d D U P B -2
C19' C 0.5208(4) 0.6729(3) 0.6797(3) 0.065(3) Uani 0.25 1 d D U P B -2
C20' C 0.5649(5) 0.6723(4) 0.7047(3) 0.075(3) Uani 0.25 1 d D U P B -2
C21' C 0.6090(5) 0.6499(3) 0.6950(3) 0.082(3) Uani 0.25 1 d D U P B -2
C22' C 0.6506(5) 0.6350(3) 0.7276(3) 0.087(3) Uani 0.25 1 d D U P B -2
C23' C 0.6622(5) 0.5986(3) 0.7145(3) 0.091(3) Uani 0.25 1 d D U P B -2
C24' C 0.6728(5) 0.5718(3) 0.7441(3) 0.092(3) Uani 0.25 1 d D U P B -2
C25' C 0.6689(5) 0.5808(3) 0.7878(3) 0.089(3) Uani 0.25 1 d D U P B -2
C26' C 0.6419(5) 0.5485(3) 0.8061(3) 0.088(3) Uani 0.25 1 d D U P B -2
C27' C 0.6063(5) 0.5542(3) 0.8367(4) 0.089(3) Uani 0.25 1 d D U P B -2
C28' C 0.5525(4) 0.5339(3) 0.8362(4) 0.086(3) Uani 0.25 1 d D U P B -2
C29' C 0.5067(4) 0.5557(3) 0.8506(4) 0.088(3) Uani 0.25 1 d D U P B -2
C30' C 0.4498(5) 0.5511(3) 0.8348(4) 0.084(3) Uani 0.25 1 d D U P B -2
C31' C 0.4154(5) 0.5801(2) 0.8351(4) 0.081(3) Uani 0.25 1 d D U P B -2
C32' C 0.3704(5) 0.5836(2) 0.8049(3) 0.073(3) Uani 0.25 1 d D U P B -2
C33' C 0.3613(5) 0.6195(2) 0.7936(3) 0.073(3) Uani 0.25 1 d D U P B -2
C34' C 0.3454(6) 0.6293(3) 0.7553(3) 0.076(3) Uani 0.25 1 d D U P B -2
C35' C 0.3707(5) 0.6604(3) 0.7362(3) 0.064(3) Uani 0.25 1 d D U P B -2
C36' C 0.3733(5) 0.6525(3) 0.6937(3) 0.069(3) Uani 0.25 1 d D U P B -2
C37' C 0.4205(4) 0.6644(3) 0.6731(3) 0.059(3) Uani 0.25 1 d D U P B -2
C38' C 0.4459(4) 0.6410(2) 0.6456(3) 0.050(3) Uani 0.25 1 d D U P B -2
C39' C 0.5069(4) 0.6474(3) 0.6491(3) 0.055(3) Uani 0.25 1 d D U P B -2
C40' C 0.5456(4) 0.6189(2) 0.6437(4) 0.064(3) Uani 0.25 1 d D U P B -2
C41' C 0.5965(5) 0.6226(3) 0.6661(4) 0.083(3) Uani 0.25 1 d D U P B -2
C42' C 0.6277(5) 0.5916(2) 0.6779(4) 0.087(3) Uani 0.25 1 d D U P B -2
C43' C 0.6040(5) 0.5601(3) 0.6694(4) 0.091(3) Uani 0.25 1 d D U P B -2
C44' C 0.6139(5) 0.5307(3) 0.6994(3) 0.095(3) Uani 0.25 1 d D U P B -2
C45' C 0.6481(5) 0.5399(3) 0.7345(3) 0.095(3) Uani 0.25 1 d D U P B -2
C46' C 0.6270(5) 0.5229(3) 0.7765(3) 0.094(3) Uani 0.25 1 d D U P B -2
C47' C 0.5812(4) 0.5037(3) 0.7706(3) 0.091(3) Uani 0.25 1 d D U P B -2
C48' C 0.5391(4) 0.5104(3) 0.8061(3) 0.084(3) Uani 0.25 1 d D U P B -2
C49' C 0.4859(4) 0.5054(4) 0.7870(3) 0.072(3) Uani 0.25 1 d D U P B -2
C50' C 0.4385(5) 0.5242(3) 0.8033(3) 0.076(3) Uani 0.25 1 d D U P B -2
C51' C 0.3936(5) 0.5295(3) 0.7702(3) 0.064(3) Uani 0.25 1 d D U P B -2
C52' C 0.3605(5) 0.5582(3) 0.7745(3) 0.065(3) Uani 0.25 1 d D U P B -2
C53' C 0.3400(5) 0.5708(2) 0.7339(3) 0.070(3) Uani 0.25 1 d D U P B -2
C54' C 0.3333(6) 0.6052(2) 0.7238(3) 0.071(3) Uani 0.25 1 d D U P B -2
C55' C 0.3495(5) 0.6195(2) 0.6847(3) 0.069(3) Uani 0.25 1 d D U P B -2
C56' C 0.3731(5) 0.5973(2) 0.6596(3) 0.064(3) Uani 0.25 1 d D U P B -2
C57' C 0.4252(4) 0.6083(2) 0.6371(4) 0.063(3) Uani 0.25 1 d D U P B -2
C58' C 0.4602(4) 0.5789(2) 0.6330(4) 0.066(3) Uani 0.25 1 d D U P B -2
C59' C 0.4326(4) 0.5481(2) 0.6516(3) 0.061(3) Uani 0.25 1 d D U P B -2
C60' C 0.4668(4) 0.5230(3) 0.6724(3) 0.069(3) Uani 0.25 1 d D U P B -2
C61' C 0.5234(4) 0.5240(3) 0.6690(4) 0.072(3) Uani 0.25 1 d D U P B -2
C62' C 0.5656(4) 0.5096(3) 0.6998(3) 0.089(3) Uani 0.25 1 d D U P B -2
C63' C 0.5483(4) 0.4977(4) 0.7361(3) 0.090(3) Uani 0.25 1 d D U P B -2
C64' C 0.4901(4) 0.4985(4) 0.7416(3) 0.079(3) Uani 0.25 1 d D U P B -2
C65' C 0.4460(4) 0.5080(3) 0.7136(3) 0.063(3) Uani 0.25 1 d D U P B -2
C66' C 0.3964(5) 0.5216(3) 0.7291(3) 0.060(3) Uani 0.25 1 d D U P B -2
C67' C 0.3636(5) 0.5477(3) 0.7054(3) 0.064(3) Uani 0.25 1 d D U P B -2
C68' C 0.3805(5) 0.5606(3) 0.6696(3) 0.064(3) Uani 0.25 1 d D U P B -2
C69' C 0.5194(4) 0.5831(2) 0.6361(4) 0.058(3) Uani 0.25 1 d D U P B -2
C70' C 0.5514(4) 0.5555(3) 0.6499(4) 0.076(3) Uani 0.25 1 d D U P B -2
loop_
_atom_site_aniso_label
_atom_site_aniso_U_11
_atom_site_aniso_U_22
_atom_site_aniso_U_33
_atom_site_aniso_U_23
_atom_site_aniso_U_13
_atom_site_aniso_U_12
C1 0.021(2) 0.0168(16) 0.0150(16) -0.0016(12) -0.0012(15) -0.0011(13)
C2 0.021(2) 0.0266(19) 0.0163(16) -0.0002(14) 0.0001(16) 0.0000(15)
C3 0.020(2) 0.0269(19) 0.0195(17) -0.0005(14) 0.0011(16) -0.0009(15)
C4 0.020(2) 0.0164(15) 0.0185(17) -0.0009(12) -0.0007(15) -0.0009(13)
C5 0.015(2) 0.0173(16) 0.0224(18) 0.0012(13) -0.0011(15) -0.0008(13)
C6 0.016(2) 0.0280(19) 0.0169(16) 0.0010(14) -0.0027(15) 0.0018(15)
C7 0.021(3) 0.028(2) 0.0230(18) -0.0053(15) -0.0023(16) 0.0019(16)
C8 0.025(3) 0.036(2) 0.036(2) -0.0106(18) 0.000(2) 0.0052(18)
C9 0.018(3) 0.053(3) 0.033(2) -0.014(2) 0.002(2) 0.000(2)
C10 0.018(3) 0.048(3) 0.031(2) -0.0005(19) 0.0007(19) -0.0078(19)
C11 0.020(3) 0.032(2) 0.0219(18) 0.0017(15) -0.0018(17) -0.0047(16)
C12 0.033(3) 0.0226(19) 0.041(2) -0.0032(17) 0.001(2) 0.0013(17)
C13 0.025(3) 0.079(4) 0.061(4) -0.025(3) 0.010(3) -0.001(3)
C14 0.028(3) 0.030(2) 0.041(3) 0.0032(18) 0.000(2) -0.0088(18)
C15 0.018(2) 0.0166(16) 0.0212(17) 0.0016(13) -0.0025(15) -0.0001(13)
C16 0.019(2) 0.0244(18) 0.0217(18) 0.0002(14) -0.0024(16) -0.0018(15)
C17 0.018(2) 0.028(2) 0.0207(18) 0.0018(14) -0.0051(16) -0.0030(15)
C18 0.017(2) 0.0175(16) 0.0185(17) 0.0012(12) -0.0034(15) -0.0001(13)
C19 0.019(2) 0.0162(16) 0.0150(16) 0.0005(12) -0.0043(14) -0.0003(13)
C20 0.018(2) 0.0217(17) 0.0168(16) -0.0002(13) -0.0026(15) -0.0013(14)
C21 0.024(3) 0.0248(19) 0.0209(18) 0.0013(14) -0.0017(17) 0.0008(15)
C22 0.027(3) 0.028(2) 0.0220(19) 0.0048(15) -0.0041(17) 0.0046(16)
C23 0.029(3) 0.029(2) 0.0178(17) 0.0014(15) -0.0051(16) -0.0010(17)
C24 0.025(2) 0.0212(18) 0.0201(18) -0.0025(14) -0.0010(16) -0.0023(15)
C25 0.024(2) 0.0233(18) 0.0181(17) 0.0013(14) -0.0032(16) 0.0007(15)
C26 0.039(3) 0.0233(19) 0.0229(19) -0.0001(15) -0.0031(18) 0.0040(17)
C27 0.038(3) 0.0244(19) 0.0237(19) -0.0020(15) -0.0003(18) 0.0002(17)
C28 0.038(3) 0.028(2) 0.0204(19) 0.0007(15) 0.0001(18) 0.0020(18)
C29 0.043(3) 0.0242(19) 0.0222(19) 0.0020(15) 0.0019(19) 0.0024(18)
C30 0.042(3) 0.027(2) 0.025(2) 0.0016(16) 0.005(2) 0.0042(18)
C31 0.037(3) 0.0228(19) 0.0239(19) 0.0018(15) -0.0005(18) 0.0025(17)
C32 0.024(2) 0.0204(17) 0.0235(18) 0.0003(14) 0.0038(17) 0.0012(15)
C33 0.025(3) 0.036(2) 0.024(2) 0.0005(16) 0.0042(18) 0.0041(17)
C34 0.024(3) 0.034(2) 0.0242(19) 0.0031(16) 0.0040(18) 0.0047(17)
C35 0.022(2) 0.0171(16) 0.0249(18) 0.0027(13) 0.0025(17) 0.0000(14)
C36 0.023(2) 0.0165(16) 0.0250(19) 0.0009(13) 0.0002(17) 0.0007(14)
C37 0.027(3) 0.0223(18) 0.0233(19) 0.0018(14) 0.0035(17) 0.0023(15)
C38 0.033(3) 0.027(2) 0.025(2) -0.0019(15) 0.0025(18) -0.0021(17)
C39 0.033(3) 0.036(2) 0.026(2) -0.0025(17) -0.0028(19) -0.0016(19)
C40 0.031(3) 0.041(2) 0.024(2) 0.0018(17) -0.0035(19) 0.0045(19)
C41 0.030(3) 0.0259(19) 0.0236(19) 0.0026(15) 0.0006(18) 0.0071(17)
C42 0.026(3) 0.0223(18) 0.0219(18) 0.0015(14) -0.0008(17) 0.0014(15)
C43 0.021(2) 0.0171(16) 0.0269(19) 0.0018(14) 0.0007(17) 0.0026(14)
C44 0.021(3) 0.028(2) 0.029(2) 0.0017(16) -0.0037(18) 0.0041(16)
C45 0.021(3) 0.028(2) 0.028(2) 0.0015(15) -0.0003(17) 0.0016(16)
C46 0.015(2) 0.0204(17) 0.0274(19) -0.0007(14) -0.0015(16) 0.0020(14)
C47 0.020(2) 0.0180(17) 0.0264(19) -0.0008(14) 0.0017(16) -0.0002(14)
C48 0.018(2) 0.0263(19) 0.0214(18) 0.0006(14) -0.0009(16) -0.0011(15)
C49 0.020(3) 0.029(2) 0.026(2) 0.0054(15) -0.0028(17) -0.0006(16)
C50 0.022(3) 0.029(2) 0.032(2) 0.0095(16) -0.0021(18) -0.0029(16)
C51 0.024(3) 0.039(2) 0.0237(19) 0.0066(17) 0.0008(18) -0.0011(18)
C52 0.020(3) 0.036(2) 0.029(2) -0.0030(17) 0.0036(18) 0.0022(17)
C53 0.023(3) 0.028(2) 0.027(2) -0.0046(15) 0.0015(17) -0.0006(16)
C54 0.026(3) 0.025(2) 0.049(3) 0.0074(18) 0.001(2) 0.0027(17)
C55 0.025(3) 0.045(3) 0.042(3) 0.010(2) 0.006(2) -0.003(2)
C56 0.031(3) 0.026(2) 0.053(3) -0.0085(19) 0.009(2) 0.0019(18)
C57 0.022(2) 0.0193(17) 0.0213(18) -0.0012(13) -0.0009(16) 0.0025(14)
C58 0.025(3) 0.0200(18) 0.0221(18) 0.0026(14) -0.0006(16) -0.0003(15)
C59 0.023(3) 0.014(2) 0.023(3) 0.000 -0.008(2) 0.000
C60 0.027(3) 0.0150(16) 0.0258(19) -0.0003(13) -0.0077(17) -0.0006(14)
C61 0.020(2) 0.0164(17) 0.0248(18) 0.0009(13) -0.0069(16) 0.0001(14)
C62 0.025(3) 0.0163(17) 0.0230(18) 0.0004(13) -0.0089(16) 0.0011(14)
C63 0.019(3) 0.014(2) 0.025(3) 0.000 -0.008(2) 0.000
C64 0.021(3) 0.015(2) 0.020(2) 0.000 -0.003(2) 0.000
C65 0.022(2) 0.0125(15) 0.0221(17) 0.0013(12) -0.0070(16) 0.0021(13)
C66 0.022(2) 0.0179(17) 0.0220(18) 0.0031(13) -0.0066(16) 0.0007(14)
C67 0.022(2) 0.0161(16) 0.0227(18) -0.0006(13) -0.0071(16) 0.0023(14)
C68 0.032(3) 0.0228(18) 0.0196(18) 0.0019(14) -0.0042(17) 0.0000(16)
C69 0.027(3) 0.0232(19) 0.0249(19) 0.0025(15) -0.0024(17) -0.0028(16)
C70 0.024(3) 0.0215(18) 0.0247(19) -0.0044(14) -0.0021(17) 0.0012(15)
C71 0.027(3) 0.028(2) 0.0200(18) 0.0001(15) -0.0062(17) -0.0002(16)
C72 0.026(3) 0.0233(18) 0.0220(18) 0.0005(14) -0.0045(17) -0.0014(15)
C73 0.026(3) 0.033(2) 0.0240(19) -0.0023(16) -0.0044(18) 0.0009(17)
C74 0.029(3) 0.047(3) 0.038(3) -0.004(2) -0.005(2) -0.011(2)
C75 0.040(4) 0.056(3) 0.030(2) -0.016(2) -0.002(2) -0.012(2)
C76 0.030(3) 0.045(3) 0.043(3) 0.002(2) -0.013(2) 0.002(2)
C77 0.023(2) 0.0157(16) 0.0208(17) 0.0000(13) -0.0060(16) 0.0016(14)
C78 0.022(2) 0.0168(17) 0.0249(18) 0.0005(13) -0.0070(16) -0.0014(14)
C79 0.026(3) 0.0167(17) 0.030(2) 0.0011(14) -0.0062(17) 0.0033(15)
C80 0.024(3) 0.0156(17) 0.0276(19) -0.0004(14) -0.0066(17) 0.0019(14)
C81 0.024(3) 0.012(2) 0.024(3) 0.000 -0.006(2) 0.000
C82 0.023(3) 0.015(2) 0.022(2) 0.000 -0.003(2) 0.000
C83 0.023(2) 0.0182(17) 0.0222(18) -0.0014(13) -0.0056(16) 0.0013(14)
C84 0.021(2) 0.0219(18) 0.0223(18) -0.0007(14) -0.0033(16) 0.0000(15)
C85 0.020(2) 0.028(2) 0.028(2) -0.0030(15) -0.0055(17) 0.0024(16)
C86 0.030(3) 0.0213(18) 0.0231(19) -0.0025(14) -0.0067(17) 0.0042(16)
C87 0.033(3) 0.0234(19) 0.026(2) 0.0041(15) -0.0054(18) 0.0007(17)
C88 0.022(2) 0.0222(18) 0.030(2) 0.0030(15) -0.0019(17) -0.0003(15)
C89 0.040(3) 0.027(2) 0.028(2) 0.0022(16) -0.012(2) 0.0063(19)
C90 0.057(4) 0.040(3) 0.024(2) 0.0012(18) -0.009(2) 0.000(2)
C91 0.034(3) 0.047(3) 0.033(2) -0.002(2) -0.015(2) 0.014(2)
C92 0.064(4) 0.031(2) 0.038(3) 0.004(2) -0.020(3) 0.009(2)
C93 0.029(3) 0.0144(17) 0.031(2) -0.0003(14) -0.0048(18) -0.0002(15)
N8 0.025(3) 0.013(2) 0.025(2) 0.000 -0.007(2) 0.000
C94 0.018(3) 0.012(2) 0.033(3) 0.000 -0.003(2) 0.000
C95 0.034(3) 0.0181(17) 0.0221(18) 0.0029(14) 0.0014(17) 0.0016(15)
C97 0.037(3) 0.0188(18) 0.0214(19) -0.0011(14) 0.0016(17) 0.0020(16)
C1S 0.087(6) 0.047(3) 0.043(3) 0.018(3) 0.026(4) 0.009(3)
C2S 0.051(4) 0.058(4) 0.038(3) 0.015(2) -0.001(3) -0.007(3)
C3S 0.066(5) 0.051(3) 0.042(3) 0.011(2) 0.015(3) 0.002(3)
C4S 0.090(7) 0.103(6) 0.033(3) -0.004(3) 0.012(4) -0.055(5)
C5S 0.047(6) 0.183(12) 0.035(3) 0.021(5) -0.002(3) -0.030(6)
C6S 0.066(7) 0.149(9) 0.052(4) 0.057(5) 0.028(4) 0.050(6)
C7S 0.270(17) 0.047(4) 0.079(6) 0.013(4) 0.064(8) 0.006(7)
C8S 0.277(18) 0.157(11) 0.076(6) -0.060(7) 0.084(9) -0.160(12)
C1T 0.038(3) 0.052(3) 0.029(2) 0.003(2) 0.008(2) 0.011(2)
C2T 0.030(3) 0.071(4) 0.028(2) 0.007(2) -0.002(2) -0.001(2)
C3T 0.040(4) 0.064(4) 0.026(2) -0.002(2) 0.002(2) -0.014(3)
C4T 0.032(3) 0.043(3) 0.035(2) -0.004(2) 0.005(2) -0.005(2)
C5T 0.034(3) 0.046(3) 0.034(2) -0.003(2) -0.006(2) 0.006(2)
C6T 0.041(4) 0.049(3) 0.033(2) -0.006(2) -0.005(2) 0.008(2)
C7T 0.056(5) 0.061(4) 0.044(3) 0.010(3) 0.008(3) 0.022(3)
C8T 0.040(4) 0.045(3) 0.053(3) -0.004(2) 0.008(3) -0.006(2)
C1U 0.041(4) 0.048(3) 0.034(2) 0.010(2) 0.002(2) 0.003(2)
C2U 0.053(4) 0.034(3) 0.042(3) 0.005(2) 0.000(3) 0.001(2)
C3U 0.047(4) 0.036(3) 0.039(3) 0.008(2) -0.008(2) -0.004(2)
C4U 0.038(3) 0.044(3) 0.022(2) 0.0046(18) -0.004(2) 0.000(2)
C5U 0.055(4) 0.037(3) 0.040(3) -0.006(2) 0.002(3) 0.000(2)
C6U 0.048(4) 0.050(3) 0.048(3) -0.001(2) -0.001(3) -0.013(3)
C7U 0.045(5) 0.070(4) 0.077(5) 0.018(4) 0.007(4) 0.013(3)
C8U 0.044(4) 0.067(4) 0.034(3) 0.010(2) -0.002(2) 0.008(3)
C1V 0.044(4) 0.053(3) 0.044(3) 0.004(2) -0.009(3) -0.012(3)
C2V 0.055(5) 0.061(4) 0.044(3) 0.020(3) -0.007(3) -0.021(3)
C3V 0.047(4) 0.072(4) 0.044(3) 0.015(3) 0.001(3) -0.026(3)
C4V 0.035(4) 0.062(4) 0.047(3) 0.001(3) -0.007(3) -0.018(3)
C5V 0.049(4) 0.045(3) 0.041(3) 0.007(2) -0.004(3) -0.013(3)
C6V 0.044(4) 0.057(3) 0.032(2) 0.007(2) -0.003(2) -0.013(3)
C7V 0.056(5) 0.061(4) 0.063(4) 0.006(3) -0.008(3) 0.000(3)
C8V 0.048(5) 0.080(5) 0.068(4) 0.004(4) 0.006(4) -0.011(4)
C1W 0.039(4) 0.049(3) 0.054(3) 0.003(2) 0.014(3) 0.008(2)
C2W 0.053(4) 0.051(3) 0.044(3) 0.015(2) 0.012(3) 0.013(3)
C3W 0.050(4) 0.067(4) 0.044(3) 0.006(3) -0.002(3) 0.014(3)
C4W 0.035(4) 0.055(3) 0.055(3) 0.005(3) 0.001(3) 0.004(2)
C5W 0.046(4) 0.050(3) 0.048(3) 0.015(2) 0.005(3) 0.009(3)
C6W 0.043(4) 0.059(4) 0.043(3) 0.006(2) 0.006(3) 0.008(3)
C7W 0.058(5) 0.060(4) 0.082(5) -0.007(4) 0.023(4) -0.001(3)
C8W 0.054(5) 0.071(5) 0.090(6) 0.002(4) -0.001(4) -0.006(4)
C1X 0.042(4) 0.048(3) 0.043(3) 0.006(2) 0.004(3) -0.001(2)
C2X 0.041(4) 0.056(3) 0.046(3) 0.014(3) 0.002(3) 0.005(3)
C3X 0.042(4) 0.078(4) 0.035(3) 0.001(3) 0.002(3) 0.000(3)
C4X 0.036(4) 0.062(4) 0.047(3) -0.009(3) 0.011(3) -0.003(3)
C5X 0.042(4) 0.048(3) 0.044(3) 0.009(2) 0.008(3) 0.004(2)
C6X 0.040(4) 0.057(3) 0.033(3) 0.005(2) -0.002(2) 0.006(2)
C7X 0.051(5) 0.049(3) 0.079(5) 0.000(3) 0.010(4) -0.002(3)
C8X 0.061(5) 0.064(4) 0.073(5) -0.022(3) 0.023(4) -0.010(3)
C1Y 0.103(7) 0.034(3) 0.107(6) -0.015(3) 0.046(6) -0.008(4)
C2Y 0.054(5) 0.037(3) 0.087(5) -0.007(3) 0.007(4) -0.003(3)
C3Y 0.042(4) 0.039(3) 0.083(5) -0.009(3) 0.009(3) -0.003(2)
C4Y 0.044(4) 0.040(3) 0.095(5) -0.017(3) 0.003(4) 0.000(3)
C5Y 0.051(5) 0.060(4) 0.115(7) -0.022(4) 0.017(5) 0.008(3)
C6Y 0.063(6) 0.059(4) 0.119(7) -0.020(4) 0.045(5) 0.000(4)
C7Y 0.076(6) 0.060(4) 0.082(5) -0.011(4) -0.004(4) 0.009(4)
C8Y 0.153(11) 0.059(5) 0.109(8) -0.008(5) 0.048(7) 0.002(6)
C1Z 0.033(4) 0.053(3) 0.048(3) 0.002(2) -0.004(3) 0.005(2)
C2Z 0.043(4) 0.044(3) 0.054(3) 0.009(2) 0.000(3) -0.009(2)
C3Z 0.038(4) 0.036(3) 0.051(3) 0.002(2) -0.007(3) -0.003(2)
C4Z 0.034(3) 0.041(3) 0.042(3) 0.008(2) -0.008(2) 0.005(2)
C5Z 0.040(4) 0.034(3) 0.064(4) 0.009(2) 0.003(3) -0.006(2)
C6Z 0.046(4) 0.036(3) 0.067(4) -0.002(2) -0.006(3) -0.004(2)
C7Z 0.061(5) 0.085(5) 0.055(4) -0.010(4) 0.005(4) 0.002(4)
C8Z 0.056(5) 0.062(4) 0.046(3) 0.008(3) 0.001(3) 0.006(3)
N1 0.0185(19) 0.0164(14) 0.0167(14) -0.0004(11) -0.0018(13) -0.0007(12)
N2 0.0176(19) 0.0165(14) 0.0169(14) -0.0014(11) -0.0025(13) -0.0009(11)
N3 0.021(2) 0.0181(14) 0.0228(16) 0.0003(12) -0.0004(14) 0.0005(12)
N4 0.022(2) 0.0152(14) 0.0238(16) 0.0009(11) 0.0025(14) 0.0004(12)
N5 0.018(3) 0.017(2) 0.019(2) 0.000 -0.0054(18) 0.000
N6 0.026(3) 0.0112(19) 0.026(2) 0.000 -0.008(2) 0.000
N7 0.019(3) 0.0145(19) 0.022(2) 0.000 -0.0014(19) 0.000
O1 0.044(2) 0.0224(14) 0.0196(13) -0.0023(11) -0.0094(13) 0.0032(13)
O2 0.039(2) 0.0326(16) 0.0288(16) 0.0102(13) -0.0038(14) 0.0018(14)
O3 0.041(2) 0.0164(13) 0.0341(16) 0.0031(11) -0.0175(15) 0.0008(12)
O4 0.0245(18) 0.0184(12) 0.0238(14) 0.0025(10) -0.0117(12) -0.0010(11)
O5 0.0224(18) 0.0158(12) 0.0280(14) 0.0023(10) -0.0102(12) -0.0033(10)
O6 0.028(2) 0.0172(14) 0.066(2) 0.0009(14) -0.0171(17) 0.0023(12)
Zn1 0.0164(4) 0.0141(3) 0.0147(3) 0.000 -0.0021(2) 0.000
Zn2 0.0181(4) 0.0140(3) 0.0204(3) 0.000 0.0003(2) 0.000
C1D 0.125(7) 0.127(7) 0.124(7) 0.005(5) 0.010(5) 0.006(4)
C2D 0.111(7) 0.111(7) 0.115(7) 0.007(5) 0.007(5) -0.001(4)
C3D 0.087(6) 0.079(6) 0.084(6) -0.005(4) 0.010(4) 0.002(4)
C4D 0.074(6) 0.064(6) 0.081(6) -0.010(4) 0.017(4) -0.003(4)
C5D 0.101(6) 0.097(7) 0.101(6) -0.001(5) 0.002(4) -0.002(5)
C6D 0.117(7) 0.123(7) 0.121(7) 0.004(5) 0.001(4) -0.001(4)
C7D 0.118(7) 0.121(7) 0.121(7) -0.001(4) 0.006(5) -0.002(5)
C8D 0.129(7) 0.129(7) 0.130(7) -0.003(4) 0.004(5) 0.002(5)
C9D 0.136(7) 0.136(7) 0.139(7) 0.000(5) 0.009(5) 0.002(4)
C10D 0.131(7) 0.131(7) 0.137(7) -0.003(5) 0.007(5) 0.003(4)
C11D 0.129(7) 0.127(7) 0.132(7) -0.005(5) 0.005(5) 0.001(4)
C12D 0.121(7) 0.117(7) 0.125(7) -0.002(5) 0.005(5) 0.002(4)
C13D 0.103(6) 0.105(6) 0.099(7) 0.000(5) 0.016(5) -0.007(4)
C14D 0.114(7) 0.116(6) 0.115(7) -0.001(5) 0.010(5) -0.003(4)
C15D 0.085(6) 0.090(6) 0.086(6) -0.012(4) 0.013(4) -0.001(4)
C16D 0.100(7) 0.107(7) 0.106(7) -0.004(5) -0.001(4) 0.001(5)
C17D 0.099(6) 0.088(7) 0.090(6) 0.002(5) -0.003(4) -0.003(5)
C18D 0.106(6) 0.105(7) 0.110(6) 0.001(5) 0.004(4) -0.003(5)
C19D 0.098(6) 0.090(7) 0.101(6) 0.000(5) 0.001(4) -0.003(5)
C20D 0.057(5) 0.042(5) 0.052(5) 0.005(4) 0.011(4) -0.019(4)
C21D 0.089(6) 0.089(6) 0.093(6) 0.003(4) 0.013(4) -0.011(4)
C22D 0.117(7) 0.123(7) 0.126(7) 0.000(4) 0.009(5) 0.002(5)
C23D 0.118(7) 0.121(7) 0.120(7) 0.000(4) 0.006(5) 0.002(5)
C24D 0.118(7) 0.120(7) 0.118(7) 0.002(4) 0.005(5) -0.002(5)
C25D 0.126(7) 0.127(7) 0.128(7) 0.001(4) 0.007(5) 0.000(5)
C26D 0.117(7) 0.117(7) 0.122(7) -0.001(5) 0.003(5) 0.005(5)
C27D 0.105(7) 0.105(7) 0.106(7) 0.005(5) -0.004(4) 0.007(5)
C28D 0.108(7) 0.101(7) 0.105(7) 0.006(5) 0.002(4) 0.004(5)
C29D 0.104(6) 0.103(7) 0.105(7) 0.008(5) 0.009(5) 0.001(4)
C30D 0.077(6) 0.058(6) 0.063(6) 0.018(4) 0.018(4) -0.020(4)
C31D 0.075(6) 0.087(6) 0.082(6) 0.009(4) 0.028(4) -0.013(4)
C32D 0.096(7) 0.099(6) 0.096(6) -0.001(4) 0.012(5) -0.005(5)
C33D 0.112(7) 0.111(7) 0.110(7) -0.003(4) 0.003(5) 0.000(5)
C34D 0.118(7) 0.118(7) 0.114(7) 0.002(4) 0.009(5) -0.001(5)
C35D 0.113(7) 0.111(7) 0.110(6) -0.003(4) 0.002(4) 0.000(5)
C36D 0.091(7) 0.090(7) 0.093(6) -0.004(4) 0.009(4) 0.007(5)
C37D 0.094(6) 0.091(7) 0.094(6) 0.011(4) -0.004(4) 0.001(5)
C38D 0.090(6) 0.085(6) 0.095(6) 0.014(4) 0.002(4) 0.002(4)
C39D 0.089(6) 0.082(6) 0.085(6) 0.018(4) -0.003(4) -0.008(4)
C40D 0.077(6) 0.072(6) 0.072(6) 0.016(4) 0.021(4) -0.016(4)
C41D 0.111(7) 0.106(7) 0.109(7) -0.002(5) 0.012(4) -0.002(5)
C42D 0.114(7) 0.113(7) 0.117(7) 0.001(4) 0.005(5) 0.004(4)
C43D 0.103(7) 0.110(6) 0.112(7) 0.001(5) 0.008(5) 0.000(4)
C44D 0.106(7) 0.106(7) 0.111(7) 0.011(5) 0.000(4) 0.002(4)
C45D 0.119(7) 0.119(7) 0.119(7) 0.000(4) 0.003(4) -0.004(5)
C46D 0.115(7) 0.110(7) 0.112(7) 0.001(4) 0.003(5) 0.002(5)
C47D 0.100(6) 0.107(7) 0.106(6) 0.008(5) 0.007(4) 0.001(5)
C48D 0.094(6) 0.087(7) 0.090(6) 0.004(5) -0.002(4) 0.002(5)
C49D 0.078(6) 0.070(6) 0.081(6) 0.004(4) 0.015(4) -0.007(4)
C50D 0.069(6) 0.052(6) 0.069(6) 0.010(4) 0.015(4) -0.016(4)
C51D 0.059(6) 0.056(6) 0.063(5) 0.005(4) 0.009(4) -0.025(4)
C52D 0.068(6) 0.076(6) 0.078(6) 0.002(4) 0.011(4) -0.007(4)
C53D 0.082(7) 0.088(6) 0.089(6) 0.000(4) 0.006(5) -0.005(5)
C54D 0.094(7) 0.096(6) 0.098(6) -0.002(4) 0.008(5) 0.004(5)
C55D 0.086(7) 0.087(6) 0.089(6) 0.000(4) 0.001(5) 0.004(4)
C56D 0.050(6) 0.065(6) 0.055(6) 0.007(4) -0.012(4) 0.007(4)
C57D 0.079(6) 0.075(6) 0.071(6) 0.016(4) -0.010(4) -0.002(4)
C58D 0.067(6) 0.076(6) 0.059(6) 0.012(4) 0.000(4) -0.003(4)
C59D 0.061(6) 0.063(5) 0.051(6) -0.005(4) -0.002(4) -0.005(4)
C60D 0.073(6) 0.069(6) 0.067(6) -0.006(4) 0.005(4) -0.008(4)
C61D 0.057(5) 0.056(5) 0.050(5) -0.009(3) 0.008(3) 0.005(3)
C62D 0.096(6) 0.097(6) 0.093(7) 0.003(5) 0.003(4) 0.003(4)
C63D 0.090(6) 0.094(7) 0.094(6) 0.004(5) 0.010(4) 0.005(5)
C64D 0.075(6) 0.052(6) 0.066(6) -0.002(4) 0.005(4) -0.001(4)
C65D 0.055(6) 0.050(5) 0.059(5) -0.013(4) 0.004(4) -0.008(4)
C66D 0.056(6) 0.058(6) 0.062(5) -0.001(4) 0.005(4) -0.021(4)
C67D 0.059(6) 0.063(6) 0.066(6) -0.002(4) 0.002(4) -0.009(4)
C68D 0.060(6) 0.067(6) 0.065(6) -0.002(4) -0.010(4) -0.007(4)
C69D 0.094(6) 0.093(6) 0.084(7) 0.005(5) 0.011(5) -0.005(4)
C70D 0.074(6) 0.079(6) 0.062(6) -0.002(4) 0.012(4) 0.002(4)
C1D' 0.087(4) 0.090(5) 0.089(5) -0.007(4) 0.007(4) -0.001(4)
C2D' 0.088(4) 0.088(5) 0.090(5) -0.001(4) -0.001(4) -0.001(4)
C3D' 0.087(4) 0.079(5) 0.081(4) -0.002(4) 0.004(3) 0.004(4)
C4D' 0.076(4) 0.060(5) 0.077(4) -0.005(4) -0.002(3) -0.003(4)
C5D' 0.081(4) 0.076(5) 0.084(4) -0.001(4) 0.003(3) -0.005(4)
C6D' 0.077(4) 0.080(5) 0.086(4) -0.005(4) -0.002(3) -0.004(4)
C7D' 0.078(5) 0.085(4) 0.082(4) -0.002(3) 0.002(4) -0.004(4)
C8D' 0.083(5) 0.087(4) 0.085(4) -0.001(3) 0.000(4) 0.000(4)
C9D' 0.089(5) 0.092(4) 0.090(5) -0.001(4) 0.004(4) -0.001(3)
C10' 0.092(4) 0.092(4) 0.094(5) -0.004(4) 0.004(4) -0.003(3)
C11' 0.091(4) 0.092(4) 0.096(5) 0.004(4) 0.004(4) 0.002(3)
C12' 0.092(4) 0.093(4) 0.094(5) 0.005(4) 0.007(4) -0.001(3)
C13' 0.080(4) 0.084(4) 0.075(5) -0.004(4) 0.013(4) 0.006(3)
C14' 0.082(4) 0.080(4) 0.080(4) -0.004(4) 0.017(4) 0.007(4)
C15' 0.076(4) 0.071(4) 0.073(4) -0.008(4) 0.011(3) 0.014(4)
C16' 0.060(4) 0.060(4) 0.071(4) -0.005(4) 0.017(3) 0.015(4)
C17' 0.071(4) 0.059(5) 0.074(4) 0.002(4) 0.007(3) 0.001(4)
C18' 0.062(4) 0.038(4) 0.053(4) 0.021(3) 0.001(3) 0.003(3)
C19' 0.069(4) 0.061(4) 0.064(4) 0.013(4) 0.007(3) -0.009(4)
C20' 0.073(4) 0.074(5) 0.079(4) 0.008(4) 0.005(3) -0.013(4)
C21' 0.081(5) 0.084(4) 0.080(4) -0.001(4) 0.002(4) -0.008(4)
C22' 0.084(5) 0.092(4) 0.085(4) -0.002(3) 0.006(4) 0.000(4)
C23' 0.091(5) 0.094(4) 0.090(4) -0.003(3) 0.004(4) 0.002(4)
C24' 0.092(5) 0.095(4) 0.089(4) -0.002(3) 0.006(4) 0.001(4)
C25' 0.087(5) 0.092(4) 0.090(4) -0.002(3) 0.003(4) 0.006(4)
C26' 0.087(5) 0.090(4) 0.088(4) 0.004(4) 0.000(4) 0.007(4)
C27' 0.087(4) 0.090(4) 0.089(5) 0.005(4) -0.002(4) 0.005(4)
C28' 0.089(4) 0.083(4) 0.084(5) 0.007(4) -0.004(4) 0.000(3)
C29' 0.088(4) 0.090(4) 0.085(5) 0.005(4) 0.005(4) -0.004(3)
C30' 0.086(4) 0.086(4) 0.081(5) 0.005(4) 0.010(4) -0.003(3)
C31' 0.080(4) 0.087(4) 0.078(5) 0.003(4) 0.016(4) -0.003(3)
C32' 0.069(5) 0.079(4) 0.073(4) 0.001(3) 0.021(4) -0.007(4)
C33' 0.072(5) 0.077(4) 0.072(4) -0.004(3) 0.018(4) 0.007(4)
C34' 0.072(5) 0.077(4) 0.079(4) -0.004(3) 0.010(4) 0.006(4)
C35' 0.064(4) 0.061(4) 0.068(4) -0.002(3) 0.004(4) 0.018(4)
C36' 0.064(4) 0.068(4) 0.074(4) 0.006(3) -0.001(4) 0.007(4)
C37' 0.060(4) 0.054(4) 0.062(4) 0.025(3) -0.002(3) 0.010(3)
C38' 0.058(4) 0.053(4) 0.038(4) 0.025(3) -0.008(3) -0.002(3)
C39' 0.061(4) 0.055(4) 0.049(4) 0.023(3) 0.009(4) -0.007(3)
C40' 0.063(4) 0.073(4) 0.056(4) 0.006(4) 0.017(4) -0.006(3)
C41' 0.080(4) 0.088(4) 0.081(5) -0.001(4) 0.006(4) -0.001(4)
C42' 0.086(5) 0.089(4) 0.087(5) -0.002(4) 0.003(4) 0.003(4)
C43' 0.087(5) 0.090(4) 0.095(5) 0.001(4) 0.004(4) 0.002(4)
C44' 0.092(5) 0.097(5) 0.095(4) 0.002(4) 0.002(4) -0.004(4)
C45' 0.095(5) 0.096(5) 0.094(4) -0.004(4) 0.005(4) -0.001(4)
C46' 0.093(5) 0.093(5) 0.095(4) -0.002(4) 0.003(4) 0.004(4)
C47' 0.089(4) 0.090(5) 0.095(4) -0.003(4) 0.003(3) 0.005(4)
C48' 0.088(4) 0.078(5) 0.085(4) 0.007(4) -0.001(3) 0.002(4)
C49' 0.079(4) 0.062(5) 0.075(4) 0.014(4) 0.003(3) -0.008(4)
C50' 0.079(4) 0.072(5) 0.076(4) 0.013(4) 0.005(3) -0.012(4)
C51' 0.064(4) 0.062(4) 0.068(4) 0.011(3) 0.010(3) -0.015(4)
C52' 0.059(5) 0.068(4) 0.068(4) 0.005(3) 0.018(4) -0.011(4)
C53' 0.065(5) 0.071(4) 0.074(4) 0.001(3) 0.006(4) -0.004(4)
C54' 0.066(5) 0.071(4) 0.075(4) 0.000(3) 0.006(4) 0.006(4)
C55' 0.064(5) 0.069(4) 0.073(4) 0.003(3) -0.004(4) 0.002(4)
C56' 0.059(4) 0.069(4) 0.062(4) 0.004(3) -0.009(4) -0.003(3)
C57' 0.064(4) 0.070(4) 0.055(4) 0.007(4) -0.009(4) -0.002(3)
C58' 0.072(4) 0.073(4) 0.052(5) -0.008(4) 0.000(4) -0.001(3)
C59' 0.063(4) 0.063(4) 0.057(4) -0.016(4) -0.005(4) -0.004(3)
C60' 0.074(4) 0.064(4) 0.068(4) -0.011(4) 0.004(4) 0.001(4)
C61' 0.073(4) 0.071(4) 0.073(4) -0.010(4) 0.012(4) 0.011(4)
C62' 0.088(4) 0.088(5) 0.090(4) 0.003(4) 0.000(3) 0.000(4)
C63' 0.087(4) 0.090(5) 0.092(4) 0.001(4) 0.006(3) 0.006(4)
C64' 0.082(4) 0.071(5) 0.083(4) 0.001(4) 0.000(3) 0.001(4)
C65' 0.067(4) 0.053(4) 0.070(4) -0.004(4) 0.007(3) -0.006(4)
C66' 0.058(4) 0.051(4) 0.070(4) -0.001(3) 0.003(3) -0.016(3)
C67' 0.060(5) 0.063(4) 0.070(4) 0.001(3) -0.001(4) -0.007(4)
C68' 0.060(4) 0.066(4) 0.064(4) -0.006(4) -0.005(4) -0.007(3)
C69' 0.064(4) 0.067(4) 0.044(4) -0.008(4) 0.020(4) 0.005(3)
C70' 0.079(4) 0.077(4) 0.072(5) -0.007(4) 0.012(4) 0.005(3)
loop_
_atom_type_symbol
_atom_type_description
_atom_type_scat_dispersion_real
_atom_type_scat_dispersion_imag
_atom_type_scat_source
C C 0.0033 0.0016 'International Tables Vol C Tables 4.2.6.8 and 6.1.1.4'
H H 0.0000 0.0000 'International Tables Vol C Tables 4.2.6.8 and 6.1.1.4'
N N 0.0061 0.0033 'International Tables Vol C Tables 4.2.6.8 and 6.1.1.4'
O O 0.0106 0.0060 'International Tables Vol C Tables 4.2.6.8 and 6.1.1.4'
Zn Zn 0.2839 1.4301 'International Tables Vol C Tables 4.2.6.8 and 6.1.1.4'
loop_
_geom_angle_atom_site_label_1
_geom_angle_atom_site_label_2
_geom_angle_atom_site_label_3
_geom_angle
_geom_angle_site_symmetry_1
_geom_angle_site_symmetry_3
N1 C1 C19 125.3(3) . 2_656
N1 C1 C2 109.4(4) . .
C19 C1 C2 125.2(4) 2_656 .
C3 C2 C1 106.9(3) . .
C2 C3 C4 107.0(4) . .
N1 C4 C5 126.4(3) . .
N1 C4 C3 109.7(3) . .
C5 C4 C3 123.9(4) . .
C4 C5 C15 124.1(4) . .
C4 C5 C6 117.3(3) . .
C15 C5 C6 118.6(4) . .
C7 C6 C11 119.9(4) . .
C7 C6 C5 118.4(4) . .
C11 C6 C5 121.6(4) . .
C6 C7 C8 119.0(4) . .
C6 C7 C12 122.1(4) . .
C8 C7 C12 119.0(4) . .
C9 C8 C7 121.3(4) . .
C10 C9 C8 119.0(4) . .
C10 C9 C13 120.8(5) . .
C8 C9 C13 120.2(5) . .
C9 C10 C11 121.0(4) . .
C10 C11 C6 119.8(4) . .
C10 C11 C14 119.9(4) . .
C6 C11 C14 120.3(4) . .
N2 C15 C5 125.6(4) . .
N2 C15 C16 109.7(3) . .
C5 C15 C16 124.6(4) . .
C17 C16 C15 107.0(4) . .
C16 C17 C18 107.0(4) . .
N2 C18 C19 125.5(4) . .
N2 C18 C17 109.3(3) . .
C19 C18 C17 125.2(4) . .
C18 C19 C1 125.4(3) . 2_656
C18 C19 C20 117.3(4) . .
C1 C19 C20 117.3(3) 2_656 .
C21 C20 C25 119.5(4) . .
C21 C20 C19 120.4(3) . .
C25 C20 C19 120.1(3) . .
C22 C21 C20 120.3(4) . .
C21 C22 C23 120.7(4) . .
C22 C23 C24 119.4(4) . .
O1 C24 C25 124.7(4) . .
O1 C24 C23 114.9(4) . .
C25 C24 C23 120.4(4) . .
C24 C25 C20 119.8(4) . .
O1 C26 C27 107.3(3) . .
C26 C27 C28 112.1(4) . .
C27 C28 C29 112.1(4) . .
C30 C29 C28 113.2(4) . .
C31 C30 C29 115.9(4) . .
O2 C31 C30 107.6(4) . .
N4 C32 C47 125.7(4) . 2_656
N4 C32 C33 109.6(4) . .
C47 C32 C33 124.6(4) 2_656 .
C34 C33 C32 106.9(4) . .
C33 C34 C35 107.1(4) . .
N4 C35 C36 125.5(4) . .
N4 C35 C34 109.3(4) . .
C36 C35 C34 125.0(4) . .
C43 C36 C35 124.4(4) . .
C43 C36 C37 117.2(4) . .
C35 C36 C37 118.4(4) . .
C42 C37 C38 119.0(4) . .
C42 C37 C36 119.2(4) . .
C38 C37 C36 121.8(4) . .
C39 C38 C37 120.3(4) . .
C38 C39 C40 120.3(5) . .
C41 C40 C39 119.6(4) . .
O2 C41 C40 115.7(4) . .
O2 C41 C42 123.6(4) . .
C40 C41 C42 120.7(4) . .
C41 C42 C37 120.1(4) . .
N3 C43 C36 124.9(4) . .
N3 C43 C44 109.6(4) . .
C36 C43 C44 125.4(4) . .
C45 C44 C43 106.7(4) . .
C44 C45 C46 106.9(4) . .
N3 C46 C47 125.8(4) . .
N3 C46 C45 110.0(4) . .
C47 C46 C45 124.2(4) . .
C46 C47 C32 125.6(4) . 2_656
C46 C47 C48 117.1(4) . .
C32 C47 C48 117.3(4) 2_656 .
C53 C48 C49 119.8(4) . .
C53 C48 C47 121.8(4) . .
C49 C48 C47 118.3(4) . .
C50 C49 C48 119.0(4) . .
C50 C49 C54 119.9(4) . .
C48 C49 C54 121.1(4) . .
C49 C50 C51 121.9(4) . .
C52 C51 C50 118.5(4) . .
C52 C51 C55 121.3(4) . .
C50 C51 C55 120.2(4) . .
C51 C52 C53 121.0(4) . .
C52 C53 C48 119.7(4) . .
C52 C53 C56 120.5(4) . .
C48 C53 C56 119.8(4) . .
N5 C57 C58 122.8(4) . .
C59 C58 C57 118.1(4) . .
C58 C59 C58 119.9(5) 2_656 .
C58 C59 N6 120.0(2) 2_656 .
C58 C59 N6 120.0(2) . .
O3 C60 N6 120.7(4) . .
O3 C60 C61 123.3(4) . .
N6 C60 C61 116.0(4) . .
C62 C61 C63 120.5(4) . .
C62 C61 C60 118.4(4) . .
C63 C61 C60 121.0(4) . .
C61 C62 C66 120.1(4) . 2_656
C64 C63 C61 119.8(2) . .
C64 C63 C61 119.8(2) . 2_656
C61 C63 C61 120.3(5) . 2_656
C63 C64 C65 119.4(2) . .
C63 C64 C65 119.4(2) . 2_656
C65 C64 C65 121.1(5) . 2_656
C66 C65 C64 117.8(3) . .
C66 C65 C77 124.6(3) . .
C64 C65 C77 117.6(3) . .
O4 C66 C65 119.3(3) . .
O4 C66 C62 119.2(3) . 2_656
C65 C66 C62 121.0(4) . 2_656
C68 C67 O4 123.7(4) . .
C68 C67 C72 119.9(4) . .
O4 C67 C72 116.3(4) . .
C67 C68 C69 119.4(4) . .
C68 C69 C70 122.5(4) . .
C69 C70 C71 116.0(4) . .
C69 C70 C73 122.7(4) . .
C71 C70 C73 121.2(4) . .
C72 C71 C70 122.8(4) . .
C71 C72 C67 119.3(4) . .
C70 C73 C75 110.8(4) . .
C70 C73 C76 108.5(4) . .
C75 C73 C76 109.4(4) . .
C70 C73 C74 112.1(4) . .
C75 C73 C74 107.9(4) . .
C76 C73 C74 108.1(4) . .
C78 C77 C82 117.5(3) . .
C78 C77 C65 125.3(4) . .
C82 C77 C65 117.2(4) . .
O5 C78 C77 120.0(3) . .
O5 C78 C79 119.0(4) . .
C77 C78 C79 120.9(4) . .
C80 C79 C78 120.9(4) . .
C79 C80 C81 120.2(4) . .
C79 C80 C93 119.6(4) . .
C81 C80 C93 120.2(4) . .
C80 C81 C80 120.9(5) . 2_656
C80 C81 C82 119.5(2) . .
C80 C81 C82 119.5(2) 2_656 .
C81 C82 C77 119.3(2) . .
C81 C82 C77 119.3(2) . 2_656
C77 C82 C77 121.5(5) . 2_656
C84 C83 C88 121.2(4) . .
C84 C83 O5 117.7(4) . .
C88 C83 O5 121.0(4) . .
C83 C84 C85 119.4(4) . .
C86 C85 C84 121.6(4) . .
C85 C86 C87 117.9(4) . .
C85 C86 C89 122.5(4) . .
C87 C86 C89 119.6(4) . .
C88 C87 C86 121.3(4) . .
C87 C88 C83 118.5(4) . .
C91 C89 C92 108.2(4) . .
C91 C89 C86 112.2(4) . .
C92 C89 C86 108.7(4) . .
C91 C89 C90 109.6(4) . .
C92 C89 C90 109.2(4) . .
C86 C89 C90 108.8(4) . .
O6 C93 N8 120.6(4) . .
O6 C93 C80 123.3(4) . .
N8 C93 C80 116.1(4) . .
C93 N8 C93 126.1(5) . 2_656
C93 N8 C94 116.9(2) . .
C93 N8 C94 116.9(2) 2_656 .
C95 C94 C95 120.5(5) . 2_656
C95 C94 N8 119.8(2) . .
C95 C94 N8 119.7(2) 2_656 .
C97 C95 C94 117.4(4) 1_545 .
N7 C97 C95 123.4(4) . 1_565
C2S C1S C6S 115.9(7) . .
C2S C1S C7S 123.7(10) . .
C6S C1S C7S 120.3(10) . .
C3S C2S C1S 122.4(7) . .
C4S C3S C2S 121.3(7) . .
C5S C4S C3S 118.6(8) . .
C5S C4S C8S 120.6(11) . .
C3S C4S C8S 120.8(12) . .
C4S C5S C6S 121.2(8) . .
C5S C6S C1S 120.5(8) . .
C6T C1T C2T 117.7(5) . .
C6T C1T C7T 121.3(6) . .
C2T C1T C7T 120.9(5) . .
C3T C2T C1T 120.8(5) . .
C2T C3T C4T 122.0(5) . .
C3T C4T C5T 116.8(5) . .
C3T C4T C8T 122.0(5) . .
C5T C4T C8T 121.2(5) . .
C6T C5T C4T 121.6(5) . .
C5T C6T C1T 121.1(5) . .
C2U C1U C6U 117.0(6) . .
C2U C1U C7U 121.7(6) . .
C6U C1U C7U 121.3(6) . .
C3U C2U C1U 122.0(5) . .
C4U C3U C2U 121.0(5) . .
C3U C4U C5U 118.2(5) . .
C3U C4U C8U 120.8(5) . .
C5U C4U C8U 121.0(5) . .
C4U C5U C6U 120.5(5) . .
C1U C6U C5U 121.2(5) . .
C6V C1V C2V 117.1(6) . .
C6V C1V C7V 121.6(6) . .
C2V C1V C7V 121.3(6) . .
C3V C2V C1V 121.2(6) . .
C2V C3V C4V 121.1(5) . .
C5V C4V C3V 117.3(6) . .
C5V C4V C8V 121.0(6) . .
C3V C4V C8V 121.7(6) . .
C6V C5V C4V 121.8(6) . .
C5V C6V C1V 121.4(5) . .
C2W C1W C6W 117.1(6) . .
C2W C1W C7W 121.6(6) . .
C6W C1W C7W 121.3(7) . .
C3W C2W C1W 121.1(5) . .
C4W C3W C2W 121.6(6) . .
C3W C4W C5W 118.1(6) . .
C3W C4W C8W 121.8(7) . .
C5W C4W C8W 120.1(6) . .
C4W C5W C6W 121.1(5) . .
C5W C6W C1W 121.0(6) . .
C2X C1X C6X 116.8(6) . .
C2X C1X C7X 121.4(6) . .
C6X C1X C7X 121.8(6) . .
C1X C2X C3X 122.2(6) . .
C4X C3X C2X 120.6(6) . .
C3X C4X C5X 117.5(6) . .
C3X C4X C8X 120.7(7) . .
C5X C4X C8X 121.8(7) . .
C6X C5X C4X 121.6(6) . .
C5X C6X C1X 121.2(6) . .
C2Y C1Y C6Y 116.4(9) . .
C2Y C1Y C8Y 121.2(10) . .
C6Y C1Y C8Y 122.4(8) . .
C3Y C2Y C1Y 121.8(8) . .
C2Y C3Y C4Y 122.4(7) . .
C3Y C4Y C5Y 115.8(8) . .
C3Y C4Y C7Y 121.9(7) . .
C5Y C4Y C7Y 122.1(8) . .
C6Y C5Y C4Y 123.2(9) . .
C5Y C6Y C1Y 120.3(7) . .
C6Z C1Z C2Z 117.5(5) . .
C6Z C1Z C7Z 121.3(6) . .
C2Z C1Z C7Z 121.2(6) . .
C3Z C2Z C1Z 121.2(5) . .
C2Z C3Z C4Z 121.1(5) . .
C3Z C4Z C5Z 117.7(5) . .
C3Z C4Z C8Z 119.9(5) . .
C5Z C4Z C8Z 122.2(5) . .
C6Z C5Z C4Z 120.8(5) . .
C5Z C6Z C1Z 121.6(5) . .
C4 N1 C1 107.0(3) . .
C4 N1 Zn1 125.0(3) . .
C1 N1 Zn1 127.4(3) . .
C15 N2 C18 106.9(3) . .
C15 N2 Zn1 125.5(3) . .
C18 N2 Zn1 127.3(3) . .
C43 N3 C46 106.7(4) . .
C43 N3 Zn2 128.8(3) . .
C46 N3 Zn2 124.1(3) . .
C35 N4 C32 107.1(3) . .
C35 N4 Zn2 128.2(3) . .
C32 N4 Zn2 123.3(3) . .
C57 N5 C57 118.1(4) 2_656 .
C57 N5 Zn1 120.9(2) 2_656 .
C57 N5 Zn1 120.9(2) . .
C60 N6 C60 125.6(4) . 2_656
C60 N6 C59 117.2(2) . .
C60 N6 C59 117.2(2) 2_656 .
C97 N7 C97 118.1(5) . 2_656
C97 N7 Zn2 121.0(2) . .
C97 N7 Zn2 121.0(2) 2_656 .
C24 O1 C26 117.9(3) . .
C41 O2 C31 116.8(4) . .
C66 O4 C67 118.8(3) . .
C78 O5 C83 117.2(3) . .
N1 Zn1 N1 161.63(17) 2_656 .
N1 Zn1 N2 88.77(13) 2_656 .
N1 Zn1 N2 88.51(13) . .
N1 Zn1 N2 88.51(13) 2_656 2_656
N1 Zn1 N2 88.77(13) . 2_656
N2 Zn1 N2 162.91(17) . 2_656
N1 Zn1 N5 99.18(9) 2_656 .
N1 Zn1 N5 99.18(9) . .
N2 Zn1 N5 98.55(9) . .
N2 Zn1 N5 98.55(9) 2_656 .
N3 Zn2 N3 165.48(18) . 2_656
N3 Zn2 N4 90.22(14) . 2_656
N3 Zn2 N4 87.75(14) 2_656 2_656
N3 Zn2 N4 87.75(14) . .
N3 Zn2 N4 90.22(14) 2_656 .
N4 Zn2 N4 163.89(17) 2_656 .
N3 Zn2 N7 97.26(9) . .
N3 Zn2 N7 97.26(9) 2_656 .
N4 Zn2 N7 98.05(9) 2_656 .
N4 Zn2 N7 98.06(9) . .
C2D C1D C6D 123.2 . .
C2D C1D C9D 121.0 . .
C6D C1D C9D 108.6 . .
C3D C2D C1D 116.7 . .
C3D C2D C12D 116.6 . .
C1D C2D C12D 115.4 . .
C15D C3D C2D 121.0 . .
C15D C3D C4D 112.3 . .
C2D C3D C4D 118.5 . .
C17D C4D C5D 123.9 . .
C17D C4D C3D 107.1 . .
C5D C4D C3D 123.9 . .
C4D C5D C6D 116.7 . .
C4D C5D C20D 113.1 . .
C6D C5D C20D 118.9 . .
C5D C6D C1D 120.1 . .
C5D C6D C7D 120.7 . .
C1D C6D C7D 107.8 . .
C22D C7D C8D 117.3 . .
C22D C7D C6D 122.7 . .
C8D C7D C6D 109.4 . .
C25D C8D C7D 125.5 . .
C25D C8D C9D 115.5 . .
C7D C8D C9D 108.1 . .
C10D C9D C8D 122.4 . .
C10D C9D C1D 119.3 . .
C8D C9D C1D 106.1 . .
C9D C10D C11D 124.7 . .
C9D C10D C27D 119.4 . .
C11D C10D C27D 106.1 . .
C29D C11D C12D 122.7 . .
C29D C11D C10D 112.1 . .
C12D C11D C10D 116.2 . .
C11D C12D C13D 110.4 . .
C11D C12D C2D 122.6 . .
C13D C12D C2D 121.0 . .
C31D C13D C14D 112.0 . .
C31D C13D C12D 124.6 . .
C14D C13D C12D 113.8 . .
C15D C14D C13D 122.2 . .
C15D C14D C33D 122.2 . .
C13D C14D C33D 103.4 . .
C3D C15D C14D 124.6 . .
C3D C15D C16D 107.7 . .
C14D C15D C16D 115.2 . .
C35D C16D C15D 123.2 . .
C35D C16D C17D 122.0 . .
C15D C16D C17D 103.4 . .
C18D C17D C4D 121.0 . .
C18D C17D C16D 114.6 . .
C4D C17D C16D 109.4 . .
C17D C18D C37D 124.3 . .
C17D C18D C19D 119.1 . .
C37D C18D C19D 108.2 . .
C20D C19D C39D 122.8 . .
C20D C19D C18D 120.9 . .
C39D C19D C18D 105.2 . .
C19D C20D C21D 119.6 . .
C19D C20D C5D 120.6 . .
C21D C20D C5D 115.4 . .
C20D C21D C41D 118.0 . .
C20D C21D C22D 123.1 . .
C41D C21D C22D 106.4 . .
C7D C22D C23D 121.5 . .
C7D C22D C21D 118.9 . .
C23D C22D C21D 106.2 . .
C24D C23D C42D 120.3 . .
C24D C23D C22D 120.8 . .
C42D C23D C22D 107.9 . .
C45D C24D C23D 115.8 . .
C45D C24D C25D 111.8 . .
C23D C24D C25D 117.2 . .
C8D C25D C24D 117.5 . .
C8D C25D C26D 124.9 . .
C24D C25D C26D 104.4 . .
C27D C26D C46D 118.2 . .
C27D C26D C25D 116.6 . .
C46D C26D C25D 112.6 . .
C26D C27D C28D 119.0 . .
C26D C27D C10D 120.8 . .
C28D C27D C10D 104.3 . .
C48D C28D C29D 117.5 . .
C48D C28D C27D 120.9 . .
C29D C28D C27D 111.3 . .
C11D C29D C30D 121.0 . .
C11D C29D C28D 106.0 . .
C30D C29D C28D 123.0 . .
C31D C30D C29D 117.6 . .
C31D C30D C50D 120.5 . .
C29D C30D C50D 116.2 . .
C30D C31D C13D 121.0 . .
C30D C31D C32D 120.2 . .
C13D C31D C32D 106.7 . .
C52D C32D C33D 118.5 . .
C52D C32D C31D 119.2 . .
C33D C32D C31D 112.0 . .
C34D C33D C32D 122.3 . .
C34D C33D C14D 117.5 . .
C32D C33D C14D 105.9 . .
C33D C34D C54D 121.4 . .
C33D C34D C35D 122.1 . .
C54D C34D C35D 105.8 . .
C16D C35D C36D 121.3 . .
C16D C35D C34D 119.7 . .
C36D C35D C34D 107.0 . .
C55D C36D C37D 120.6 . .
C55D C36D C35D 110.5 . .
C37D C36D C35D 119.7 . .
C36D C37D C38D 117.6 . .
C36D C37D C18D 117.9 . .
C38D C37D C18D 107.9 . .
C57D C38D C37D 123.6 . .
C57D C38D C39D 118.5 . .
C37D C38D C39D 108.5 . .
C19D C39D C40D 119.0 . .
C19D C39D C38D 110.0 . .
C40D C39D C38D 122.1 . .
C41D C40D C39D 116.0 . .
C41D C40D C69D 120.5 . .
C39D C40D C69D 116.3 . .
C40D C41D C21D 121.9 . .
C40D C41D C42D 118.5 . .
C21D C41D C42D 110.4 . .
C43D C42D C41D 119.4 . .
C43D C42D C23D 122.3 . .
C41D C42D C23D 109.1 . .
C42D C43D C70D 123.1 . .
C42D C43D C44D 119.9 . .
C70D C43D C44D 107.7 . .
C62D C44D C45D 123.2 . .
C62D C44D C43D 110.0 . .
C45D C44D C43D 113.8 . .
C24D C45D C44D 127.8 . .
C24D C45D C46D 107.8 . .
C44D C45D C46D 113.4 . .
C47D C46D C26D 130.7 . .
C47D C46D C45D 114.3 . .
C26D C46D C45D 103.2 . .
C46D C47D C63D 129.1 . .
C46D C47D C48D 111.0 . .
C63D C47D C48D 105.9 . .
C28D C48D C49D 124.5 . .
C28D C48D C47D 120.1 . .
C49D C48D C47D 105.3 . .
C48D C49D C50D 118.7 . .
C48D C49D C64D 109.1 . .
C50D C49D C64D 123.0 . .
C49D C50D C30D 119.5 . .
C49D C50D C51D 110.9 . .
C30D C50D C51D 118.1 . .
C52D C51D C66D 109.7 . .
C52D C51D C50D 116.6 . .
C66D C51D C50D 125.7 . .
C51D C52D C32D 124.8 . .
C51D C52D C53D 109.8 . .
C32D C52D C53D 116.4 . .
C54D C53D C67D 119.6 . .
C54D C53D C52D 123.2 . .
C67D C53D C52D 104.7 . .
C53D C54D C34D 117.9 . .
C53D C54D C55D 121.9 . .
C34D C54D C55D 110.8 . .
C56D C55D C36D 121.0 . .
C56D C55D C54D 116.0 . .
C36D C55D C54D 105.8 . .
C55D C56D C68D 123.1 . .
C55D C56D C57D 120.9 . .
C68D C56D C57D 105.9 . .
C38D C57D C58D 122.7 . .
C38D C57D C56D 115.8 . .
C58D C57D C56D 109.6 . .
C57D C58D C69D 122.0 . .
C57D C58D C59D 107.7 . .
C69D C58D C59D 121.1 . .
C60D C59D C68D 121.8 . .
C60D C59D C58D 118.2 . .
C68D C59D C58D 108.1 . .
C61D C60D C59D 120.2 . .
C61D C60D C65D 118.9 . .
C59D C60D C65D 115.9 . .
C60D C61D C62D 122.9 . .
C60D C61D C70D 119.8 . .
C62D C61D C70D 106.0 . .
C63D C62D C44D 121.2 . .
C63D C62D C61D 119.0 . .
C44D C62D C61D 107.3 . .
C62D C63D C47D 118.4 . .
C62D C63D C64D 118.6 . .
C47D C63D C64D 113.5 . .
C63D C64D C65D 127.9 . .
C63D C64D C49D 106.0 . .
C65D C64D C49D 118.0 . .
C66D C65D C64D 120.4 . .
C66D C65D C60D 119.1 . .
C64D C65D C60D 112.5 . .
C51D C66D C65D 120.8 . .
C51D C66D C67D 107.8 . .
C65D C66D C67D 121.1 . .
C68D C67D C53D 119.8 . .
C68D C67D C66D 119.9 . .
C53D C67D C66D 108.0 . .
C67D C68D C56D 119.4 . .
C67D C68D C59D 122.1 . .
C56D C68D C59D 108.6 . .
C70D C69D C58D 118.6 . .
C70D C69D C40D 116.1 . .
C58D C69D C40D 118.3 . .
C69D C70D C43D 122.2 . .
C69D C70D C61D 119.6 . .
C43D C70D C61D 108.8 . .
C2D' C1D' C6D' 122.9(6) . .
C2D' C1D' C9D' 119.5(6) . .
C6D' C1D' C9D' 109.3(4) . .
C3D' C2D' C1D' 115.2(6) . .
C3D' C2D' C12' 117.1(6) . .
C1D' C2D' C12' 116.2(6) . .
C15' C3D' C2D' 119.9(6) . .
C15' C3D' C4D' 110.9(5) . .
C2D' C3D' C4D' 120.2(6) . .
C17' C4D' C5D' 121.8(6) . .
C17' C4D' C3D' 108.5(5) . .
C5D' C4D' C3D' 123.9(6) . .
C4D' C5D' C6D' 115.3(6) . .
C4D' C5D' C20' 112.0(6) . .
C6D' C5D' C20' 121.4(6) . .
C5D' C6D' C1D' 121.7(6) . .
C5D' C6D' C7D' 118.8(6) . .
C1D' C6D' C7D' 107.4(5) . .
C22' C7D' C8D' 118.7(6) . .
C22' C7D' C6D' 121.7(6) . .
C8D' C7D' C6D' 109.1(5) . .
C25' C8D' C7D' 124.3(6) . .
C25' C8D' C9D' 114.9(6) . .
C7D' C8D' C9D' 109.2(5) . .
C10' C9D' C8D' 122.6(6) . .
C10' C9D' C1D' 120.3(6) . .
C8D' C9D' C1D' 104.8(4) . .
C9D' C10' C11' 125.1(7) . .
C9D' C10' C27' 119.4(6) . .
C11' C10' C27' 105.2(4) . .
C29' C11' C12' 122.4(7) . .
C29' C11' C10' 112.5(5) . .
C12' C11' C10' 114.9(6) . .
C11' C12' C13' 109.4(5) . .
C11' C12' C2D' 123.6(6) . .
C13' C12' C2D' 121.6(6) . .
C31' C13' C14' 110.7(5) . .
C31' C13' C12' 125.4(7) . .
C14' C13' C12' 112.1(5) . .
C15' C14' C13' 123.7(6) . .
C15' C14' C33' 121.1(6) . .
C13' C14' C33' 104.1(4) . .
C3D' C15' C14' 124.9(7) . .
C3D' C15' C16' 108.1(5) . .
C14' C15' C16' 114.4(6) . .
C35' C16' C17' 121.1(6) . .
C35' C16' C15' 125.3(6) . .
C17' C16' C15' 103.7(4) . .
C18' C17' C4D' 124.3(7) . .
C18' C17' C16' 113.8(6) . .
C4D' C17' C16' 108.7(5) . .
C17' C18' C37' 125.7(6) . .
C17' C18' C19' 118.7(6) . .
C37' C18' C19' 108.2(4) . .
C20' C19' C39' 125.9(7) . .
C20' C19' C18' 117.6(6) . .
C39' C19' C18' 104.4(5) . .
C19' C20' C21' 117.1(6) . .
C19' C20' C5D' 124.5(6) . .
C21' C20' C5D' 114.4(5) . .
C20' C21' C41' 117.4(7) . .
C20' C21' C22' 122.1(6) . .
C41' C21' C22' 107.7(5) . .
C7D' C22' C23' 121.1(6) . .
C7D' C22' C21' 121.3(6) . .
C23' C22' C21' 105.3(4) . .
C24' C23' C42' 120.8(6) . .
C24' C23' C22' 119.8(6) . .
C42' C23' C22' 108.1(5) . .
C45' C24' C23' 114.3(6) . .
C45' C24' C25' 112.4(5) . .
C23' C24' C25' 118.8(6) . .
C8D' C25' C24' 117.1(6) . .
C8D' C25' C26' 125.4(7) . .
C24' C25' C26' 104.2(4) . .
C27' C26' C46' 118.5(6) . .
C27' C26' C25' 117.0(6) . .
C46' C26' C25' 112.2(5) . .
C26' C27' C28' 118.0(6) . .
C26' C27' C10' 120.3(6) . .
C28' C27' C10' 105.4(5) . .
C48' C28' C29' 117.0(6) . .
C48' C28' C27' 121.2(6) . .
C29' C28' C27' 110.7(5) . .
C30' C29' C11' 121.9(7) . .
C30' C29' C28' 121.0(6) . .
C11' C29' C28' 105.9(5) . .
C31' C30' C29' 116.7(6) . .
C31' C30' C50' 118.3(6) . .
C29' C30' C50' 118.5(6) . .
C30' C31' C13' 121.1(7) . .
C30' C31' C32' 119.6(6) . .
C13' C31' C32' 107.6(5) . .
C52' C32' C33' 116.9(6) . .
C52' C32' C31' 121.8(6) . .
C33' C32' C31' 111.8(5) . .
C34' C33' C32' 122.6(6) . .
C34' C33' C14' 119.7(6) . .
C32' C33' C14' 105.7(5) . .
C33' C34' C54' 123.1(6) . .
C33' C34' C35' 121.1(6) . .
C54' C34' C35' 106.3(5) . .
C16' C35' C36' 123.3(6) . .
C16' C35' C34' 118.3(6) . .
C36' C35' C34' 106.5(5) . .
C55' C36' C37' 120.5(6) . .
C55' C36' C35' 111.0(5) . .
C37' C36' C35' 118.4(6) . .
C36' C37' C38' 118.3(6) . .
C36' C37' C18' 117.6(6) . .
C38' C37' C18' 108.7(5) . .
C57' C38' C37' 122.8(6) . .
C57' C38' C39' 120.9(6) . .
C37' C38' C39' 107.0(4) . .
C19' C39' C40' 118.1(6) . .
C19' C39' C38' 111.3(5) . .
C40' C39' C38' 120.1(6) . .
C41' C40' C39' 113.8(5) . .
C41' C40' C69' 121.1(6) . .
C39' C40' C69' 115.9(6) . .
C40' C41' C21' 125.0(6) . .
C40' C41' C42' 118.9(6) . .
C21' C41' C42' 109.1(5) . .
C43' C42' C41' 118.0(6) . .
C43' C42' C23' 123.4(6) . .
C41' C42' C23' 109.7(5) . .
C42' C43' C70' 124.5(7) . .
C42' C43' C44' 118.3(6) . .
C70' C43' C44' 108.6(5) . .
C62' C44' C45' 124.7(6) . .
C62' C44' C43' 109.2(5) . .
C45' C44' C43' 114.5(6) . .
C24' C45' C44' 128.7(7) . .
C24' C45' C46' 107.3(5) . .
C44' C45' C46' 114.0(6) . .
C47' C46' C26' 131.6(7) . .
C47' C46' C45' 112.3(6) . .
C26' C46' C45' 103.7(4) . .
C46' C47' C63' 130.6(7) . .
C46' C47' C48' 110.1(6) . .
C63' C47' C48' 106.5(5) . .
C28' C48' C49' 126.3(7) . .
C28' C48' C47' 120.5(6) . .
C49' C48' C47' 103.4(4) . .
C48' C49' C50' 117.7(6) . .
C48' C49' C64' 111.4(5) . .
C50' C49' C64' 122.3(6) . .
C49' C50' C30' 118.9(6) . .
C49' C50' C51' 109.4(5) . .
C30' C50' C51' 121.3(6) . .
C52' C51' C66' 109.2(5) . .
C52' C51' C50' 115.2(6) . .
C66' C51' C50' 127.8(6) . .
C51' C52' C32' 123.4(7) . .
C51' C52' C53' 109.4(5) . .
C32' C52' C53' 117.4(6) . .
C54' C53' C67' 118.7(6) . .
C54' C53' C52' 124.1(6) . .
C67' C53' C52' 106.0(5) . .
C53' C54' C34' 115.6(6) . .
C53' C54' C55' 122.7(6) . .
C34' C54' C55' 110.6(5) . .
C56' C55' C36' 121.5(7) . .
C56' C55' C54' 116.6(6) . .
C36' C55' C54' 105.4(5) . .
C55' C56' C68' 121.5(6) . .
C55' C56' C57' 120.3(6) . .
C68' C56' C57' 106.3(5) . .
C38' C57' C58' 122.5(6) . .
C38' C57' C56' 116.3(6) . .
C58' C57' C56' 109.1(5) . .
C57' C58' C69' 119.6(6) . .
C57' C58' C59' 108.1(5) . .
C69' C58' C59' 121.0(6) . .
C60' C59' C68' 119.8(6) . .
C60' C59' C58' 118.5(6) . .
C68' C59' C58' 107.8(5) . .
C61' C60' C59' 119.6(6) . .
C61' C60' C65' 115.7(6) . .
C59' C60' C65' 117.9(5) . .
C60' C61' C62' 124.7(6) . .
C60' C61' C70' 120.7(6) . .
C62' C61' C70' 106.1(4) . .
C63' C62' C44' 118.7(7) . .
C63' C62' C61' 119.9(6) . .
C44' C62' C61' 107.9(5) . .
C62' C63' C47' 119.5(6) . .
C62' C63' C64' 116.5(6) . .
C47' C63' C64' 114.5(5) . .
C63' C64' C65' 128.7(6) . .
C63' C64' C49' 104.0(4) . .
C65' C64' C49' 121.1(6) . .
C66' C65' C64' 117.7(6) . .
C66' C65' C60' 118.9(6) . .
C64' C65' C60' 113.9(6) . .
C51' C66' C65' 120.9(6) . .
C51' C66' C67' 109.0(5) . .
C65' C66' C67' 119.3(6) . .
C68' C67' C53' 119.7(6) . .
C68' C67' C66' 122.4(6) . .
C53' C67' C66' 106.5(5) . .
C67' C68' C56' 120.6(6) . .
C67' C68' C59' 121.5(6) . .
C56' C68' C59' 108.4(4) . .
C70' C69' C58' 118.3(5) . .
C70' C69' C40' 114.9(6) . .
C58' C69' C40' 121.0(6) . .
C69' C70' C43' 122.1(6) . .
C69' C70' C61' 119.8(6) . .
C43' C70' C61' 108.0(5) . .
loop_
_geom_bond_atom_site_label_1
_geom_bond_atom_site_label_2
_geom_bond_distance
_geom_bond_site_symmetry_2
C1 N1 1.373(5) .
C1 C19 1.407(6) 2_656
C1 C2 1.449(5) .
C2 C3 1.354(6) .
C3 C4 1.449(5) .
C4 N1 1.362(5) .
C4 C5 1.402(6) .
C5 C15 1.403(5) .
C5 C6 1.496(6) .
C6 C7 1.400(6) .
C6 C11 1.400(6) .
C7 C8 1.402(6) .
C7 C12 1.504(6) .
C8 C9 1.391(7) .
C9 C10 1.385(8) .
C9 C13 1.511(7) .
C10 C11 1.394(7) .
C11 C14 1.510(6) .
C15 N2 1.367(5) .
C15 C16 1.438(6) .
C16 C17 1.355(6) .
C17 C18 1.444(6) .
C18 N2 1.370(5) .
C18 C19 1.403(5) .
C19 C1 1.407(6) 2_656
C19 C20 1.494(5) .
C20 C21 1.389(6) .
C20 C25 1.402(5) .
C21 C22 1.382(6) .
C22 C23 1.386(6) .
C23 C24 1.393(6) .
C24 O1 1.370(5) .
C24 C25 1.387(6) .
C26 O1 1.433(5) .
C26 C27 1.508(6) .
C27 C28 1.524(6) .
C28 C29 1.527(6) .
C29 C30 1.522(6) .
C30 C31 1.515(6) .
C31 O2 1.428(6) .
C32 N4 1.372(6) .
C32 C47 1.407(6) 2_656
C32 C33 1.435(6) .
C33 C34 1.356(7) .
C34 C35 1.445(6) .
C35 N4 1.360(5) .
C35 C36 1.412(7) .
C36 C43 1.411(6) .
C36 C37 1.490(6) .
C37 C42 1.396(5) .
C37 C38 1.404(6) .
C38 C39 1.387(7) .
C39 C40 1.390(7) .
C40 C41 1.384(7) .
C41 O2 1.367(5) .
C41 C42 1.391(6) .
C43 N3 1.366(5) .
C43 C44 1.448(7) .
C44 C45 1.358(6) .
C45 C46 1.439(6) .
C46 N3 1.369(5) .
C46 C47 1.400(6) .
C47 C32 1.407(6) 2_656
C47 C48 1.497(6) .
C48 C53 1.398(6) .
C48 C49 1.404(6) .
C49 C50 1.384(6) .
C49 C54 1.512(6) .
C50 C51 1.391(7) .
C51 C52 1.388(6) .
C51 C55 1.521(7) .
C52 C53 1.392(6) .
C53 C56 1.511(6) .
C57 N5 1.340(4) .
C57 C58 1.388(5) .
C58 C59 1.382(5) .
C59 C58 1.382(5) 2_656
C59 N6 1.437(6) .
C60 O3 1.210(5) .
C60 N6 1.407(5) .
C60 C61 1.475(5) .
C61 C62 1.365(6) .
C61 C63 1.407(5) .
C62 C66 1.405(5) 2_656
C63 C64 1.402(7) .
C63 C61 1.407(5) 2_656
C64 C65 1.432(5) .
C64 C65 1.432(5) 2_656
C65 C66 1.400(5) .
C65 C77 1.470(5) .
C66 O4 1.370(5) .
C66 C62 1.405(5) 2_656
C67 C68 1.379(6) .
C67 O4 1.395(5) .
C67 C72 1.400(5) .
C68 C69 1.389(7) .
C69 C70 1.394(6) .
C70 C71 1.403(6) .
C70 C73 1.515(7) .
C71 C72 1.371(7) .
C73 C75 1.531(6) .
C73 C76 1.537(7) .
C73 C74 1.538(7) .
C77 C78 1.398(6) .
C77 C82 1.434(5) .
C78 O5 1.355(5) .
C78 C79 1.407(5) .
C79 C80 1.353(6) .
C80 C81 1.410(5) .
C80 C93 1.476(5) .
C81 C80 1.410(5) 2_656
C81 C82 1.413(7) .
C82 C77 1.434(5) 2_656
C83 C84 1.356(6) .
C83 C88 1.397(6) .
C83 O5 1.406(5) .
C84 C85 1.395(6) .
C85 C86 1.377(6) .
C86 C87 1.398(7) .
C86 C89 1.538(6) .
C87 C88 1.388(6) .
C89 C91 1.525(8) .
C89 C92 1.536(7) .
C89 C90 1.549(7) .
C93 O6 1.211(6) .
C93 N8 1.397(5) .
N8 C93 1.397(5) 2_656
N8 C94 1.440(6) .
C94 C95 1.380(5) .
C94 C95 1.380(5) 2_656
C95 C97 1.376(5) 1_545
C97 N7 1.330(5) .
C97 C95 1.376(5) 1_565
C1S C2S 1.372(10) .
C1S C6S 1.408(14) .
C1S C7S 1.505(12) .
C2S C3S 1.360(9) .
C3S C4S 1.356(11) .
C4S C5S 1.353(15) .
C4S C8S 1.500(13) .
C5S C6S 1.382(16) .
C1T C6T 1.384(8) .
C1T C2T 1.389(8) .
C1T C7T 1.503(8) .
C2T C3T 1.378(9) .
C3T C4T 1.385(8) .
C4T C5T 1.390(7) .
C4T C8T 1.493(8) .
C5T C6T 1.381(8) .
C1U C2U 1.381(8) .
C1U C6U 1.383(8) .
C1U C7U 1.500(9) .
C2U C3U 1.380(9) .
C3U C4U 1.369(8) .
C4U C5U 1.382(8) .
C4U C8U 1.504(8) .
C5U C6U 1.399(9) .
C1V C6V 1.388(8) .
C1V C2V 1.401(9) .
C1V C7V 1.492(10) .
C2V C3V 1.379(11) .
C3V C4V 1.390(9) .
C4V C5V 1.388(8) .
C4V C8V 1.495(11) .
C5V C6V 1.369(9) .
C1W C2W 1.385(9) .
C1W C6W 1.393(8) .
C1W C7W 1.491(10) .
C2W C3W 1.382(10) .
C3W C4W 1.365(9) .
C4W C5W 1.379(9) .
C4W C8W 1.512(10) .
C5W C6W 1.383(9) .
C1X C2X 1.371(9) .
C1X C6X 1.407(8) .
C1X C7X 1.501(9) .
C2X C3X 1.390(9) .
C3X C4X 1.379(9) .
C4X C5X 1.396(9) .
C4X C8X 1.504(9) .
C5X C6X 1.361(9) .
C1Y C2Y 1.373(11) .
C1Y C6Y 1.441(14) .
C1Y C8Y 1.509(15) .
C2Y C3Y 1.372(11) .
C3Y C4Y 1.389(11) .
C4Y C5Y 1.394(11) .
C4Y C7Y 1.490(12) .
C5Y C6Y 1.348(14) .
C1Z C6Z 1.379(9) .
C1Z C2Z 1.386(8) .
C1Z C7Z 1.507(9) .
C2Z C3Z 1.373(9) .
C3Z C4Z 1.382(8) .
C4Z C5Z 1.391(8) .
C4Z C8Z 1.506(9) .
C5Z C6Z 1.371(9) .
N1 Zn1 2.058(3) .
N2 Zn1 2.064(4) .
N3 Zn2 2.055(4) .
N4 Zn2 2.059(3) .
N5 C57 1.340(4) 2_656
N5 Zn1 2.154(4) .
N6 C60 1.407(5) 2_656
N7 C97 1.330(5) 2_656
N7 Zn2 2.121(4) .
Zn1 N1 2.058(3) 2_656
Zn1 N2 2.064(4) 2_656
Zn2 N3 2.055(4) 2_656
Zn2 N4 2.059(3) 2_656
C1D C2D 1.4152 .
C1D C6D 1.4406 .
C1D C9D 1.5097 .
C2D C3D 1.4012 .
C2D C12D 1.5245 .
C3D C15D 1.3446 .
C3D C4D 1.4725 .
C4D C17D 1.3746 .
C4D C5D 1.3877 .
C5D C6D 1.3916 .
C5D C20D 1.5736 .
C6D C7D 1.4716 .
C7D C22D 1.3120 .
C7D C8D 1.4459 .
C8D C25D 1.3550 .
C8D C9D 1.4846 .
C9D C10D 1.3458 .
C10D C11D 1.4445 .
C10D C27D 1.5041 .
C11D C29D 1.4059 .
C11D C12D 1.4395 .
C12D C13D 1.4685 .
C13D C31D 1.3799 .
C13D C14D 1.4683 .
C14D C15D 1.3623 .
C14D C33D 1.5164 .
C15D C16D 1.5211 .
C16D C35D 1.3067 .
C16D C17D 1.5228 .
C17D C18D 1.3400 .
C18D C37D 1.4395 .
C18D C19D 1.4934 .
C19D C20D 1.2842 .
C19D C39D 1.4085 .
C20D C21D 1.3834 .
C21D C41D 1.4127 .
C21D C22D 1.5212 .
C22D C23D 1.4606 .
C23D C24D 1.4136 .
C23D C42D 1.4346 .
C24D C45D 1.3613 .
C24D C25D 1.4683 .
C25D C26D 1.4994 .
C26D C27D 1.3460 .
C26D C46D 1.3927 .
C27D C28D 1.4677 .
C28D C48D 1.3395 .
C28D C29D 1.4361 .
C29D C30D 1.4120 .
C30D C31D 1.3523 .
C30D C50D 1.4514 .
C31D C32D 1.4173 .
C32D C52D 1.3848 .
C32D C33D 1.4090 .
C33D C34D 1.3416 .
C34D C54D 1.3872 .
C34D C35D 1.4607 .
C35D C36D 1.4189 .
C36D C55D 1.3809 .
C36D C37D 1.3980 .
C37D C38D 1.4023 .
C38D C57D 1.3365 .
C38D C39D 1.4491 .
C39D C40D 1.4103 .
C40D C41D 1.3781 .
C40D C69D 1.4898 .
C41D C42D 1.4219 .
C42D C43D 1.3341 .
C43D C70D 1.3688 .
C43D C44D 1.4924 .
C44D C62D 1.3858 .
C44D C45D 1.4099 .
C45D C46D 1.6098 .
C46D C47D 1.3023 .
C47D C63D 1.3544 .
C47D C48D 1.5776 .
C48D C49D 1.3788 .
C49D C50D 1.4394 .
C49D C64D 1.5087 .
C50D C51D 1.4831 .
C51D C52D 1.3391 .
C51D C66D 1.3708 .
C52D C53D 1.4641 .
C53D C54D 1.3359 .
C53D C67D 1.3984 .
C54D C55D 1.4474 .
C55D C56D 1.3065 .
C56D C68D 1.4192 .
C56D C57D 1.5022 .
C57D C58D 1.3815 .
C58D C69D 1.3931 .
C58D C59D 1.4601 .
C59D C60D 1.3820 .
C59D C68D 1.4484 .
C60D C61D 1.3344 .
C60D C65D 1.5457 .
C61D C62D 1.4786 .
C61D C70D 1.5062 .
C62D C63D 1.3446 .
C63D C64D 1.3883 .
C64D C65D 1.3924 .
C65D C66D 1.3858 .
C66D C67D 1.4429 .
C67D C68D 1.3358 .
C69D C70D 1.3436 .
C1D' C2D' 1.421(4) .
C1D' C6D' 1.449(5) .
C1D' C9D' 1.516(5) .
C2D' C3D' 1.403(4) .
C2D' C12' 1.527(5) .
C3D' C15' 1.348(5) .
C3D' C4D' 1.472(5) .
C4D' C17' 1.368(4) .
C4D' C5D' 1.391(4) .
C5D' C6D' 1.394(4) .
C5D' C20' 1.572(5) .
C6D' C7D' 1.472(5) .
C7D' C22' 1.312(4) .
C7D' C8D' 1.446(5) .
C8D' C25' 1.355(4) .
C8D' C9D' 1.489(5) .
C9D' C10' 1.355(4) .
C10' C11' 1.452(5) .
C10' C27' 1.508(5) .
C11' C29' 1.417(5) .
C11' C12' 1.445(5) .
C12' C13' 1.477(5) .
C13' C31' 1.381(5) .
C13' C14' 1.469(5) .
C14' C15' 1.355(4) .
C14' C33' 1.512(5) .
C15' C16' 1.520(5) .
C16' C35' 1.303(4) .
C16' C17' 1.518(5) .
C17' C18' 1.339(4) .
C18' C37' 1.435(4) .
C18' C19' 1.490(5) .
C19' C20' 1.285(4) .
C19' C39' 1.409(5) .
C20' C21' 1.377(5) .
C21' C41' 1.412(5) .
C21' C22' 1.514(5) .
C22' C23' 1.457(5) .
C23' C24' 1.407(5) .
C23' C42' 1.432(5) .
C24' C45' 1.357(5) .
C24' C25' 1.467(5) .
C25' C26' 1.500(5) .
C26' C27' 1.346(5) .
C26' C46' 1.392(5) .
C27' C28' 1.471(5) .
C28' C48' 1.344(4) .
C28' C29' 1.443(5) .
C29' C30' 1.416(4) .
C30' C31' 1.354(4) .
C30' C50' 1.451(5) .
C31' C32' 1.413(5) .
C32' C52' 1.384(4) .
C32' C33' 1.406(5) .
C33' C34' 1.335(4) .
C34' C54' 1.386(5) .
C34' C35' 1.458(5) .
C35' C36' 1.418(4) .
C36' C55' 1.380(5) .
C36' C37' 1.393(4) .
C37' C38' 1.406(5) .
C38' C57' 1.341(4) .
C38' C39' 1.448(4) .
C39' C40' 1.416(4) .
C40' C41' 1.375(4) .
C40' C69' 1.491(4) .
C41' C42' 1.416(5) .
C42' C43' 1.326(4) .
C43' C70' 1.369(4) .
C43' C44' 1.485(5) .
C44' C62' 1.382(5) .
C44' C45' 1.406(4) .
C45' C46' 1.607(5) .
C46' C47' 1.298(4) .
C47' C63' 1.350(4) .
C47' C48' 1.574(5) .
C48' C49' 1.379(5) .
C49' C50' 1.435(4) .
C49' C64' 1.508(5) .
C50' C51' 1.483(4) .
C51' C52' 1.339(5) .
C51' C66' 1.374(4) .
C52' C53' 1.463(4) .
C53' C54' 1.335(4) .
C53' C67' 1.399(5) .
C54' C55' 1.448(5) .
C55' C56' 1.309(4) .
C56' C68' 1.424(5) .
C56' C57' 1.507(5) .
C57' C58' 1.385(5) .
C58' C69' 1.396(4) .
C58' C59' 1.468(5) .
C59' C60' 1.390(4) .
C59' C68' 1.455(5) .
C60' C61' 1.334(4) .
C60' C65' 1.551(5) .
C61' C62' 1.476(5) .
C61' C70' 1.502(5) .
C62' C63' 1.340(5) .
C63' C64' 1.383(5) .
C64' C65' 1.392(4) .
C65' C66' 1.386(4) .
C66' C67' 1.445(4) .
C67' C68' 1.338(4) .
C69' C70' 1.343(4) .
loop_
_geom_torsion_atom_site_label_1
_geom_torsion_atom_site_label_2
_geom_torsion_atom_site_label_3
_geom_torsion_atom_site_label_4
_geom_torsion
_geom_torsion_site_symmetry_1
_geom_torsion_site_symmetry_4
N1 C1 C2 C3 1.4(4) . .
C19 C1 C2 C3 -175.2(4) 2_656 .
C1 C2 C3 C4 -1.2(4) . .
C2 C3 C4 N1 0.7(4) . .
C2 C3 C4 C5 -176.6(4) . .
N1 C4 C5 C15 -9.3(6) . .
C3 C4 C5 C15 167.6(4) . .
N1 C4 C5 C6 170.2(3) . .
C3 C4 C5 C6 -12.9(5) . .
C4 C5 C6 C7 -87.1(5) . .
C15 C5 C6 C7 92.4(5) . .
C4 C5 C6 C11 91.5(5) . .
C15 C5 C6 C11 -89.0(5) . .
C11 C6 C7 C8 -1.1(6) . .
C5 C6 C7 C8 177.5(4) . .
C11 C6 C7 C12 179.4(4) . .
C5 C6 C7 C12 -2.0(6) . .
C6 C7 C8 C9 -0.5(7) . .
C12 C7 C8 C9 179.0(5) . .
C7 C8 C9 C10 1.4(8) . .
C7 C8 C9 C13 -179.8(5) . .
C8 C9 C10 C11 -0.7(8) . .
C13 C9 C10 C11 -179.4(5) . .
C9 C10 C11 C6 -0.9(7) . .
C9 C10 C11 C14 -179.4(5) . .
C7 C6 C11 C10 1.8(6) . .
C5 C6 C11 C10 -176.7(4) . .
C7 C6 C11 C14 -179.7(4) . .
C5 C6 C11 C14 1.7(6) . .
C4 C5 C15 N2 11.0(6) . .
C6 C5 C15 N2 -168.4(3) . .
C4 C5 C15 C16 -166.2(4) . .
C6 C5 C15 C16 14.4(6) . .
N2 C15 C16 C17 -0.5(4) . .
C5 C15 C16 C17 177.0(4) . .
C15 C16 C17 C18 1.6(4) . .
C16 C17 C18 N2 -2.2(4) . .
C16 C17 C18 C19 177.6(4) . .
N2 C18 C19 C1 -0.1(6) . 2_656
C17 C18 C19 C1 -179.9(4) . 2_656
N2 C18 C19 C20 177.0(3) . .
C17 C18 C19 C20 -2.8(5) . .
C18 C19 C20 C21 -64.7(5) . .
C1 C19 C20 C21 112.6(4) 2_656 .
C18 C19 C20 C25 115.3(4) . .
C1 C19 C20 C25 -67.4(5) 2_656 .
C25 C20 C21 C22 0.8(7) . .
C19 C20 C21 C22 -179.2(4) . .
C20 C21 C22 C23 -0.4(7) . .
C21 C22 C23 C24 -0.6(7) . .
C22 C23 C24 O1 -179.5(4) . .
C22 C23 C24 C25 1.3(7) . .
O1 C24 C25 C20 179.9(4) . .
C23 C24 C25 C20 -1.0(7) . .
C21 C20 C25 C24 0.0(6) . .
C19 C20 C25 C24 179.9(4) . .
O1 C26 C27 C28 179.4(4) . .
C26 C27 C28 C29 178.3(4) . .
C27 C28 C29 C30 -169.7(4) . .
C28 C29 C30 C31 -66.8(6) . .
C29 C30 C31 O2 -68.7(5) . .
N4 C32 C33 C34 -1.0(5) . .
C47 C32 C33 C34 176.6(4) 2_656 .
C32 C33 C34 C35 1.7(5) . .
C33 C34 C35 N4 -1.9(5) . .
C33 C34 C35 C36 173.9(4) . .
N4 C35 C36 C43 3.9(6) . .
C34 C35 C36 C43 -171.1(4) . .
N4 C35 C36 C37 -176.3(3) . .
C34 C35 C36 C37 8.6(6) . .
C43 C36 C37 C42 -119.9(4) . .
C35 C36 C37 C42 60.4(5) . .
C43 C36 C37 C38 57.6(5) . .
C35 C36 C37 C38 -122.2(5) . .
C42 C37 C38 C39 2.1(7) . .
C36 C37 C38 C39 -175.3(4) . .
C37 C38 C39 C40 -1.7(7) . .
C38 C39 C40 C41 -0.4(7) . .
C39 C40 C41 O2 -178.1(4) . .
C39 C40 C41 C42 2.0(7) . .
O2 C41 C42 C37 178.6(4) . .
C40 C41 C42 C37 -1.5(7) . .
C38 C37 C42 C41 -0.5(6) . .
C36 C37 C42 C41 177.0(4) . .
C35 C36 C43 N3 -1.2(6) . .
C37 C36 C43 N3 179.1(3) . .
C35 C36 C43 C44 176.5(4) . .
C37 C36 C43 C44 -3.2(6) . .
N3 C43 C44 C45 3.2(5) . .
C36 C43 C44 C45 -174.8(4) . .
C43 C44 C45 C46 -2.4(5) . .
C44 C45 C46 N3 0.9(5) . .
C44 C45 C46 C47 -176.5(4) . .
N3 C46 C47 C32 -9.7(6) . 2_656
C45 C46 C47 C32 167.3(4) . 2_656
N3 C46 C47 C48 167.7(4) . .
C45 C46 C47 C48 -15.3(6) . .
C46 C47 C48 C53 87.8(5) . .
C32 C47 C48 C53 -94.6(5) 2_656 .
C46 C47 C48 C49 -90.0(5) . .
C32 C47 C48 C49 87.6(5) 2_656 .
C53 C48 C49 C50 1.1(6) . .
C47 C48 C49 C50 178.9(4) . .
C53 C48 C49 C54 -178.5(4) . .
C47 C48 C49 C54 -0.7(6) . .
C48 C49 C50 C51 0.5(7) . .
C54 C49 C50 C51 -179.9(4) . .
C49 C50 C51 C52 -0.7(7) . .
C49 C50 C51 C55 179.1(4) . .
C50 C51 C52 C53 -0.6(7) . .
C55 C51 C52 C53 179.6(4) . .
C51 C52 C53 C48 2.1(7) . .
C51 C52 C53 C56 -177.1(5) . .
C49 C48 C53 C52 -2.4(6) . .
C47 C48 C53 C52 179.9(4) . .
C49 C48 C53 C56 176.9(4) . .
C47 C48 C53 C56 -0.9(6) . .
N5 C57 C58 C59 1.9(6) . .
C57 C58 C59 C58 -0.9(3) . 2_656
C57 C58 C59 N6 179.1(3) . .
O3 C60 C61 C62 1.8(7) . .
N6 C60 C61 C62 -178.7(4) . .
O3 C60 C61 C63 179.4(4) . .
N6 C60 C61 C63 -1.0(5) . .
C63 C61 C62 C66 6.1(6) . 2_656
C60 C61 C62 C66 -176.3(4) . 2_656
C62 C61 C63 C64 -1.9(5) . .
C60 C61 C63 C64 -179.5(3) . .
C62 C61 C63 C61 178.1(5) . 2_656
C60 C61 C63 C61 0.5(3) . 2_656
C61 C63 C64 C65 172.0(3) . .
C61 C63 C64 C65 -8.0(3) 2_656 .
C61 C63 C64 C65 -8.0(3) . 2_656
C61 C63 C64 C65 172.0(3) 2_656 2_656
C63 C64 C65 C66 13.4(4) . .
C65 C64 C65 C66 -166.6(4) 2_656 .
C63 C64 C65 C77 -167.1(3) . .
C65 C64 C65 C77 12.9(3) 2_656 .
C64 C65 C66 O4 162.8(3) . .
C77 C65 C66 O4 -16.6(6) . .
C64 C65 C66 C62 -9.4(6) . 2_656
C77 C65 C66 C62 171.1(4) . 2_656
O4 C67 C68 C69 -176.9(4) . .
C72 C67 C68 C69 -1.7(6) . .
C67 C68 C69 C70 1.1(6) . .
C68 C69 C70 C71 0.5(6) . .
C68 C69 C70 C73 177.8(4) . .
C69 C70 C71 C72 -1.5(6) . .
C73 C70 C71 C72 -178.8(4) . .
C70 C71 C72 C67 0.9(6) . .
C68 C67 C72 C71 0.7(6) . .
O4 C67 C72 C71 176.3(4) . .
C69 C70 C73 C75 132.7(5) . .
C71 C70 C73 C75 -50.2(6) . .
C69 C70 C73 C76 -107.2(5) . .
C71 C70 C73 C76 70.0(5) . .
C69 C70 C73 C74 12.1(6) . .
C71 C70 C73 C74 -170.7(4) . .
C66 C65 C77 C78 -28.3(6) . .
C64 C65 C77 C78 152.2(4) . .
C66 C65 C77 C82 153.7(4) . .
C64 C65 C77 C82 -25.7(5) . .
C82 C77 C78 O5 168.7(3) . .
C65 C77 C78 O5 -9.3(6) . .
C82 C77 C78 C79 -7.4(6) . .
C65 C77 C78 C79 174.7(4) . .
O5 C78 C79 C80 -179.4(4) . .
C77 C78 C79 C80 -3.3(6) . .
C78 C79 C80 C81 6.7(6) . .
C78 C79 C80 C93 -175.4(4) . .
C79 C80 C81 C80 -179.0(5) . 2_656
C93 C80 C81 C80 3.1(3) . 2_656
C79 C80 C81 C82 1.0(5) . .
C93 C80 C81 C82 -176.9(3) . .
C80 C81 C82 C77 -11.8(3) . .
C80 C81 C82 C77 168.2(3) 2_656 .
C80 C81 C82 C77 168.2(3) . 2_656
C80 C81 C82 C77 -11.8(3) 2_656 2_656
C78 C77 C82 C81 14.7(4) . .
C65 C77 C82 C81 -167.2(2) . .
C78 C77 C82 C77 -165.3(4) . 2_656
C65 C77 C82 C77 12.8(2) . 2_656
C88 C83 C84 C85 2.3(6) . .
O5 C83 C84 C85 179.0(3) . .
C83 C84 C85 C86 0.7(6) . .
C84 C85 C86 C87 -2.6(6) . .
C84 C85 C86 C89 177.9(4) . .
C85 C86 C87 C88 1.6(6) . .
C89 C86 C87 C88 -178.9(4) . .
C86 C87 C88 C83 1.3(6) . .
C84 C83 C88 C87 -3.3(6) . .
O5 C83 C88 C87 -179.9(4) . .
C85 C86 C89 C91 -4.0(6) . .
C87 C86 C89 C91 176.6(4) . .
C85 C86 C89 C92 -123.6(5) . .
C87 C86 C89 C92 56.9(6) . .
C85 C86 C89 C90 117.6(5) . .
C87 C86 C89 C90 -61.9(5) . .
C79 C80 C93 O6 -3.6(7) . .
C81 C80 C93 O6 174.3(4) . .
C79 C80 C93 N8 176.1(4) . .
C81 C80 C93 N8 -6.0(5) . .
O6 C93 N8 C93 -177.4(5) . 2_656
C80 C93 N8 C93 2.9(3) . 2_656
O6 C93 N8 C94 2.6(5) . .
C80 C93 N8 C94 -177.1(3) . .
C93 N8 C94 C95 -105.2(3) . .
C93 N8 C94 C95 74.8(3) 2_656 .
C93 N8 C94 C95 74.8(3) . 2_656
C93 N8 C94 C95 -105.2(3) 2_656 2_656
C95 C94 C95 C97 0.2(3) 2_656 1_545
N8 C94 C95 C97 -179.8(3) . 1_545
C6S C1S C2S C3S -1.0(8) . .
C7S C1S C2S C3S 179.2(6) . .
C1S C2S C3S C4S -1.3(9) . .
C2S C3S C4S C5S 3.2(9) . .
C2S C3S C4S C8S -176.1(6) . .
C3S C4S C5S C6S -2.9(10) . .
C8S C4S C5S C6S 176.4(7) . .
C4S C5S C6S C1S 0.7(10) . .
C2S C1S C6S C5S 1.2(9) . .
C7S C1S C6S C5S -178.9(6) . .
C6T C1T C2T C3T -0.7(8) . .
C7T C1T C2T C3T 177.4(5) . .
C1T C2T C3T C4T 0.2(8) . .
C2T C3T C4T C5T 0.5(8) . .
C2T C3T C4T C8T -179.8(5) . .
C3T C4T C5T C6T -0.7(8) . .
C8T C4T C5T C6T 179.6(5) . .
C4T C5T C6T C1T 0.1(9) . .
C2T C1T C6T C5T 0.6(8) . .
C7T C1T C6T C5T -177.5(5) . .
C6U C1U C2U C3U 0.1(8) . .
C7U C1U C2U C3U 178.0(6) . .
C1U C2U C3U C4U 0.0(8) . .
C2U C3U C4U C5U -0.2(8) . .
C2U C3U C4U C8U 179.9(5) . .
C3U C4U C5U C6U 0.4(8) . .
C8U C4U C5U C6U -179.7(5) . .
C2U C1U C6U C5U 0.1(8) . .
C7U C1U C6U C5U -177.8(6) . .
C4U C5U C6U C1U -0.3(9) . .
C6V C1V C2V C3V -0.6(10) . .
C7V C1V C2V C3V 179.9(6) . .
C1V C2V C3V C4V -1.7(10) . .
C2V C3V C4V C5V 3.2(10) . .
C2V C3V C4V C8V -176.9(7) . .
C3V C4V C5V C6V -2.5(9) . .
C8V C4V C5V C6V 177.7(6) . .
C4V C5V C6V C1V 0.2(10) . .
C2V C1V C6V C5V 1.4(9) . .
C7V C1V C6V C5V -179.2(6) . .
C6W C1W C2W C3W -0.7(9) . .
C7W C1W C2W C3W 178.2(6) . .
C1W C2W C3W C4W 1.6(10) . .
C2W C3W C4W C5W -1.9(10) . .
C2W C3W C4W C8W 179.6(7) . .
C3W C4W C5W C6W 1.3(10) . .
C8W C4W C5W C6W 179.8(6) . .
C4W C5W C6W C1W -0.5(10) . .
C2W C1W C6W C5W 0.2(9) . .
C7W C1W C6W C5W -178.8(6) . .
C6X C1X C2X C3X -0.2(9) . .
C7X C1X C2X C3X 178.5(6) . .
C1X C2X C3X C4X -0.3(10) . .
C2X C3X C4X C5X 1.4(9) . .
C2X C3X C4X C8X -178.6(6) . .
C3X C4X C5X C6X -2.2(9) . .
C8X C4X C5X C6X 177.9(6) . .
C4X C5X C6X C1X 1.8(9) . .
C2X C1X C6X C5X -0.6(9) . .
C7X C1X C6X C5X -179.2(6) . .
C6Y C1Y C2Y C3Y -1.0(10) . .
C8Y C1Y C2Y C3Y 178.6(7) . .
C1Y C2Y C3Y C4Y 1.1(10) . .
C2Y C3Y C4Y C5Y -1.0(9) . .
C2Y C3Y C4Y C7Y -177.9(6) . .
C3Y C4Y C5Y C6Y 0.8(11) . .
C7Y C4Y C5Y C6Y 177.7(7) . .
C4Y C5Y C6Y C1Y -0.8(12) . .
C2Y C1Y C6Y C5Y 0.9(11) . .
C8Y C1Y C6Y C5Y -178.8(8) . .
C6Z C1Z C2Z C3Z -0.5(10) . .
C7Z C1Z C2Z C3Z 176.4(6) . .
C1Z C2Z C3Z C4Z 0.3(10) . .
C2Z C3Z C4Z C5Z -0.4(9) . .
C2Z C3Z C4Z C8Z -177.2(6) . .
C3Z C4Z C5Z C6Z 0.8(9) . .
C8Z C4Z C5Z C6Z 177.5(6) . .
C4Z C5Z C6Z C1Z -1.1(10) . .
C2Z C1Z C6Z C5Z 0.9(10) . .
C7Z C1Z C6Z C5Z -176.0(7) . .
C5 C4 N1 C1 177.4(4) . .
C3 C4 N1 C1 0.2(4) . .
C5 C4 N1 Zn1 -11.3(5) . .
C3 C4 N1 Zn1 171.4(2) . .
C19 C1 N1 C4 175.7(3) 2_656 .
C2 C1 N1 C4 -0.9(4) . .
C19 C1 N1 Zn1 4.7(5) 2_656 .
C2 C1 N1 Zn1 -171.9(2) . .
C5 C15 N2 C18 -178.4(3) . .
C16 C15 N2 C18 -0.9(4) . .
C5 C15 N2 Zn1 8.1(5) . .
C16 C15 N2 Zn1 -174.4(2) . .
C19 C18 N2 C15 -178.0(3) . .
C17 C18 N2 C15 1.9(4) . .
C19 C18 N2 Zn1 -4.6(5) . .
C17 C18 N2 Zn1 175.3(2) . .
C36 C43 N3 C46 175.4(4) . .
C44 C43 N3 C46 -2.6(4) . .
C36 C43 N3 Zn2 2.6(6) . .
C44 C43 N3 Zn2 -175.4(3) . .
C47 C46 N3 C43 178.5(4) . .
C45 C46 N3 C43 1.1(4) . .
C47 C46 N3 Zn2 -8.3(5) . .
C45 C46 N3 Zn2 174.3(3) . .
C36 C35 N4 C32 -174.4(4) . .
C34 C35 N4 C32 1.3(4) . .
C36 C35 N4 Zn2 -7.8(5) . .
C34 C35 N4 Zn2 167.9(3) . .
C47 C32 N4 C35 -177.7(4) 2_656 .
C33 C32 N4 C35 -0.2(4) . .
C47 C32 N4 Zn2 14.8(5) 2_656 .
C33 C32 N4 Zn2 -167.7(3) . .
C58 C57 N5 C57 -1.0(3) . 2_656
C58 C57 N5 Zn1 179.0(3) . .
O3 C60 N6 C60 -180.0(5) . 2_656
C61 C60 N6 C60 0.5(3) . 2_656
O3 C60 N6 C59 0.0(5) . .
C61 C60 N6 C59 -179.5(3) . .
C58 C59 N6 C60 -60.4(3) 2_656 .
C58 C59 N6 C60 119.6(3) . .
C58 C59 N6 C60 119.6(3) 2_656 2_656
C58 C59 N6 C60 -60.4(3) . 2_656
C95 C97 N7 C97 0.2(4) 1_565 2_656
C95 C97 N7 Zn2 -179.8(4) 1_565 .
C25 C24 O1 C26 -3.5(6) . .
C23 C24 O1 C26 177.4(4) . .
C27 C26 O1 C24 -174.9(4) . .
C40 C41 O2 C31 161.8(4) . .
C42 C41 O2 C31 -18.3(6) . .
C30 C31 O2 C41 -161.8(4) . .
C65 C66 O4 C67 140.9(4) . .
C62 C66 O4 C67 -46.7(5) 2_656 .
C68 C67 O4 C66 -28.1(5) . .
C72 C67 O4 C66 156.5(4) . .
C77 C78 O5 C83 143.3(4) . .
C79 C78 O5 C83 -40.6(5) . .
C84 C83 O5 C78 147.4(4) . .
C88 C83 O5 C78 -35.9(5) . .
C6D C1D C2D C3D -3.8 . .
C9D C1D C2D C3D -150.9 . .
C6D C1D C2D C12D 138.8 . .
C9D C1D C2D C12D -8.2 . .
C1D C2D C3D C15D 153.1 . .
C12D C2D C3D C15D 10.9 . .
C1D C2D C3D C4D 7.1 . .
C12D C2D C3D C4D -135.2 . .
C15D C3D C4D C17D 3.9 . .
C2D C3D C4D C17D 152.7 . .
C15D C3D C4D C5D -151.5 . .
C2D C3D C4D C5D -2.7 . .
C17D C4D C5D C6D -156.7 . .
C3D C4D C5D C6D -5.4 . .
C17D C4D C5D C20D -13.3 . .
C3D C4D C5D C20D 138.0 . .
C4D C5D C6D C1D 8.7 . .
C20D C5D C6D C1D -132.5 . .
C4D C5D C6D C7D 147.8 . .
C20D C5D C6D C7D 6.6 . .
C2D C1D C6D C5D -4.4 . .
C9D C1D C6D C5D 146.1 . .
C2D C1D C6D C7D -148.2 . .
C9D C1D C6D C7D 2.4 . .
C5D C6D C7D C22D -2.6 . .
C1D C6D C7D C22D 140.9 . .
C5D C6D C7D C8D -146.1 . .
C1D C6D C7D C8D -2.6 . .
C22D C7D C8D C25D -1.9 . .
C6D C7D C8D C25D 143.8 . .
C22D C7D C8D C9D -144.0 . .
C6D C7D C8D C9D 1.7 . .
C25D C8D C9D C10D -4.9 . .
C7D C8D C9D C10D 141.4 . .
C25D C8D C9D C1D -146.6 . .
C7D C8D C9D C1D -0.3 . .
C2D C1D C9D C10D 6.9 . .
C6D C1D C9D C10D -144.4 . .
C2D C1D C9D C8D 150.0 . .
C6D C1D C9D C8D -1.3 . .
C8D C9D C10D C11D -136.1 . .
C1D C9D C10D C11D 0.9 . .
C8D C9D C10D C27D 5.0 . .
C1D C9D C10D C27D 141.9 . .
C9D C10D C11D C29D 142.1 . .
C27D C10D C11D C29D -3.2 . .
C9D C10D C11D C12D -6.1 . .
C27D C10D C11D C12D -151.4 . .
C29D C11D C12D C13D 12.6 . .
C10D C11D C12D C13D 157.2 . .
C29D C11D C12D C2D -140.4 . .
C10D C11D C12D C2D 4.2 . .
C3D C2D C12D C11D 145.5 . .
C1D C2D C12D C11D 2.8 . .
C3D C2D C12D C13D -4.8 . .
C1D C2D C12D C13D -147.5 . .
C11D C12D C13D C31D -13.3 . .
C2D C12D C13D C31D 140.2 . .
C11D C12D C13D C14D -156.3 . .
C2D C12D C13D C14D -2.8 . .
C31D C13D C14D C15D -142.6 . .
C12D C13D C14D C15D 5.1 . .
C31D C13D C14D C33D 0.2 . .
C12D C13D C14D C33D 148.0 . .
C2D C3D C15D C14D -9.4 . .
C4D C3D C15D C14D 138.6 . .
C2D C3D C15D C16D -149.0 . .
C4D C3D C15D C16D -1.1 . .
C13D C14D C15D C3D 0.7 . .
C33D C14D C15D C3D -135.3 . .
C13D C14D C15D C16D 137.7 . .
C33D C14D C15D C16D 1.7 . .
C3D C15D C16D C35D 142.0 . .
C14D C15D C16D C35D -1.9 . .
C3D C15D C16D C17D -1.8 . .
C14D C15D C16D C17D -145.7 . .
C5D C4D C17D C18D 13.9 . .
C3D C4D C17D C18D -141.5 . .
C5D C4D C17D C16D 150.5 . .
C3D C4D C17D C16D -4.9 . .
C35D C16D C17D C18D -0.5 . .
C15D C16D C17D C18D 143.9 . .
C35D C16D C17D C4D -140.1 . .
C15D C16D C17D C4D 4.2 . .
C4D C17D C18D C37D 137.8 . .
C16D C17D C18D C37D 3.3 . .
C4D C17D C18D C19D -6.5 . .
C16D C17D C18D C19D -141.0 . .
C17D C18D C19D C20D 0.3 . .
C37D C18D C19D C20D -149.1 . .
C17D C18D C19D C39D 145.1 . .
C37D C18D C19D C39D -4.3 . .
C39D C19D C20D C21D 16.0 . .
C18D C19D C20D C21D 154.6 . .
C39D C19D C20D C5D -139.3 . .
C18D C19D C20D C5D -0.7 . .
C4D C5D C20D C19D 6.8 . .
C6D C5D C20D C19D 149.3 . .
C4D C5D C20D C21D -149.5 . .
C6D C5D C20D C21D -6.9 . .
C19D C20D C21D C41D -16.3 . .
C5D C20D C21D C41D 140.3 . .
C19D C20D C21D C22D -153.0 . .
C5D C20D C21D C22D 3.5 . .
C8D C7D C22D C23D 4.4 . .
C6D C7D C22D C23D -136.4 . .
C8D C7D C22D C21D 139.7 . .
C6D C7D C22D C21D -1.1 . .
C20D C21D C22D C7D 0.3 . .
C41D C21D C22D C7D -140.6 . .
C20D C21D C22D C23D 141.7 . .
C41D C21D C22D C23D 0.8 . .
C7D C22D C23D C24D -5.8 . .
C21D C22D C23D C24D -145.9 . .
C7D C22D C23D C42D 138.2 . .
C21D C22D C23D C42D -1.9 . .
C42D C23D C24D C45D 0.0 . .
C22D C23D C24D C45D 139.6 . .
C42D C23D C24D C25D -135.5 . .
C22D C23D C24D C25D 4.1 . .
C7D C8D C25D C24D 0.4 . .
C9D C8D C25D C24D 140.1 . .
C7D C8D C25D C26D -134.4 . .
C9D C8D C25D C26D 5.3 . .
C45D C24D C25D C8D -138.8 . .
C23D C24D C25D C8D -1.5 . .
C45D C24D C25D C26D 4.3 . .
C23D C24D C25D C26D 141.6 . .
C8D C25D C26D C27D -6.0 . .
C24D C25D C26D C27D -145.5 . .
C8D C25D C26D C46D 135.3 . .
C24D C25D C26D C46D -4.2 . .
C46D C26D C27D C28D -2.2 . .
C25D C26D C27D C28D 136.9 . .
C46D C26D C27D C10D -133.5 . .
C25D C26D C27D C10D 5.6 . .
C9D C10D C27D C26D -5.6 . .
C11D C10D C27D C26D 141.9 . .
C9D C10D C27D C28D -142.9 . .
C11D C10D C27D C28D 4.6 . .
C26D C27D C28D C48D 1.2 . .
C10D C27D C28D C48D 139.4 . .
C26D C27D C28D C29D -142.9 . .
C10D C27D C28D C29D -4.7 . .
C12D C11D C29D C30D -0.3 . .
C10D C11D C29D C30D -146.2 . .
C12D C11D C29D C28D 146.1 . .
C10D C11D C29D C28D 0.3 . .
C48D C28D C29D C11D -142.6 . .
C27D C28D C29D C11D 2.9 . .
C48D C28D C29D C30D 3.0 . .
C27D C28D C29D C30D 148.5 . .
C11D C29D C30D C31D -13.4 . .
C28D C29D C30D C31D -154.1 . .
C11D C29D C30D C50D 140.1 . .
C28D C29D C30D C50D -0.6 . .
C29D C30D C31D C13D 13.1 . .
C50D C30D C31D C13D -139.2 . .
C29D C30D C31D C32D 150.6 . .
C50D C30D C31D C32D -1.7 . .
C14D C13D C31D C30D 144.4 . .
C12D C13D C31D C30D 0.7 . .
C14D C13D C31D C32D 1.9 . .
C12D C13D C31D C32D -141.7 . .
C30D C31D C32D C52D -1.7 . .
C13D C31D C32D C52D 141.1 . .
C30D C31D C32D C33D -146.3 . .
C13D C31D C32D C33D -3.5 . .
C52D C32D C33D C34D -2.8 . .
C31D C32D C33D C34D 142.1 . .
C52D C32D C33D C14D -141.3 . .
C31D C32D C33D C14D 3.6 . .
C15D C14D C33D C34D -0.2 . .
C13D C14D C33D C34D -143.0 . .
C15D C14D C33D C32D 140.6 . .
C13D C14D C33D C32D -2.2 . .
C32D C33D C34D C54D 4.0 . .
C14D C33D C34D C54D 138.1 . .
C32D C33D C34D C35D -135.3 . .
C14D C33D C34D C35D -1.3 . .
C15D C16D C35D C36D -137.5 . .
C17D C16D C35D C36D -0.1 . .
C15D C16D C35D C34D 0.5 . .
C17D C16D C35D C34D 137.8 . .
C33D C34D C35D C16D 1.2 . .
C54D C34D C35D C16D -143.5 . .
C33D C34D C35D C36D 144.5 . .
C54D C34D C35D C36D -0.3 . .
C16D C35D C36D C55D 145.1 . .
C34D C35D C36D C55D 2.5 . .
C16D C35D C36D C37D -1.9 . .
C34D C35D C36D C37D -144.5 . .
C55D C36D C37D C38D -7.3 . .
C35D C36D C37D C38D 136.4 . .
C55D C36D C37D C18D -139.2 . .
C35D C36D C37D C18D 4.4 . .
C17D C18D C37D C36D -5.4 . .
C19D C18D C37D C36D 142.1 . .
C17D C18D C37D C38D -141.5 . .
C19D C18D C37D C38D 5.9 . .
C36D C37D C38D C57D 4.0 . .
C18D C37D C38D C57D 140.3 . .
C36D C37D C38D C39D -141.5 . .
C18D C37D C38D C39D -5.2 . .
C20D C19D C39D C40D -2.9 . .
C18D C19D C39D C40D -146.8 . .
C20D C19D C39D C38D 145.1 . .
C18D C19D C39D C38D 1.2 . .
C57D C38D C39D C19D -145.0 . .
C37D C38D C39D C19D 2.5 . .
C57D C38D C39D C40D 1.8 . .
C37D C38D C39D C40D 149.3 . .
C19D C39D C40D C41D -9.3 . .
C38D C39D C40D C41D -153.3 . .
C19D C39D C40D C69D 141.4 . .
C38D C39D C40D C69D -2.6 . .
C39D C40D C41D C21D 8.6 . .
C69D C40D C41D C21D -140.8 . .
C39D C40D C41D C42D 152.3 . .
C69D C40D C41D C42D 2.9 . .
C20D C21D C41D C40D 3.7 . .
C22D C21D C41D C40D 147.0 . .
C20D C21D C41D C42D -142.6 . .
C22D C21D C41D C42D 0.7 . .
C40D C41D C42D C43D -1.9 . .
C21D C41D C42D C43D 145.7 . .
C40D C41D C42D C23D -149.6 . .
C21D C41D C42D C23D -2.0 . .
C24D C23D C42D C43D 0.1 . .
C22D C23D C42D C43D -144.1 . .
C24D C23D C42D C41D 146.6 . .
C22D C23D C42D C41D 2.4 . .
C41D C42D C43D C70D -1.0 . .
C23D C42D C43D C70D 142.3 . .
C41D C42D C43D C44D -143.5 . .
C23D C42D C43D C44D -0.3 . .
C42D C43D C44D C62D 143.3 . .
C70D C43D C44D C62D -4.4 . .
C42D C43D C44D C45D 0.4 . .
C70D C43D C44D C45D -147.3 . .
C23D C24D C45D C44D 0.2 . .
C25D C24D C45D C44D 138.0 . .
C23D C24D C45D C46D -140.9 . .
C25D C24D C45D C46D -3.0 . .
C62D C44D C45D C24D -137.7 . .
C43D C44D C45D C24D -0.4 . .
C62D C44D C45D C46D 1.6 . .
C43D C44D C45D C46D 138.9 . .
C27D C26D C46D C47D 3.6 . .
C25D C26D C46D C47D -137.0 . .
C27D C26D C46D C45D 143.0 . .
C25D C26D C46D C45D 2.4 . .
C24D C45D C46D C47D 147.6 . .
C44D C45D C46D C47D 0.3 . .
C24D C45D C46D C26D 0.3 . .
C44D C45D C46D C26D -146.9 . .
C26D C46D C47D C63D 130.6 . .
C45D C46D C47D C63D -5.4 . .
C26D C46D C47D C48D -3.1 . .
C45D C46D C47D C48D -139.1 . .
C29D C28D C48D C49D 1.0 . .
C27D C28D C48D C49D -141.0 . .
C29D C28D C48D C47D 141.1 . .
C27D C28D C48D C47D -0.9 . .
C46D C47D C48D C28D 1.6 . .
C63D C47D C48D C28D -142.7 . .
C46D C47D C48D C49D 148.4 . .
C63D C47D C48D C49D 4.1 . .
C28D C48D C49D C50D -7.0 . .
C47D C48D C49D C50D -151.9 . .
C28D C48D C49D C64D 140.8 . .
C47D C48D C49D C64D -4.1 . .
C48D C49D C50D C30D 9.2 . .
C64D C49D C50D C30D -134.0 . .
C48D C49D C50D C51D 152.0 . .
C64D C49D C50D C51D 8.8 . .
C31D C30D C50D C49D 147.2 . .
C29D C30D C50D C49D -5.5 . .
C31D C30D C50D C51D 7.0 . .
C29D C30D C50D C51D -145.6 . .
C49D C50D C51D C52D -152.4 . .
C30D C50D C51D C52D -9.0 . .
C49D C50D C51D C66D -6.9 . .
C30D C50D C51D C66D 136.5 . .
C66D C51D C52D C32D -144.7 . .
C50D C51D C52D C32D 6.0 . .
C66D C51D C52D C53D 1.1 . .
C50D C51D C52D C53D 151.8 . .
C33D C32D C52D C51D 141.6 . .
C31D C32D C52D C51D -0.7 . .
C33D C32D C52D C53D -2.1 . .
C31D C32D C52D C53D -144.4 . .
C51D C52D C53D C54D -142.6 . .
C32D C52D C53D C54D 6.3 . .
C51D C52D C53D C67D -1.2 . .
C32D C52D C53D C67D 147.7 . .
C67D C53D C54D C34D -141.4 . .
C52D C53D C54D C34D -5.3 . .
C67D C53D C54D C55D 1.9 . .
C52D C53D C54D C55D 137.9 . .
C33D C34D C54D C53D 0.1 . .
C35D C34D C54D C53D 145.1 . .
C33D C34D C54D C55D -147.0 . .
C35D C34D C54D C55D -2.0 . .
C37D C36D C55D C56D 8.5 . .
C35D C36D C55D C56D -138.1 . .
C37D C36D C55D C54D 143.0 . .
C35D C36D C55D C54D -3.6 . .
C53D C54D C55D C56D -4.9 . .
C34D C54D C55D C56D 140.6 . .
C53D C54D C55D C36D -142.0 . .
C34D C54D C55D C36D 3.5 . .
C36D C55D C56D C68D 134.4 . .
C54D C55D C56D C68D 4.3 . .
C36D C55D C56D C57D -6.0 . .
C54D C55D C56D C57D -136.2 . .
C37D C38D C57D C58D -140.5 . .
C39D C38D C57D C58D 1.8 . .
C37D C38D C57D C56D -1.6 . .
C39D C38D C57D C56D 140.8 . .
C55D C56D C57D C38D 2.6 . .
C68D C56D C57D C38D -143.8 . .
C55D C56D C57D C58D 146.6 . .
C68D C56D C57D C58D 0.3 . .
C38D C57D C58D C69D -4.5 . .
C56D C57D C58D C69D -145.6 . .
C38D C57D C58D C59D 142.4 . .
C56D C57D C58D C59D 1.3 . .
C57D C58D C59D C60D -145.9 . .
C69D C58D C59D C60D 1.3 . .
C57D C58D C59D C68D -2.3 . .
C69D C58D C59D C68D 144.9 . .
C68D C59D C60D C61D -153.0 . .
C58D C59D C60D C61D -14.6 . .
C68D C59D C60D C65D 1.8 . .
C58D C59D C60D C65D 140.2 . .
C59D C60D C61D C62D 154.4 . .
C65D C60D C61D C62D 0.3 . .
C59D C60D C61D C70D 15.8 . .
C65D C60D C61D C70D -138.3 . .
C45D C44D C62D C63D 1.0 . .
C43D C44D C62D C63D -137.8 . .
C45D C44D C62D C61D 142.4 . .
C43D C44D C62D C61D 3.6 . .
C60D C61D C62D C63D -2.6 . .
C70D C61D C62D C63D 140.7 . .
C60D C61D C62D C44D -145.0 . .
C70D C61D C62D C44D -1.7 . .
C44D C62D C63D C47D -5.4 . .
C61D C62D C63D C47D -142.6 . .
C44D C62D C63D C64D 139.0 . .
C61D C62D C63D C64D 1.8 . .
C46D C47D C63D C62D 8.2 . .
C48D C47D C63D C62D 143.6 . .
C46D C47D C63D C64D -137.9 . .
C48D C47D C63D C64D -2.5 . .
C62D C63D C64D C65D 1.4 . .
C47D C63D C64D C65D 147.4 . .
C62D C63D C64D C49D -146.0 . .
C47D C63D C64D C49D 0.1 . .
C48D C49D C64D C63D 2.8 . .
C50D C49D C64D C63D 149.0 . .
C48D C49D C64D C65D -148.3 . .
C50D C49D C64D C65D -2.1 . .
C63D C64D C65D C66D -151.9 . .
C49D C64D C65D C66D -7.9 . .
C63D C64D C65D C60D -3.5 . .
C49D C64D C65D C60D 140.5 . .
C61D C60D C65D C66D 151.4 . .
C59D C60D C65D C66D -3.8 . .
C61D C60D C65D C64D 2.5 . .
C59D C60D C65D C64D -152.7 . .
C52D C51D C66D C65D 145.1 . .
C50D C51D C66D C65D -2.3 . .
C52D C51D C66D C67D -0.4 . .
C50D C51D C66D C67D -147.8 . .
C64D C65D C66D C51D 10.2 . .
C60D C65D C66D C51D -136.2 . .
C64D C65D C66D C67D 151.2 . .
C60D C65D C66D C67D 4.8 . .
C54D C53D C67D C68D 2.0 . .
C52D C53D C67D C68D -141.1 . .
C54D C53D C67D C66D 144.0 . .
C52D C53D C67D C66D 0.9 . .
C51D C66D C67D C68D 141.6 . .
C65D C66D C67D C68D -3.7 . .
C51D C66D C67D C53D -0.4 . .
C65D C66D C67D C53D -145.7 . .
C53D C67D C68D C56D -2.6 . .
C66D C67D C68D C56D -140.2 . .
C53D C67D C68D C59D 139.2 . .
C66D C67D C68D C59D 1.6 . .
C55D C56D C68D C67D -0.7 . .
C57D C56D C68D C67D 144.7 . .
C55D C56D C68D C59D -147.1 . .
C57D C56D C68D C59D -1.7 . .
C60D C59D C68D C67D -0.8 . .
C58D C59D C68D C67D -142.9 . .
C60D C59D C68D C56D 144.6 . .
C58D C59D C68D C56D 2.5 . .
C57D C58D C69D C70D 153.1 . .
C59D C58D C69D C70D 10.5 . .
C57D C58D C69D C40D 3.4 . .
C59D C58D C69D C40D -139.1 . .
C41D C40D C69D C70D -1.1 . .
C39D C40D C69D C70D -150.4 . .
C41D C40D C69D C58D 149.3 . .
C39D C40D C69D C58D 0.0 . .
C58D C69D C70D C43D -152.1 . .
C40D C69D C70D C43D -1.8 . .
C58D C69D C70D C61D -9.4 . .
C40D C69D C70D C61D 140.9 . .
C42D C43D C70D C69D 2.9 . .
C44D C43D C70D C69D 149.4 . .
C42D C43D C70D C61D -143.2 . .
C44D C43D C70D C61D 3.2 . .
C60D C61D C70D C69D -3.5 . .
C62D C61D C70D C69D -148.3 . .
C60D C61D C70D C43D 143.7 . .
C62D C61D C70D C43D -1.0 . .
C6D' C1D' C2D' C3D' -5.2(16) . .
C9D' C1D' C2D' C3D' -150.1(11) . .
C6D' C1D' C2D' C12' 137.2(11) . .
C9D' C1D' C2D' C12' -7.6(15) . .
C1D' C2D' C3D' C15' 152.4(11) . .
C12' C2D' C3D' C15' 10.3(16) . .
C1D' C2D' C3D' C4D' 8.3(16) . .
C12' C2D' C3D' C4D' -133.8(12) . .
C15' C3D' C4D' C17' 3.3(14) . .
C2D' C3D' C4D' C17' 150.3(11) . .
C15' C3D' C4D' C5D' -150.1(12) . .
C2D' C3D' C4D' C5D' -3.0(18) . .
C17' C4D' C5D' C6D' -155.9(11) . .
C3D' C4D' C5D' C6D' -6.0(17) . .
C17' C4D' C5D' C20' -11.5(16) . .
C3D' C4D' C5D' C20' 138.5(12) . .
C4D' C5D' C6D' C1D' 9.2(15) . .
C20' C5D' C6D' C1D' -131.6(11) . .
C4D' C5D' C6D' C7D' 146.9(11) . .
C20' C5D' C6D' C7D' 6.1(15) . .
C2D' C1D' C6D' C5D' -3.9(16) . .
C9D' C1D' C6D' C5D' 144.1(11) . .
C2D' C1D' C6D' C7D' -145.7(11) . .
C9D' C1D' C6D' C7D' 2.2(12) . .
C5D' C6D' C7D' C22' -2.0(16) . .
C1D' C6D' C7D' C22' 141.2(11) . .
C5D' C6D' C7D' C8D' -146.4(10) . .
C1D' C6D' C7D' C8D' -3.2(12) . .
C22' C7D' C8D' C25' -1.7(16) . .
C6D' C7D' C8D' C25' 143.8(11) . .
C22' C7D' C8D' C9D' -142.6(11) . .
C6D' C7D' C8D' C9D' 3.0(12) . .
C25' C8D' C9D' C10' -4.4(15) . .
C7D' C8D' C9D' C10' 140.5(11) . .
C25' C8D' C9D' C1D' -146.5(10) . .
C7D' C8D' C9D' C1D' -1.6(12) . .
C2D' C1D' C9D' C10' 5.6(16) . .
C6D' C1D' C9D' C10' -143.5(11) . .
C2D' C1D' C9D' C8D' 148.8(11) . .
C6D' C1D' C9D' C8D' -0.4(12) . .
C8D' C9D' C10' C11' -135.3(11) . .
C1D' C9D' C10' C11' 1.2(16) . .
C8D' C9D' C10' C27' 4.5(15) . .
C1D' C9D' C10' C27' 141.0(10) . .
C9D' C10' C11' C29' 141.2(12) . .
C27' C10' C11' C29' -3.2(13) . .
C9D' C10' C11' C12' -5.0(16) . .
C27' C10' C11' C12' -149.4(11) . .
C29' C11' C12' C13' 14.1(16) . .
C10' C11' C12' C13' 156.6(10) . .
C29' C11' C12' C2D' -140.0(12) . .
C10' C11' C12' C2D' 2.5(17) . .
C3D' C2D' C12' C11' 145.5(12) . .
C1D' C2D' C12' C11' 3.7(17) . .
C3D' C2D' C12' C13' -5.6(17) . .
C1D' C2D' C12' C13' -147.4(12) . .
C11' C12' C13' C31' -16.2(16) . .
C2D' C12' C13' C31' 138.6(12) . .
C11' C12' C13' C14' -155.5(10) . .
C2D' C12' C13' C14' -0.7(16) . .
C31' C13' C14' C15' -142.6(11) . .
C12' C13' C14' C15' 2.7(15) . .
C31' C13' C14' C33' 1.3(12) . .
C12' C13' C14' C33' 146.6(10) . .
C2D' C3D' C15' C14' -9.0(17) . .
C4D' C3D' C15' C14' 138.1(11) . .
C2D' C3D' C15' C16' -148.4(11) . .
C4D' C3D' C15' C16' -1.3(13) . .
C13' C14' C15' C3D' 2.0(17) . .
C33' C14' C15' C3D' -136.1(11) . .
C13' C14' C15' C16' 139.2(10) . .
C33' C14' C15' C16' 1.1(14) . .
C3D' C15' C16' C35' 144.5(12) . .
C14' C15' C16' C35' 0.4(15) . .
C3D' C15' C16' C17' -0.9(12) . .
C14' C15' C16' C17' -145.0(10) . .
C5D' C4D' C17' C18' 12.1(18) . .
C3D' C4D' C17' C18' -141.9(11) . .
C5D' C4D' C17' C16' 150.2(11) . .
C3D' C4D' C17' C16' -3.8(13) . .
C35' C16' C17' C18' -1.4(14) . .
C15' C16' C17' C18' 145.9(10) . .
C35' C16' C17' C4D' -144.3(11) . .
C15' C16' C17' C4D' 2.9(12) . .
C4D' C17' C18' C37' 139.9(11) . .
C16' C17' C18' C37' 3.7(15) . .
C4D' C17' C18' C19' -6.6(16) . .
C16' C17' C18' C19' -142.9(10) . .
C17' C18' C19' C20' 2.3(16) . .
C37' C18' C19' C20' -149.6(11) . .
C17' C18' C19' C39' 147.2(10) . .
C37' C18' C19' C39' -4.7(11) . .
C39' C19' C20' C21' 16.3(19) . .
C18' C19' C20' C21' 152.9(11) . .
C39' C19' C20' C5D' -139.8(12) . .
C18' C19' C20' C5D' -3.2(18) . .
C4D' C5D' C20' C19' 7.7(18) . .
C6D' C5D' C20' C19' 149.7(13) . .
C4D' C5D' C20' C21' -149.0(12) . .
C6D' C5D' C20' C21' -7.0(16) . .
C19' C20' C21' C41' -17.8(17) . .
C5D' C20' C21' C41' 140.7(11) . .
C19' C20' C21' C22' -154.6(11) . .
C5D' C20' C21' C22' 3.9(16) . .
C8D' C7D' C22' C23' 3.3(15) . .
C6D' C7D' C22' C23' -137.8(10) . .
C8D' C7D' C22' C21' 140.0(10) . .
C6D' C7D' C22' C21' -1.1(16) . .
C20' C21' C22' C7D' -0.2(16) . .
C41' C21' C22' C7D' -140.5(11) . .
C20' C21' C22' C23' 142.3(11) . .
C41' C21' C22' C23' 2.0(12) . .
C7D' C22' C23' C24' -4.2(15) . .
C21' C22' C23' C24' -146.8(10) . .
C7D' C22' C23' C42' 139.7(11) . .
C21' C22' C23' C42' -2.8(12) . .
C42' C23' C24' C45' 0.3(14) . .
C22' C23' C24' C45' 139.7(10) . .
C42' C23' C24' C25' -136.1(10) . .
C22' C23' C24' C25' 3.2(14) . .
C7D' C8D' C25' C24' 0.9(15) . .
C9D' C8D' C25' C24' 139.8(9) . .
C7D' C8D' C25' C26' -133.7(10) . .
C9D' C8D' C25' C26' 5.2(14) . .
C45' C24' C25' C8D' -138.9(10) . .
C23' C24' C25' C8D' -1.6(14) . .
C45' C24' C25' C26' 4.3(12) . .
C23' C24' C25' C26' 141.6(10) . .
C8D' C25' C26' C27' -6.2(15) . .
C24' C25' C26' C27' -145.4(9) . .
C8D' C25' C26' C46' 135.5(11) . .
C24' C25' C26' C46' -3.6(11) . .
C46' C26' C27' C28' -2.3(14) . .
C25' C26' C27' C28' 137.1(9) . .
C46' C26' C27' C10' -133.5(10) . .
C25' C26' C27' C10' 5.8(13) . .
C9D' C10' C27' C26' -5.4(15) . .
C11' C10' C27' C26' 141.4(10) . .
C9D' C10' C27' C28' -141.9(11) . .
C11' C10' C27' C28' 4.9(11) . .
C26' C27' C28' C48' -0.1(14) . .
C10' C27' C28' C48' 137.6(11) . .
C26' C27' C28' C29' -142.8(10) . .
C10' C27' C28' C29' -5.1(11) . .
C12' C11' C29' C30' -0.5(17) . .
C10' C11' C29' C30' -143.8(11) . .
C12' C11' C29' C28' 143.4(12) . .
C10' C11' C29' C28' 0.1(13) . .
C48' C28' C29' C30' 3.0(16) . .
C27' C28' C29' C30' 147.5(11) . .
C48' C28' C29' C11' -141.2(11) . .
C27' C28' C29' C11' 3.2(12) . .
C11' C29' C30' C31' -13.6(17) . .
C28' C29' C30' C31' -152.2(11) . .
C11' C29' C30' C50' 137.6(12) . .
C28' C29' C30' C50' -1.0(17) . .
C29' C30' C31' C13' 12.0(17) . .
C50' C30' C31' C13' -139.3(11) . .
C29' C30' C31' C32' 150.6(11) . .
C50' C30' C31' C32' -0.7(17) . .
C14' C13' C31' C30' 143.2(11) . .
C12' C13' C31' C30' 3.5(17) . .
C14' C13' C31' C32' 0.3(13) . .
C12' C13' C31' C32' -139.4(11) . .
C30' C31' C32' C52' -0.3(16) . .
C13' C31' C32' C52' 143.2(11) . .
C30' C31' C32' C33' -145.6(11) . .
C13' C31' C32' C33' -2.0(13) . .
C52' C32' C33' C34' -2.0(16) . .
C31' C32' C33' C34' 145.1(11) . .
C52' C32' C33' C14' -144.3(10) . .
C31' C32' C33' C14' 2.8(12) . .
C15' C14' C33' C34' -1.0(15) . .
C13' C14' C33' C34' -146.1(11) . .
C15' C14' C33' C32' 142.6(11) . .
C13' C14' C33' C32' -2.4(11) . .
C32' C33' C34' C54' 3.9(17) . .
C14' C33' C34' C54' 141.2(10) . .
C32' C33' C34' C35' -137.9(11) . .
C14' C33' C34' C35' -0.5(16) . .
C17' C16' C35' C36' 0.2(16) . .
C15' C16' C35' C36' -139.7(10) . .
C17' C16' C35' C34' 138.0(10) . .
C15' C16' C35' C34' -1.9(16) . .
C33' C34' C35' C16' 1.9(16) . .
C54' C34' C35' C16' -145.4(11) . .
C33' C34' C35' C36' 146.1(11) . .
C54' C34' C35' C36' -1.2(12) . .
C16' C35' C36' C55' 144.5(11) . .
C34' C35' C36' C55' 2.5(12) . .
C16' C35' C36' C37' -1.1(15) . .
C34' C35' C36' C37' -143.0(10) . .
C55' C36' C37' C38' -5.4(14) . .
C35' C36' C37' C38' 136.9(10) . .
C55' C36' C37' C18' -139.2(10) . .
C35' C36' C37' C18' 3.0(14) . .
C17' C18' C37' C36' -4.7(15) . .
C19' C18' C37' C36' 144.7(9) . .
C17' C18' C37' C38' -142.6(11) . .
C19' C18' C37' C38' 6.8(11) . .
C36' C37' C38' C57' 2.9(14) . .
C18' C37' C38' C57' 140.5(10) . .
C36' C37' C38' C39' -143.6(9) . .
C18' C37' C38' C39' -6.1(11) . .
C20' C19' C39' C40' -2.9(16) . .
C18' C19' C39' C40' -143.9(10) . .
C20' C19' C39' C38' 142.0(12) . .
C18' C19' C39' C38' 1.0(12) . .
C57' C38' C39' C19' -144.2(10) . .
C37' C38' C39' C19' 3.1(12) . .
C57' C38' C39' C40' -0.1(15) . .
C37' C38' C39' C40' 147.3(10) . .
C19' C39' C40' C41' -8.0(15) . .
C38' C39' C40' C41' -149.7(11) . .
C19' C39' C40' C69' 139.3(10) . .
C38' C39' C40' C69' -2.4(15) . .
C39' C40' C41' C21' 5.6(17) . .
C69' C40' C41' C21' -139.9(12) . .
C39' C40' C41' C42' 153.1(11) . .
C69' C40' C41' C42' 7.7(17) . .
C20' C21' C41' C40' 7.3(17) . .
C22' C21' C41' C40' 149.7(12) . .
C20' C21' C41' C42' -142.9(12) . .
C22' C21' C41' C42' -0.4(13) . .
C40' C41' C42' C43' -5.2(18) . .
C21' C41' C42' C43' 147.1(12) . .
C40' C41' C42' C23' -153.6(12) . .
C21' C41' C42' C23' -1.4(14) . .
C24' C23' C42' C43' -0.2(17) . .
C22' C23' C42' C43' -143.7(12) . .
C24' C23' C42' C41' 146.2(11) . .
C22' C23' C42' C41' 2.7(13) . .
C41' C42' C43' C70' 0.2(18) . .
C23' C42' C43' C70' 144.1(12) . .
C41' C42' C43' C44' -144.0(11) . .
C23' C42' C43' C44' -0.2(18) . .
C42' C43' C44' C62' 145.5(12) . .
C70' C43' C44' C62' -4.0(13) . .
C42' C43' C44' C45' 0.4(15) . .
C70' C43' C44' C45' -149.1(11) . .
C23' C24' C45' C44' -0.1(16) . .
C25' C24' C45' C44' 139.2(11) . .
C23' C24' C45' C46' -142.7(9) . .
C25' C24' C45' C46' -3.5(12) . .
C62' C44' C45' C24' -139.3(11) . .
C43' C44' C45' C24' -0.3(16) . .
C62' C44' C45' C46' 1.4(15) . .
C43' C44' C45' C46' 140.4(10) . .
C27' C26' C46' C47' 5.2(17) . .
C25' C26' C46' C47' -136.0(12) . .
C27' C26' C46' C45' 142.8(10) . .
C25' C26' C46' C45' 1.6(11) . .
C24' C45' C46' C47' 148.1(10) . .
C44' C45' C46' C47' -0.7(13) . .
C24' C45' C46' C26' 1.1(12) . .
C44' C45' C46' C26' -147.7(10) . .
C26' C46' C47' C63' 131.1(12) . .
C45' C46' C47' C63' -3.9(16) . .
C26' C46' C47' C48' -4.4(16) . .
C45' C46' C47' C48' -139.4(9) . .
C29' C28' C48' C49' 1.1(17) . .
C27' C28' C48' C49' -139.4(11) . .
C29' C28' C48' C47' 141.1(10) . .
C27' C28' C48' C47' 0.6(16) . .
C46' C47' C48' C28' 1.4(14) . .
C63' C47' C48' C28' -144.9(11) . .
C46' C47' C48' C49' 149.2(11) . .
C63' C47' C48' C49' 2.9(12) . .
C28' C48' C49' C50' -7.0(18) . .
C47' C48' C49' C50' -152.3(10) . .
C28' C48' C49' C64' 141.6(12) . .
C47' C48' C49' C64' -3.7(13) . .
C48' C49' C50' C30' 8.7(16) . .
C64' C49' C50' C30' -136.3(12) . .
C48' C49' C50' C51' 154.0(11) . .
C64' C49' C50' C51' 9.1(15) . .
C31' C30' C50' C49' 145.9(12) . .
C29' C30' C50' C49' -4.9(16) . .
C31' C30' C50' C51' 4.7(17) . .
C29' C30' C50' C51' -146.1(11) . .
C49' C50' C51' C52' -151.9(11) . .
C30' C50' C51' C52' -7.5(16) . .
C49' C50' C51' C66' -6.4(16) . .
C30' C50' C51' C66' 138.0(12) . .
C66' C51' C52' C32' -145.1(11) . .
C50' C51' C52' C32' 6.6(16) . .
C66' C51' C52' C53' -0.5(13) . .
C50' C51' C52' C53' 151.3(10) . .
C33' C32' C52' C51' 140.6(11) . .
C31' C32' C52' C51' -3.0(17) . .
C33' C32' C52' C53' -1.5(15) . .
C31' C32' C52' C53' -145.1(10) . .
C51' C52' C53' C54' -143.5(11) . .
C32' C52' C53' C54' 3.6(16) . .
C51' C52' C53' C67' -0.4(13) . .
C32' C52' C53' C67' 146.6(11) . .
C67' C53' C54' C34' -140.7(10) . .
C52' C53' C54' C34' -2.0(16) . .
C67' C53' C54' C55' -0.1(16) . .
C52' C53' C54' C55' 138.6(10) . .
C33' C34' C54' C53' -1.8(16) . .
C35' C34' C54' C53' 144.7(10) . .
C33' C34' C54' C55' -146.9(11) . .
C35' C34' C54' C55' -0.5(12) . .
C37' C36' C55' C56' 6.3(15) . .
C35' C36' C55' C56' -138.4(10) . .
C37' C36' C55' C54' 142.0(10) . .
C35' C36' C55' C54' -2.8(12) . .
C53' C54' C55' C56' -2.0(15) . .
C34' C54' C55' C56' 140.2(10) . .
C53' C54' C55' C36' -140.2(11) . .
C34' C54' C55' C36' 2.0(12) . .
C36' C55' C56' C68' 133.3(10) . .
C54' C55' C56' C68' 2.2(14) . .
C36' C55' C56' C57' -4.5(14) . .
C54' C55' C56' C57' -135.6(9) . .
C37' C38' C57' C58' -139.6(10) . .
C39' C38' C57' C58' 2.5(15) . .
C37' C38' C57' C56' -1.2(14) . .
C39' C38' C57' C56' 140.9(9) . .
C55' C56' C57' C38' 1.9(14) . .
C68' C56' C57' C38' -141.4(10) . .
C55' C56' C57' C58' 145.6(10) . .
C68' C56' C57' C58' 2.2(12) . .
C38' C57' C58' C69' -2.2(15) . .
C56' C57' C58' C69' -143.2(10) . .
C38' C57' C58' C59' 141.7(10) . .
C56' C57' C58' C59' 0.7(12) . .
C57' C58' C59' C60' -143.6(10) . .
C69' C58' C59' C60' -0.3(14) . .
C57' C58' C59' C68' -3.4(12) . .
C69' C58' C59' C68' 139.9(10) . .
C68' C59' C60' C61' -147.0(11) . .
C58' C59' C60' C61' -11.6(16) . .
C68' C59' C60' C65' 3.0(15) . .
C58' C59' C60' C65' 138.4(10) . .
C59' C60' C61' C62' 155.3(11) . .
C65' C60' C61' C62' 4.6(17) . .
C59' C60' C61' C70' 11.8(17) . .
C65' C60' C61' C70' -138.8(11) . .
C45' C44' C62' C63' 2.1(16) . .
C43' C44' C62' C63' -138.7(11) . .
C45' C44' C62' C61' 142.7(11) . .
C43' C44' C62' C61' 1.9(12) . .
C60' C61' C62' C63' -7.2(17) . .
C70' C61' C62' C63' 140.6(11) . .
C60' C61' C62' C44' -147.2(12) . .
C70' C61' C62' C44' 0.5(12) . .
C44' C62' C63' C47' -6.2(16) . .
C61' C62' C63' C47' -142.1(11) . .
C44' C62' C63' C64' 138.5(11) . .
C61' C62' C63' C64' 2.6(15) . .
C46' C47' C63' C62' 7.8(18) . .
C48' C47' C63' C62' 144.4(11) . .
C46' C47' C63' C64' -137.6(12) . .
C48' C47' C63' C64' -1.0(14) . .
C62' C63' C64' C65' 4.2(19) . .
C47' C63' C64' C65' 150.6(13) . .
C62' C63' C64' C49' -147.6(11) . .
C47' C63' C64' C49' -1.2(14) . .
C48' C49' C64' C63' 3.3(14) . .
C50' C49' C64' C63' 150.2(12) . .
C48' C49' C64' C65' -151.3(12) . .
C50' C49' C64' C65' -4.4(18) . .
C63' C64' C65' C66' -152.5(12) . .
C49' C64' C65' C66' -4.8(17) . .
C63' C64' C65' C60' -6.4(18) . .
C49' C64' C65' C60' 141.3(11) . .
C61' C60' C65' C66' 147.3(12) . .
C59' C60' C65' C66' -3.9(16) . .
C61' C60' C65' C64' 1.6(15) . .
C59' C60' C65' C64' -149.6(11) . .
C52' C51' C66' C65' 145.1(11) . .
C50' C51' C66' C65' -2.1(17) . .
C52' C51' C66' C67' 1.2(13) . .
C50' C51' C66' C67' -146.0(11) . .
C64' C65' C66' C51' 7.8(16) . .
C60' C65' C66' C51' -136.5(11) . .
C64' C65' C66' C67' 148.1(11) . .
C60' C65' C66' C67' 3.7(15) . .
C54' C53' C67' C68' 2.2(15) . .
C52' C53' C67' C68' -143.2(11) . .
C54' C53' C67' C66' 146.5(10) . .
C52' C53' C67' C66' 1.1(12) . .
C51' C66' C67' C68' 141.6(11) . .
C65' C66' C67' C68' -2.9(16) . .
C51' C66' C67' C53' -1.4(12) . .
C65' C66' C67' C53' -146.0(11) . .
C53' C67' C68' C56' -2.1(16) . .
C66' C67' C68' C56' -140.6(10) . .
C53' C67' C68' C59' 140.4(10) . .
C66' C67' C68' C59' 2.0(16) . .
C55' C56' C68' C67' -0.2(16) . .
C57' C56' C68' C67' 142.6(11) . .
C55' C56' C68' C59' -147.1(10) . .
C57' C56' C68' C59' -4.3(11) . .
C60' C59' C68' C67' -2.1(15) . .
C58' C59' C68' C67' -141.7(11) . .
C60' C59' C68' C56' 144.4(10) . .
C58' C59' C68' C56' 4.8(12) . .
C57' C58' C69' C70' 151.2(11) . .
C59' C58' C69' C70' 12.0(16) . .
C57' C58' C69' C40' -0.5(16) . .
C59' C58' C69' C40' -139.8(11) . .
C41' C40' C69' C70' -5.1(16) . .
C39' C40' C69' C70' -149.9(11) . .
C41' C40' C69' C58' 147.5(12) . .
C39' C40' C69' C58' 2.7(16) . .
C58' C69' C70' C43' -153.2(11) . .
C40' C69' C70' C43' 0.2(17) . .
C58' C69' C70' C61' -11.9(17) . .
C40' C69' C70' C61' 141.5(11) . .
C42' C43' C70' C69' 2.3(19) . .
C44' C43' C70' C69' 149.4(12) . .
C42' C43' C70' C61' -143.0(12) . .
C44' C43' C70' C61' 4.2(13) . .
C60' C61' C70' C69' 0.2(17) . .
C62' C61' C70' C69' -149.2(11) . .
C60' C61' C70' C43' 146.4(12) . .
C62' C61' C70' C43' -3.0(13) . .
