#------------------------------------------------------------------------------
#$Date: 2017-10-31 05:27:58 +0200 (Tue, 31 Oct 2017) $
#$Revision: 202440 $
#$URL: file:///home/coder/svn-repositories/cod/cif/7/22/94/7229429.cif $
#------------------------------------------------------------------------------
#
# This file is available in the Crystallography Open Database (COD),
# http://www.crystallography.net/
#
# All data on this site have been placed in the public domain by the
# contributors.
#
data_7229429
loop_
_publ_author_name
'Goswami, Soumyabrata'
'Tripuramallu, Bharat Kumar'
'Goldberg, Israel'
_publ_section_title
;
 New meso-substituted trans-A2B2 porphyrins: Synthesis and structure of
 their metal-mediated supramolecular assemblies&#x2020;
;
_journal_name_full               CrystEngComm
_journal_paper_doi               10.1039/C7CE01642E
_journal_year                    2017
_chemical_formula_moiety         'C62 H34 Mn N6'
_chemical_formula_sum            'C62 H34 Mn N6'
_chemical_formula_weight         917.89
_chemical_properties_physical    Air-sensitive,Moisture-sensitive
_space_group_crystal_system      monoclinic
_space_group_IT_number           14
_space_group_name_Hall           '-P 2yn'
_space_group_name_H-M_alt        'P 1 21/n 1'
_symmetry_space_group_name_Hall  '-P 2yn'
_symmetry_space_group_name_H-M   'P 1 21/n 1'
_atom_sites_solution_hydrogens   geom
_atom_sites_solution_primary     direct
_atom_sites_solution_secondary   difmap
_audit_creation_method           SHELXL-2014/7
_audit_update_record
;
2017-09-11 deposited with the CCDC.
2017-10-30 downloaded from the CCDC.
;
_cell_angle_alpha                90
_cell_angle_beta                 103.001(2)
_cell_angle_gamma                90
_cell_formula_units_Z            4
_cell_length_a                   16.8700(14)
_cell_length_b                   13.4875(10)
_cell_length_c                   21.6035(17)
_cell_measurement_reflns_used    3709
_cell_measurement_temperature    110(2)
_cell_measurement_theta_max      23.3
_cell_measurement_theta_min      1.74
_cell_volume                     4789.5(7)
_computing_cell_refinement       'Saint, Bruker-AXS'
_computing_data_collection       'Apex2, Bruker-AXS'
_computing_data_reduction        'Saint, Bruker-AXS'
_computing_structure_refinement  'SHELXL-2014/7 (Sheldrick, 2015)'
_computing_structure_solution    'SHELXT-2014 (Sheldrick, 2015)'
_diffrn_ambient_temperature      110(2)
_diffrn_detector_area_resol_mean 1.75
_diffrn_measured_fraction_theta_full 0.994
_diffrn_measured_fraction_theta_max 0.994
_diffrn_measurement_device_type  'ApexDuo, Bruker-AXS'
_diffrn_measurement_method       '1 deg. \f and \w scans'
_diffrn_radiation_type           MoK\a
_diffrn_radiation_wavelength     0.71073
_diffrn_reflns_av_R_equivalents  0.0867
_diffrn_reflns_av_unetI/netI     0.1328
_diffrn_reflns_Laue_measured_fraction_full 0.994
_diffrn_reflns_Laue_measured_fraction_max 0.994
_diffrn_reflns_limit_h_max       18
_diffrn_reflns_limit_h_min       -18
_diffrn_reflns_limit_k_max       14
_diffrn_reflns_limit_k_min       -12
_diffrn_reflns_limit_l_max       15
_diffrn_reflns_limit_l_min       -24
_diffrn_reflns_number            14148
_diffrn_reflns_point_group_measured_fraction_full 0.994
_diffrn_reflns_point_group_measured_fraction_max 0.994
_diffrn_reflns_theta_full        23.289
_diffrn_reflns_theta_max         23.289
_diffrn_reflns_theta_min         1.735
_diffrn_source                   'ImuS micro-focus'
_exptl_absorpt_coefficient_mu    0.323
_exptl_absorpt_correction_T_max  0.953
_exptl_absorpt_correction_T_min  0.918
_exptl_absorpt_correction_type   multi-scan
_exptl_absorpt_process_details   'Sadabs, Bruker-AXS'
_exptl_crystal_colour            red
_exptl_crystal_density_diffrn    1.273
_exptl_crystal_description       prism
_exptl_crystal_F_000             1892
_exptl_crystal_size_max          0.270
_exptl_crystal_size_mid          0.240
_exptl_crystal_size_min          0.150
_refine_diff_density_max         0.779
_refine_diff_density_min         -0.448
_refine_diff_density_rms         0.093
_refine_ls_extinction_method     none
_refine_ls_goodness_of_fit_ref   1.154
_refine_ls_hydrogen_treatment    constr
_refine_ls_matrix_type           full
_refine_ls_number_parameters     622
_refine_ls_number_reflns         6852
_refine_ls_number_restraints     0
_refine_ls_restrained_S_all      1.154
_refine_ls_R_factor_all          0.1444
_refine_ls_R_factor_gt           0.0773
_refine_ls_shift/su_max          0.003
_refine_ls_shift/su_mean         0.000
_refine_ls_structure_factor_coef Fsqd
_refine_ls_weighting_details
'w=1/[\s^2^(Fo^2^)+(0.1000P)^2^] where P=(Fo^2^+2Fc^2^)/3'
_refine_ls_weighting_scheme      calc
_refine_ls_wR_factor_gt          0.1945
_refine_ls_wR_factor_ref         0.2263
_reflns_Friedel_coverage         0.000
_reflns_number_gt                3709
_reflns_number_total             6852
_reflns_threshold_expression     'I > 2\s(I)'
_cod_data_source_file            c7ce01642e2.cif
_cod_data_source_block           gs30_sq
_cod_database_code               7229429
_shelx_shelxl_version_number     2014/7
_shelx_space_group_comment
;
The symmetry employed for this shelxl refinement is uniquely defined
by the following loop, which should always be used as a source of
symmetry information in preference to the above space-group names.
They are only intended as comments.
;
_shelx_estimated_absorpt_t_min   0.918
_shelx_estimated_absorpt_t_max   0.953
_platon_squeeze_void_probe_radius 1.20
_shelx_res_file
;

    gs30_sq.res created by SHELXL-2014/7


TITL mo_gs30_01_a.res in P2(1)/n
REM Old TITL mo_gs30_01 in P2(1)/n

REM SHELXT solution in P2(1)/n
REM R1 0.224,  Rweak 0.002,  Alpha 0.036,  Orientation as input
REM Formula found by SHELXT:  C66 N4 O3 Mn

CELL  0.71073  16.8700  13.4875  21.6035   90.000  103.001   90.000
ZERR    4.000   0.0014   0.0010   0.0017    0.000    0.002    0.000
LATT  1
SYMM 1/2-X, 1/2+Y, 1/2-Z
SFAC C H N MN
UNIT 248 136 24 4
TEMP -163.00
size 0.27 0.24 0.15
L.S. 5 0   52
BOND $H
FMAP 2
list 4
PLAN -20
acta
ABIN
omit -1 4 15
omit -11 0 9
omit -12 0 6
omit 2 4 14
omit -1 0 1
omit -11 0 7
omit -10 2 11
WGHT    0.100000
FVAR       0.25665
MN01  4    0.342729    0.366059    0.415229    11.00000    0.01896    0.02106 =
         0.01731    0.00106    0.00862   -0.00550
N1    3    0.395574    0.480797    0.376508    11.00000    0.03750    0.04910 =
         0.05036    0.00402    0.00696   -0.00497
N2    3    0.233280    0.443295    0.390811    11.00000    0.04616    0.04736 =
         0.04191    0.01198    0.01014   -0.00728
N3    3    0.293130    0.282268    0.477077    11.00000    0.02781    0.06001 =
         0.03854    0.00428    0.00780   -0.00335
N4    3    0.183694    0.766179    0.164470    11.00000    0.03619    0.04951 =
         0.03129    0.00104    0.01826    0.00848
N5    3    0.454785    0.324632    0.467031    11.00000    0.03366    0.04970 =
         0.03834    0.00337    0.01056   -0.00781
N6    3    0.510725   -0.039340    0.667593    11.00000    0.07109    0.06514 =
         0.06948    0.01315    0.02138   -0.00288
C1    1    0.241627    0.638253    0.266356    11.00000    0.04389    0.04333 =
         0.03465    0.00320    0.01125   -0.00261
C2    1    0.356254    0.550485    0.333951    11.00000    0.04129    0.03989 =
         0.05241    0.00255    0.01715   -0.00208
C3    1    0.477486    0.485969    0.374943    11.00000    0.03831    0.05048 =
         0.04714    0.00603    0.01186   -0.00454
C4    1    0.014397    0.252319    0.417958    11.00000    0.04000    0.04282 =
         0.04159    0.00817    0.00793   -0.00474
C5    1    0.216042    0.518562    0.347241    11.00000    0.03084    0.05310 =
         0.03805   -0.00497    0.01309   -0.00651
C6    1    0.332015    0.210241    0.518356    11.00000    0.03820    0.05394 =
         0.04639    0.00121    0.01960   -0.00848
C7    1    0.159875    0.415287    0.403641    11.00000    0.04811    0.04950 =
         0.05070    0.01091    0.02254   -0.00810
C8    1    0.530039    0.356417    0.456288    11.00000    0.03668    0.05488 =
         0.03691    0.00354    0.01366    0.00050
C9    1    0.274025    0.567849    0.319357    11.00000    0.04731    0.04043 =
         0.04041   -0.00383    0.00825   -0.00474
C10   1    0.211275    0.276115    0.478996    11.00000    0.04317    0.05538 =
         0.04824    0.01214    0.01351   -0.00323
C11   1   -0.064493    0.232486    0.427667    11.00000    0.03130    0.04962 =
         0.05042    0.01456    0.00630   -0.00354
C12   1    0.473195    0.250656    0.512096    11.00000    0.03580    0.04830 =
         0.04545    0.00560    0.02354   -0.00473
C13   1    0.414742    0.601803    0.305916    11.00000    0.04996    0.05454 =
         0.05627    0.00775    0.02701   -0.00878
AFIX  43
H13   2    0.403260    0.653640    0.275438    11.00000   -1.20000
AFIX   0
C14   1    0.129264    0.539021    0.332285    11.00000    0.04457    0.06033 =
         0.04773    0.00233    0.01221    0.00340
AFIX  43
H14   2    0.101065    0.587608    0.303810    11.00000   -1.20000
AFIX   0
C15   1    0.490349    0.561783    0.331491    11.00000    0.04027    0.06133 =
         0.06618    0.01762    0.01992   -0.00773
AFIX  43
H15   2    0.540711    0.580571    0.322232    11.00000   -1.20000
AFIX   0
C16   1    0.561340    0.237270    0.529529    11.00000    0.03342    0.06932 =
         0.05887    0.00836    0.02354    0.00406
AFIX  43
H16   2    0.590139    0.190497    0.559101    11.00000   -1.20000
AFIX   0
C17   1    0.273616    0.158380    0.545743    11.00000    0.04613    0.05369 =
         0.05663    0.01455    0.01659   -0.00941
AFIX  43
H17   2    0.284950    0.105553    0.575512    11.00000   -1.20000
AFIX   0
C18   1    0.719503    0.379881    0.332362    11.00000    0.04782    0.07390 =
         0.04975    0.02258    0.00673    0.00157
C19   1    0.640889    0.373630    0.348593    11.00000    0.04253    0.06567 =
         0.04097    0.01569    0.00989    0.00566
C20   1    0.622421    0.432859    0.396521    11.00000    0.03920    0.06519 =
         0.04127    0.00404    0.01139   -0.01332
C21   1    0.539673    0.427169    0.410769    11.00000    0.03823    0.05657 =
         0.04446    0.00479    0.01097   -0.01029
C22   1    0.150750    0.338351    0.444377    11.00000    0.04057    0.06043 =
         0.05835    0.00946    0.01994   -0.00721
C23   1    0.417084    0.196417    0.535689    11.00000    0.06459    0.03848 =
         0.04815    0.00288    0.01283   -0.00124
C24   1    0.038471    0.195854    0.367502    11.00000    0.05901    0.05778 =
         0.05783   -0.00419    0.01155   -0.01640
AFIX  43
H24   2    0.090276    0.207150    0.358429    11.00000   -1.20000
AFIX   0
C25   1   -0.011396    0.128554    0.333958    11.00000    0.06373    0.06213 =
         0.04873   -0.00485    0.03207   -0.01292
AFIX  43
H25   2    0.005926    0.092611    0.301555    11.00000   -1.20000
AFIX   0
C26   1    0.448897    0.113933    0.580772    11.00000    0.04396    0.05070 =
         0.04338    0.00438    0.00939   -0.00216
C27   1    0.097563    0.474571    0.367322    11.00000    0.04184    0.07063 =
         0.05031    0.00671    0.01055    0.00254
AFIX  43
H27   2    0.041486    0.469574    0.367642    11.00000   -1.20000
AFIX   0
C28   1   -0.194824    0.143474    0.403974    11.00000    0.02504    0.06105 =
         0.06966    0.01949    0.01538   -0.00256
C29   1    0.065434    0.320954    0.453869    11.00000    0.05770    0.06043 =
         0.05540   -0.00346    0.02699   -0.00198
C30   1    0.200288    0.198159    0.521613    11.00000    0.04323    0.07250 =
         0.07006    0.01790    0.01413   -0.01167
AFIX  43
H30   2    0.150225    0.178387    0.530994    11.00000   -1.20000
AFIX   0
C31   1    0.436025    0.015023    0.564009    11.00000    0.06361    0.04933 =
         0.06190    0.01301    0.00473   -0.00699
AFIX  43
H31   2    0.406307   -0.002796    0.522750    11.00000   -1.20000
AFIX   0
C32   1    0.594284    0.303589    0.495883    11.00000    0.05575    0.06739 =
         0.05666    0.00961    0.01310   -0.00003
AFIX  43
H32   2    0.650710    0.313106    0.498364    11.00000   -1.20000
AFIX   0
C33   1   -0.091694    0.286971    0.477913    11.00000    0.03300    0.06964 =
         0.08035   -0.00510    0.01867    0.01008
C34   1    0.776373    0.445608    0.366906    11.00000    0.03862    0.12227 =
         0.05049   -0.00304    0.01594   -0.00202
C35   1    0.467419   -0.058172    0.608713    11.00000    0.07942    0.05400 =
         0.08146    0.00463    0.00437   -0.00490
AFIX  43
H35   2    0.457413   -0.125522    0.596575    11.00000   -1.20000
AFIX   0
C36   1    0.494558    0.134627    0.640133    11.00000    0.07163    0.04979 =
         0.05119    0.00501    0.01131    0.00364
AFIX  43
H36   2    0.505828    0.201445    0.653068    11.00000   -1.20000
AFIX   0
C37   1   -0.115099    0.163314    0.391664    11.00000    0.06142    0.04779 =
         0.05132    0.01373    0.00520   -0.00127
C38   1    0.201931    0.798305    0.223043    11.00000    0.12524    0.05279 =
         0.04453   -0.00916    0.02566    0.02504
AFIX  43
H38   2    0.193796    0.866664    0.230219    11.00000   -1.20000
AFIX   0
C39   1   -0.090815    0.108918    0.345553    11.00000    0.07518    0.06720 =
         0.04680    0.00042    0.02464   -0.00446
C40   1    0.679885    0.496285    0.428467    11.00000    0.06618    0.11483 =
         0.07331   -0.01496    0.02051   -0.03337
AFIX  43
H40   2    0.667467    0.536898    0.460950    11.00000   -1.20000
AFIX   0
C41   1   -0.220463    0.197869    0.452531    11.00000    0.06095    0.05976 =
         0.08330    0.00398    0.01458   -0.00316
AFIX  43
H41   2   -0.272501    0.184908    0.460725    11.00000   -1.20000
AFIX   0
C42   1    0.190950    0.669769    0.155609    11.00000    0.09664    0.04154 =
         0.04787   -0.00676    0.00321   -0.00824
AFIX  43
H42   2    0.176159    0.644045    0.113651    11.00000   -1.20000
AFIX   0
C43   1    0.034086    0.370768    0.498686    11.00000    0.04931    0.08060 =
         0.08530   -0.01652    0.03866   -0.01420
AFIX  43
H43   2    0.067616    0.420181    0.522775    11.00000   -1.20000
AFIX   0
C44   1    0.232680    0.738350    0.275836    11.00000    0.13685    0.04904 =
         0.03264    0.00745    0.01328    0.01613
AFIX  43
H44   2    0.247077    0.765995    0.317300    11.00000   -1.20000
AFIX   0
C45   1    0.736051    0.321225    0.283695    11.00000    0.06713    0.07400 =
         0.06665    0.01823    0.03357    0.01932
C46   1   -0.172047    0.268029    0.487465    11.00000    0.05607    0.06945 =
         0.07990   -0.01330    0.01352    0.00594
AFIX  43
H46   2   -0.191524    0.304861    0.518471    11.00000   -1.20000
AFIX   0
C47   1    0.524705    0.056559    0.681874    11.00000    0.07292    0.07027 =
         0.06307    0.00351    0.00662   -0.00097
AFIX  43
H47   2    0.556893    0.072798    0.722616    11.00000   -1.20000
AFIX   0
C48   1    0.219504    0.604958    0.205693    11.00000    0.10080    0.03360 =
         0.04536    0.00184    0.01115   -0.00092
AFIX  43
H48   2    0.223584    0.536236    0.197283    11.00000   -1.20000
AFIX   0
C49   1    0.858021    0.451242    0.349538    11.00000    0.04411    0.15721 =
         0.07016    0.00398    0.02327    0.00259
AFIX  43
H49   2    0.899240    0.495028    0.371023    11.00000   -1.20000
AFIX   0
C50   1    0.815146    0.328714    0.267726    11.00000    0.07164    0.10545 =
         0.07893    0.03528    0.04337    0.03146
C51   1   -0.038464    0.356389    0.511463    11.00000    0.05251    0.07678 =
         0.08412   -0.03170    0.04017   -0.01777
AFIX  43
H51   2   -0.053973    0.394117    0.543948    11.00000   -1.20000
AFIX   0
C52   1    0.583724    0.303838    0.312997    11.00000    0.08492    0.05754 =
         0.06630    0.00579    0.03030   -0.00560
AFIX  43
H52   2    0.531421    0.297028    0.322027    11.00000   -1.20000
AFIX   0
C53   1    0.869887    0.393842    0.303996    11.00000    0.06535    0.12920 =
         0.06679    0.01407    0.02701    0.00362
AFIX  43
H53   2    0.922198    0.397082    0.294601    11.00000   -1.20000
AFIX   0
C54   1    0.756985    0.503284    0.414700    11.00000    0.04764    0.16052 =
         0.08461   -0.02954    0.01326   -0.03991
AFIX  43
H54   2    0.796200    0.547691    0.438166    11.00000   -1.20000
AFIX   0
C55   1    0.679257    0.254549    0.248464    11.00000    0.09696    0.08341 =
         0.09377    0.00913    0.05363    0.00446
C56   1    0.603729    0.247907    0.266858    11.00000    0.11726    0.07724 =
         0.10652   -0.01812    0.07632   -0.01241
AFIX  43
H56   2    0.564881    0.201301    0.245425    11.00000   -1.20000
AFIX   0
C57   1   -0.244944    0.075044    0.366205    11.00000    0.08034    0.09267 =
         0.08272    0.01835    0.00516   -0.03057
AFIX  43
H57   2   -0.298501    0.064104    0.371847    11.00000   -1.20000
AFIX   0
C58   1   -0.143254    0.040260    0.309313    11.00000    0.07103    0.13061 =
         0.08811   -0.04153    0.04221   -0.06069
AFIX  43
H58   2   -0.126738    0.005108    0.276240    11.00000   -1.20000
AFIX   0
C59   1    0.829859    0.269803    0.218724    11.00000    0.13971    0.11646 =
         0.09010    0.02770    0.07359    0.05430
AFIX  43
H59   2    0.881748    0.273063    0.208582    11.00000   -1.20000
AFIX   0
C60   1   -0.217444    0.023456    0.320988    11.00000    0.12172    0.12220 =
         0.09487   -0.04448    0.05106   -0.05059
AFIX  43
H60   2   -0.251415   -0.025692    0.297016    11.00000   -1.20000
AFIX   0
C61   1    0.771808    0.206582    0.184146    11.00000    0.20610    0.12651 =
         0.15148   -0.04859    0.11637   -0.04379
AFIX  43
H61   2    0.783076    0.168625    0.150089    11.00000   -1.20000
AFIX   0
C62   1    0.697197    0.199721    0.200087    11.00000    0.20459    0.11615 =
         0.12396   -0.02363    0.12142   -0.01457
AFIX  43
H62   2    0.657312    0.155836    0.176891    11.00000   -1.20000
AFIX   0
HKLF 4

REM  mo_gs30_01_a.res in P2(1)/n
REM R1 =  0.0773 for    3709 Fo > 4sig(Fo)  and  0.1444 for all    6852 data
REM    622 parameters refined using      0 restraints

END

WGHT      0.1482      0.0000

REM Highest difference peak  0.779,  deepest hole -0.448,  1-sigma level  0.093
Q1    1   0.3231  0.3761  0.4148  11.00000  0.05    0.78
Q2    1   0.3429  0.3448  0.3923  11.00000  0.05    0.78
Q3    1   0.3430  0.3901  0.4266  11.00000  0.05    0.77
Q4    1  -0.1650  0.2943  0.5522  11.00000  0.05    0.42
Q5    1   0.3163  0.4718  0.3375  11.00000  0.05    0.41
Q6    1   0.3738  0.4912  0.5028  11.00000  0.05    0.40
Q7    1   0.0839  0.2500  0.4023  11.00000  0.05    0.40
Q8    1   0.4000  0.4607  0.4272  11.00000  0.05    0.39
Q9    1   0.4373  0.4222  0.3476  11.00000  0.05    0.33
Q10   1   0.2793  0.2848  0.3984  11.00000  0.05    0.32
Q11   1   0.3587  0.4205  0.4895  11.00000  0.05    0.32
Q12   1   0.1973  0.2996  0.3971  11.00000  0.05    0.32
Q13   1   0.1891  0.3937  0.4986  11.00000  0.05    0.32
Q14   1   0.4747  0.1279  0.2551  11.00000  0.05    0.31
Q15   1   0.3676  0.3624  0.5315  11.00000  0.05    0.30
Q16   1   0.1564  0.4706  0.2970  11.00000  0.05    0.30
Q17   1   0.7391  0.5989  0.4126  11.00000  0.05    0.29
Q18   1   0.1470  0.2854  0.4058  11.00000  0.05    0.29
Q19   1   0.2564  0.4612  0.2677  11.00000  0.05    0.29
Q20   1  -0.2457  0.2333  0.5045  11.00000  0.05    0.29
;
_shelx_res_checksum              68287
_shelx_fab_file
;
    0    0    2     47.85      0.00
    0    0    4    -64.74      0.00
    0    0    6    -23.47      0.00
    0    0    8      8.73      0.00
    0    0   10      1.55      0.00
    0    0   12      0.66      0.00
    0    0   14     -2.56      0.00
    0    0   16     -4.27      0.00
    0    0   18     -3.10      0.00
    0    0   20      1.59      0.00
    0    0   22      5.80      0.00
    0    1    1   -122.10      0.00
    0    1    2    -71.72      0.00
    0    1    3     17.98      0.00
    0    1    4     -8.28      0.00
    0    1    5     40.22      0.00
    0    1    6     18.87      0.00
    0    1    7      6.65      0.00
    0    1    8     -0.05      0.00
    0    1    9     -6.08      0.00
    0    1   10     -4.05      0.00
    0    1   11     -1.59      0.00
    0    1   12      0.86      0.00
    0    1   13      0.63      0.00
    0    1   14     -0.46      0.00
    0    1   15      3.98      0.00
    0    1   16     -0.12      0.00
    0    1   17      3.80      0.00
    0    1   18      1.15      0.00
    0    1   19      0.31      0.00
    0    1   20      3.02      0.00
    0    1   21     -4.43      0.00
    0    1   22      2.22      0.00
    0    1   23     -3.12      0.00
    0    2    0     75.34      0.00
    0    2    1     67.97      0.00
    0    2    2     39.64      0.00
    0    2    3     60.93      0.00
    0    2    4     -8.13      0.00
    0    2    5    -11.85      0.00
    0    2    6    -22.25      0.00
    0    2    7    -15.81      0.00
    0    2    8     -3.88      0.00
    0    2    9      4.78      0.00
    0    2   10      6.63      0.00
    0    2   11      1.88      0.00
    0    2   12      1.65      0.00
    0    2   13      0.59      0.00
    0    2   14     -3.41      0.00
    0    2   15      0.69      0.00
    0    2   16     -4.01      0.00
    0    2   17     -1.54      0.00
    0    2   18     -1.26      0.00
    0    2   19     -3.94      0.00
    0    2   20      2.66      0.00
    0    2   21     -3.45      0.00
    0    2   22      2.65      0.00
    0    2   23      0.73      0.00
    0    3    1    -22.39      0.00
    0    3    2    -69.64      0.00
    0    3    3    -25.91      0.00
    0    3    4    -24.72      0.00
    0    3    5      5.05      0.00
    0    3    6     15.26      0.00
    0    3    7     17.55      0.00
    0    3    8      9.98      0.00
    0    3    9     -1.21      0.00
    0    3   10     -3.25      0.00
    0    3   11     -6.34      0.00
    0    3   12     -3.83      0.00
    0    3   13      1.85      0.00
    0    3   14     -2.53      0.00
    0    3   15      4.03      0.00
    0    3   16      1.68      0.00
    0    3   17      1.43      0.00
    0    3   18      4.16      0.00
    0    3   19     -0.30      0.00
    0    3   20      3.87      0.00
    0    3   21     -1.22      0.00
    0    3   22     -0.14      0.00
    0    4    0    -10.84      0.00
    0    4    1     31.82      0.00
    0    4    2     16.21      0.00
    0    4    3     43.71      0.00
    0    4    4     21.06      0.00
    0    4    5      8.35      0.00
    0    4    6     -8.53      0.00
    0    4    7    -16.91      0.00
    0    4    8    -11.57      0.00
    0    4    9     -8.55      0.00
    0    4   10      1.81      0.00
    0    4   11      5.08      0.00
    0    4   12      0.16      0.00
    0    4   13      7.27      0.00
    0    4   14     -1.81      0.00
    0    4   15     -0.52      0.00
    0    4   16     -0.20      0.00
    0    4   17     -4.50      0.00
    0    4   18     -0.86      0.00
    0    4   19     -3.05      0.00
    0    4   20     -0.41      0.00
    0    4   21     -1.88      0.00
    0    4   22     -0.39      0.00
    0    5    1     15.73      0.00
    0    5    2    -27.11      0.00
    0    5    3    -20.93      0.00
    0    5    4    -27.38      0.00
    0    5    5    -15.48      0.00
    0    5    6      0.08      0.00
    0    5    7      7.14      0.00
    0    5    8     16.19      0.00
    0    5    9      8.81      0.00
    0    5   10      2.85      0.00
    0    5   11      5.66      0.00
    0    5   12     -6.89      0.00
    0    5   13      0.19      0.00
    0    5   14     -2.25      0.00
    0    5   15     -3.55      0.00
    0    5   16      3.75      0.00
    0    5   17     -0.08      0.00
    0    5   18      2.42      0.00
    0    5   19      0.82      0.00
    0    5   20      2.16      0.00
    0    5   21      0.15      0.00
    0    5   22      1.50      0.00
    0    6    0    -26.72      0.00
    0    6    1      4.56      0.00
    0    6    2     -4.31      0.00
    0    6    3     17.58      0.00
    0    6    4     20.09      0.00
    0    6    5     16.68      0.00
    0    6    6     12.14      0.00
    0    6    7     -4.48      0.00
    0    6    8     -6.79      0.00
    0    6    9     -6.92      0.00
    0    6   10    -11.41      0.00
    0    6   11      0.71      0.00
    0    6   12     -4.06      0.00
    0    6   13      0.55      0.00
    0    6   14      4.85      0.00
    0    6   15     -2.64      0.00
    0    6   16      2.79      0.00
    0    6   17     -1.54      0.00
    0    6   18      0.15      0.00
    0    6   19     -1.87      0.00
    0    6   20      1.01      0.00
    0    6   21     -1.49      0.00
    0    7    1     18.36      0.00
    0    7    2     -2.10      0.00
    0    7    3     -4.41      0.00
    0    7    4    -10.62      0.00
    0    7    5    -18.05      0.00
    0    7    6     -8.76      0.00
    0    7    7     -5.42      0.00
    0    7    8      1.37      0.00
    0    7    9      9.22      0.00
    0    7   10      2.32      0.00
    0    7   11      6.38      0.00
    0    7   12      2.45      0.00
    0    7   13     -2.58      0.00
    0    7   14      2.04      0.00
    0    7   15     -4.17      0.00
    0    7   16      2.54      0.00
    0    7   17     -0.85      0.00
    0    7   18      1.48      0.00
    0    7   19     -2.40      0.00
    0    7   20      0.44      0.00
    0    8    0    -17.81      0.00
    0    8    1     -2.63      0.00
    0    8    2     -6.94      0.00
    0    8    3     -1.34      0.00
    0    8    4      9.87      0.00
    0    8    5      7.62      0.00
    0    8    6     11.90      0.00
    0    8    7      7.28      0.00
    0    8    8     -0.98      0.00
    0    8    9     -1.12      0.00
    0    8   10     -6.86      0.00
    0    8   11     -4.37      0.00
    0    8   12     -1.56      0.00
    0    8   13     -1.76      0.00
    0    8   14      5.31      0.00
    0    8   15     -1.21      0.00
    0    8   16      2.66      0.00
    0    8   17     -2.60      0.00
    0    8   18      0.84      0.00
    0    8   19     -0.64      0.00
    0    9    1      9.56      0.00
    0    9    2      7.60      0.00
    0    9    3     -1.06      0.00
    0    9    4      0.88      0.00
    0    9    5     -7.78      0.00
    0    9    6     -8.86      0.00
    0    9    7     -6.43      0.00
    0    9    8     -5.88      0.00
    0    9    9      2.43      0.00
    0    9   10      2.51      0.00
    0    9   11      5.24      0.00
    0    9   12      4.09      0.00
    0    9   13     -0.57      0.00
    0    9   14      1.52      0.00
    0    9   15     -6.08      0.00
    0    9   16     -0.02      0.00
    0    9   17     -1.21      0.00
    0    9   18      1.42      0.00
    0   10    0     -5.24      0.00
    0   10    1     -5.64      0.00
    0   10    2     -2.67      0.00
    0   10    3     -7.00      0.00
    0   10    4      0.73      0.00
    0   10    5      3.02      0.00
    0   10    6      4.37      0.00
    0   10    7      8.41      0.00
    0   10    8      2.92      0.00
    0   10    9      4.66      0.00
    0   10   10     -2.04      0.00
    0   10   11     -1.69      0.00
    0   10   12     -3.33      0.00
    0   10   13     -4.11      0.00
    0   10   14      2.66      0.00
    0   10   15     -1.03      0.00
    0   10   16      3.10      0.00
    0   10   17      1.36      0.00
    0   11    1      1.99      0.00
    0   11    2      7.15      0.00
    0   11    3      2.45      0.00
    0   11    4      1.91      0.00
    0   11    5      0.32      0.00
    0   11    6     -4.74      0.00
    0   11    7     -1.46      0.00
    0   11    8     -6.71      0.00
    0   11    9     -0.96      0.00
    0   11   10     -3.21      0.00
    0   11   11      0.87      0.00
    0   11   12      0.27      0.00
    0   11   13     -0.10      0.00
    0   11   14      3.72      0.00
    0   11   15     -1.63      0.00
    0   12    0     -0.40      0.00
    0   12    1     -4.36      0.00
    0   12    2     -2.75      0.00
    0   12    3     -5.00      0.00
    0   12    4     -3.31      0.00
    0   12    5      1.53      0.00
    0   12    6     -0.21      0.00
    0   12    7      5.41      0.00
    0   12    8     -0.12      0.00
    0   12    9      2.95      0.00
    0   12   10     -0.13      0.00
    0   12   11      3.50      0.00
    0   12   12      0.70      0.00
    0   12   13     -0.88      0.00
    0   12   14      2.04      0.00
    0   13    1     -0.53      0.00
    0   13    2      4.54      0.00
    0   13    3      5.00      0.00
    0   13    4      2.63      0.00
    0   13    5      3.00      0.00
    0   13    6     -3.46      0.00
    0   13    7     -0.42      0.00
    0   13    8     -3.18      0.00
    0   13    9      0.32      0.00
    0   13   10     -1.98      0.00
    0   13   11      1.39      0.00
    0   14    1     -0.27      0.00
    0   14    2     -1.33      0.00
    0   14    3     -1.88      0.00
    0   14    4     -4.66      0.00
    0   14    5     -1.14      0.00
    0   14    6     -1.65      0.00
    0   14    7      2.29      0.00
    0   14    8      1.37      0.00
   -1    0   23     -2.08      0.00
   -1    0   21     -7.65      0.00
   -1    0   19     -3.12      0.00
   -1    0   17      3.29      0.00
   -1    0   15      4.05      0.00
   -1    0   13      2.34      0.00
   -1    0   11      8.13      0.00
   -1    0    9      0.90      0.00
   -1    0    7    -23.05      0.00
   -1    0    5     18.32      0.00
   -1    0    3     99.08      0.00
   -1    0    1    -25.89      0.00
    1    0    1   -153.52      0.00
    1    0    3    -51.88      0.00
    1    0    5     16.89      0.00
    1    0    7     17.50      0.00
    1    0    9      5.60      0.00
    1    0   11     -1.08      0.00
    1    0   13     -4.89      0.00
    1    0   15      1.84      0.00
    1    0   17      3.85      0.00
    1    0   19      2.16      0.00
    1    0   21     -0.79      0.00
    1    0   23     -2.58      0.00
   -1    1   23      3.28      0.00
   -1    1   22      3.99      0.00
   -1    1   21     -1.38      0.00
   -1    1   20      6.06      0.00
   -1    1   19     -3.65      0.00
   -1    1   18      0.33      0.00
   -1    1   17     -0.56      0.00
   -1    1   16     -3.97      0.00
   -1    1   15      1.45      0.00
   -1    1   14     -4.24      0.00
   -1    1   13     -0.86      0.00
   -1    1   12     -4.48      0.00
   -1    1   11     -2.66      0.00
   -1    1   10     -5.66      0.00
   -1    1    9     10.33      0.00
   -1    1    8      9.97      0.00
   -1    1    7      0.07      0.00
   -1    1    6      6.38      0.00
   -1    1    5    -31.40      0.00
   -1    1    4    -50.68      0.00
   -1    1    3      8.21      0.00
   -1    1    2    -50.04      0.00
   -1    1    1     71.98      0.00
    1    1    0     91.48      0.00
    1    1    1      3.94      0.00
    1    1    2     98.88      0.00
    1    1    3     41.25      0.00
    1    1    4     16.47      0.00
    1    1    5      7.27      0.00
    1    1    6    -19.66      0.00
    1    1    7     -4.80      0.00
    1    1    8    -12.47      0.00
    1    1    9      0.34      0.00
    1    1   10     -2.28      0.00
    1    1   11     -1.58      0.00
    1    1   12      4.51      0.00
    1    1   13      0.72      0.00
    1    1   14      1.19      0.00
    1    1   15      1.90      0.00
    1    1   16     -3.37      0.00
    1    1   17      0.20      0.00
    1    1   18     -2.67      0.00
    1    1   19     -0.76      0.00
    1    1   20      0.04      0.00
    1    1   21     -1.77      0.00
    1    1   22      2.48      0.00
    1    1   23     -1.50      0.00
   -1    2   23      1.45      0.00
   -1    2   22     -3.34      0.00
   -1    2   21     -2.80      0.00
   -1    2   20      3.76      0.00
   -1    2   19     -3.69      0.00
   -1    2   18      4.51      0.00
   -1    2   17      0.67      0.00
   -1    2   16      0.00      0.00
   -1    2   15      5.53      0.00
   -1    2   14     -0.76      0.00
   -1    2   13      6.42      0.00
   -1    2   12      3.09      0.00
   -1    2   11      2.43      0.00
   -1    2   10     -5.59      0.00
   -1    2    9     -3.96      0.00
   -1    2    8    -12.27      0.00
   -1    2    7      2.16      0.00
   -1    2    6     21.24      0.00
   -1    2    5     14.28      0.00
   -1    2    4     29.95      0.00
   -1    2    3     23.46      0.00
   -1    2    2    -63.56      0.00
   -1    2    1     -7.92      0.00
    1    2    0     64.37      0.00
    1    2    1    -58.69      0.00
    1    2    2    -39.44      0.00
    1    2    3    -52.38      0.00
    1    2    4    -38.98      0.00
    1    2    5     -5.52      0.00
    1    2    6     -4.96      0.00
    1    2    7     19.45      0.00
    1    2    8      5.13      0.00
    1    2    9      7.25      0.00
    1    2   10      2.35      0.00
    1    2   11     -3.01      0.00
    1    2   12      1.92      0.00
    1    2   13     -2.01      0.00
    1    2   14     -3.30      0.00
    1    2   15      2.26      0.00
    1    2   16     -1.74      0.00
    1    2   17      2.43      0.00
    1    2   18      1.85      0.00
    1    2   19      0.44      0.00
    1    2   20      2.01      0.00
    1    2   21     -2.53      0.00
    1    2   22      1.20      0.00
   -1    3   23      4.17      0.00
   -1    3   22     -1.77      0.00
   -1    3   21      0.84      0.00
   -1    3   20      0.77      0.00
   -1    3   19     -4.10      0.00
   -1    3   18      1.83      0.00
   -1    3   17     -4.48      0.00
   -1    3   16     -2.68      0.00
   -1    3   15     -1.23      0.00
   -1    3   14     -7.54      0.00
   -1    3   13      0.74      0.00
   -1    3   12     -4.21      0.00
   -1    3   11      2.68      0.00
   -1    3   10      5.92      0.00
   -1    3    9      9.86      0.00
   -1    3    8     -2.41      0.00
   -1    3    7     -3.58      0.00
   -1    3    6    -17.33      0.00
   -1    3    5    -25.82      0.00
   -1    3    4     -2.54      0.00
   -1    3    3      8.47      0.00
   -1    3    2      9.90      0.00
   -1    3    1     71.91      0.00
    1    3    0      5.38      0.00
    1    3    1    -17.89      0.00
    1    3    2     28.92      0.00
    1    3    3     40.73      0.00
    1    3    4     28.62      0.00
    1    3    5     31.79      0.00
    1    3    6     -5.18      0.00
    1    3    7     -1.18      0.00
    1    3    8    -13.63      0.00
    1    3    9     -8.73      0.00
    1    3   10      0.43      0.00
    1    3   11     -4.57      0.00
    1    3   12      1.74      0.00
    1    3   13      3.10      0.00
    1    3   14     -3.24      0.00
    1    3   15      3.81      0.00
    1    3   16     -1.72      0.00
    1    3   17     -2.01      0.00
    1    3   18     -0.40      0.00
    1    3   19     -3.24      0.00
    1    3   20      0.24      0.00
    1    3   21     -1.24      0.00
    1    3   22      1.63      0.00
   -1    4   22     -1.36      0.00
   -1    4   21      2.15      0.00
   -1    4   20      0.85      0.00
   -1    4   19      0.16      0.00
   -1    4   18      3.72      0.00
   -1    4   17      0.83      0.00
   -1    4   16      5.66      0.00
   -1    4   15      3.20      0.00
   -1    4   14      0.00      0.00
   -1    4   13      4.41      0.00
   -1    4   12     -5.87      0.00
   -1    4   11     -1.51      0.00
   -1    4   10     -6.52      0.00
   -1    4    9     -3.17      0.00
   -1    4    8      1.60      0.00
   -1    4    7     16.11      0.00
   -1    4    6     12.64      0.00
   -1    4    5     11.13      0.00
   -1    4    4      6.70      0.00
   -1    4    3    -20.54      0.00
   -1    4    2    -34.04      0.00
   -1    4    1     -7.29      0.00
    1    4    0     43.36      0.00
    1    4    1      8.67      0.00
    1    4    2     -7.07      0.00
    1    4    3    -15.53      0.00
    1    4    4    -39.91      0.00
    1    4    5    -14.11      0.00
    1    4    6    -19.69      0.00
    1    4    7      4.96      0.00
    1    4    8     10.96      0.00
    1    4    9      4.85      0.00
    1    4   10     11.35      0.00
    1    4   11      1.44      0.00
    1    4   12     -2.00      0.00
    1    4   13      4.96      0.00
    1    4   14     -5.91      0.00
    1    4   15      1.98      0.00
    1    4   16      1.60      0.00
    1    4   17     -1.29      0.00
    1    4   18      3.60      0.00
    1    4   19      1.21      0.00
    1    4   20      2.13      0.00
    1    4   21      0.74      0.00
    1    4   22     -0.43      0.00
   -1    5   22     -2.00      0.00
   -1    5   21     -0.18      0.00
   -1    5   20     -0.36      0.00
   -1    5   19     -1.86      0.00
   -1    5   18     -1.77      0.00
   -1    5   17     -4.00      0.00
   -1    5   16     -0.59      0.00
   -1    5   15     -3.68      0.00
   -1    5   14      1.12      0.00
   -1    5   13      3.29      0.00
   -1    5   12     -0.83      0.00
   -1    5   11      7.65      0.00
   -1    5   10     -0.30      0.00
   -1    5    9     -0.67      0.00
   -1    5    8     -7.62      0.00
   -1    5    7    -10.84      0.00
   -1    5    6    -14.62      0.00
   -1    5    5     -2.25      0.00
   -1    5    4     10.88      0.00
   -1    5    3     13.00      0.00
   -1    5    2     22.69      0.00
   -1    5    1     27.98      0.00
    1    5    0    -12.23      0.00
    1    5    1    -18.57      0.00
    1    5    2    -14.91      0.00
    1    5    3     17.67      0.00
    1    5    4      9.69      0.00
    1    5    5     33.56      0.00
    1    5    6     13.90      0.00
    1    5    7      4.34      0.00
    1    5    8      1.51      0.00
    1    5    9    -13.31      0.00
    1    5   10     -6.21      0.00
    1    5   11     -3.64      0.00
    1    5   12    -10.00      0.00
    1    5   13      5.22      0.00
    1    5   14     -2.59      0.00
    1    5   15     -0.69      0.00
    1    5   16      2.88      0.00
    1    5   17     -3.42      0.00
    1    5   18     -0.40      0.00
    1    5   19     -1.64      0.00
    1    5   20     -1.54      0.00
    1    5   21     -1.16      0.00
   -1    6   21      1.81      0.00
   -1    6   20      0.82      0.00
   -1    6   19     -0.48      0.00
   -1    6   18      2.38      0.00
   -1    6   17      0.49      0.00
   -1    6   16      2.44      0.00
   -1    6   15     -2.38      0.00
   -1    6   14      1.58      0.00
   -1    6   13     -3.46      0.00
   -1    6   12     -2.94      0.00
   -1    6   11      1.10      0.00
   -1    6   10     -3.70      0.00
   -1    6    9      6.35      0.00
   -1    6    8      7.75      0.00
   -1    6    7      9.26      0.00
   -1    6    6      4.00      0.00
   -1    6    5     -1.41      0.00
   -1    6    4    -10.17      0.00
   -1    6    3    -19.90      0.00
   -1    6    2    -12.13      0.00
   -1    6    1     -6.22      0.00
    1    6    0     14.07      0.00
    1    6    1     22.01      0.00
    1    6    2      5.45      0.00
    1    6    3     15.63      0.00
    1    6    4    -18.56      0.00
    1    6    5    -13.27      0.00
    1    6    6    -18.42      0.00
    1    6    7    -16.88      0.00
    1    6    8      1.53      0.00
    1    6    9      0.22      0.00
    1    6   10      3.53      0.00
    1    6   11     12.24      0.00
    1    6   12      0.32      0.00
    1    6   13      6.40      0.00
    1    6   14      1.17      0.00
    1    6   15     -2.66      0.00
    1    6   16      3.54      0.00
    1    6   17     -0.92      0.00
    1    6   18      0.92      0.00
    1    6   19      0.29      0.00
    1    6   20      1.06      0.00
    1    6   21      0.54      0.00
   -1    7   20     -0.86      0.00
   -1    7   19     -0.49      0.00
   -1    7   18      1.87      0.00
   -1    7   17     -2.06      0.00
   -1    7   16      1.03      0.00
   -1    7   15     -2.67      0.00
   -1    7   14      4.16      0.00
   -1    7   13     -0.06      0.00
   -1    7   12      4.03      0.00
   -1    7   11      1.42      0.00
   -1    7   10     -3.50      0.00
   -1    7    9     -2.44      0.00
   -1    7    8     -8.54      0.00
   -1    7    7     -4.91      0.00
   -1    7    6     -0.98      0.00
   -1    7    5      6.22      0.00
   -1    7    4     11.48      0.00
   -1    7    3      9.68      0.00
   -1    7    2     13.88      0.00
   -1    7    1      4.62      0.00
    1    7    0     -7.20      0.00
    1    7    1     -3.70      0.00
    1    7    2    -23.90      0.00
    1    7    3      0.43      0.00
    1    7    4     -6.76      0.00
    1    7    5      9.49      0.00
    1    7    6     17.93      0.00
    1    7    7      8.62      0.00
    1    7    8     10.30      0.00
    1    7    9      2.89      0.00
    1    7   10     -5.00      0.00
    1    7   11     -0.64      0.00
    1    7   12     -8.17      0.00
    1    7   13     -3.08      0.00
    1    7   14      0.33      0.00
    1    7   15     -3.14      0.00
    1    7   16      1.22      0.00
    1    7   17     -2.48      0.00
    1    7   18      0.10      0.00
    1    7   19     -0.47      0.00
    1    7   20      1.31      0.00
   -1    8   20     -2.81      0.00
   -1    8   19     -0.41      0.00
   -1    8   18      0.90      0.00
   -1    8   17     -0.77      0.00
   -1    8   16      2.96      0.00
   -1    8   15     -3.75      0.00
   -1    8   14      0.70      0.00
   -1    8   13     -6.10      0.00
   -1    8   12     -0.55      0.00
   -1    8   11     -0.79      0.00
   -1    8   10      2.73      0.00
   -1    8    9      6.56      0.00
   -1    8    8      3.70      0.00
   -1    8    7      3.05      0.00
   -1    8    6     -3.64      0.00
   -1    8    5     -5.97      0.00
   -1    8    4     -9.27      0.00
   -1    8    3    -12.26      0.00
   -1    8    2     -2.92      0.00
   -1    8    1     -3.25      0.00
    1    8    0     -3.50      0.00
    1    8    1     14.99      0.00
    1    8    2     -0.47      0.00
    1    8    3     15.11      0.00
    1    8    4      3.71      0.00
    1    8    5     -4.78      0.00
    1    8    6     -4.60      0.00
    1    8    7    -13.89      0.00
    1    8    8     -7.65      0.00
    1    8    9     -3.04      0.00
    1    8   10     -2.68      0.00
    1    8   11      5.11      0.00
    1    8   12      3.26      0.00
    1    8   13      3.45      0.00
    1    8   14      2.49      0.00
    1    8   15     -3.08      0.00
    1    8   16      2.13      0.00
    1    8   17      0.22      0.00
    1    8   18      2.18      0.00
    1    8   19     -0.68      0.00
   -1    9   18     -0.51      0.00
   -1    9   17     -0.77      0.00
   -1    9   16      1.92      0.00
   -1    9   15     -1.04      0.00
   -1    9   14      6.86      0.00
   -1    9   13     -0.56      0.00
   -1    9   12      3.03      0.00
   -1    9   11     -2.45      0.00
   -1    9   10     -3.80      0.00
   -1    9    9     -2.87      0.00
   -1    9    8     -3.45      0.00
   -1    9    7      1.62      0.00
   -1    9    6      2.98      0.00
   -1    9    5      8.57      0.00
   -1    9    4      7.01      0.00
   -1    9    3      5.00      0.00
   -1    9    2      5.72      0.00
   -1    9    1     -5.86      0.00
    1    9    0     -5.53      0.00
    1    9    1      5.69      0.00
    1    9    2    -11.24      0.00
    1    9    3     -5.59      0.00
    1    9    4     -3.59      0.00
    1    9    5     -5.50      0.00
    1    9    6      7.04      0.00
    1    9    7      6.34      0.00
    1    9    8      8.24      0.00
    1    9    9      7.61      0.00
    1    9   10      0.48      0.00
    1    9   11     -0.18      0.00
    1    9   12     -5.03      0.00
    1    9   13     -4.34      0.00
    1    9   14     -0.15      0.00
    1    9   15     -1.57      0.00
    1    9   16      2.93      0.00
    1    9   17     -0.22      0.00
    1    9   18     -0.62      0.00
   -1   10   17      0.16      0.00
   -1   10   16     -1.32      0.00
   -1   10   15     -3.56      0.00
   -1   10   14      1.59      0.00
   -1   10   13     -5.16      0.00
   -1   10   12      2.54      0.00
   -1   10   11      0.14      0.00
   -1   10   10      2.37      0.00
   -1   10    9      3.68      0.00
   -1   10    8     -1.27      0.00
   -1   10    7     -0.39      0.00
   -1   10    6     -5.28      0.00
   -1   10    5     -4.34      0.00
   -1   10    4     -7.29      0.00
   -1   10    3     -2.97      0.00
   -1   10    2      2.44      0.00
   -1   10    1      1.19      0.00
    1   10    0     -8.63      0.00
    1   10    1      5.14      0.00
    1   10    2      1.00      0.00
    1   10    3      3.25      0.00
    1   10    4      9.04      0.00
    1   10    5      1.20      0.00
    1   10    6      1.99      0.00
    1   10    7     -3.82      0.00
    1   10    8     -8.16      0.00
    1   10    9     -5.43      0.00
    1   10   10     -5.80      0.00
    1   10   11     -0.60      0.00
    1   10   12      0.86      0.00
    1   10   13      3.74      0.00
    1   10   14      4.24      0.00
    1   10   15     -0.61      0.00
    1   10   16     -0.86      0.00
    1   10   17     -0.93      0.00
   -1   11   16     -0.17      0.00
   -1   11   15      1.10      0.00
   -1   11   14      3.43      0.00
   -1   11   13     -2.56      0.00
   -1   11   12      2.83      0.00
   -1   11   11     -2.81      0.00
   -1   11   10     -1.08      0.00
   -1   11    9     -0.80      0.00
   -1   11    8     -2.93      0.00
   -1   11    7      4.32      0.00
   -1   11    6      2.68      0.00
   -1   11    5      6.48      0.00
   -1   11    4      2.74      0.00
   -1   11    3      1.98      0.00
   -1   11    2     -1.75      0.00
   -1   11    1     -6.92      0.00
    1   11    0     -2.88      0.00
    1   11    1      3.56      0.00
    1   11    2     -0.55      0.00
    1   11    3     -5.86      0.00
    1   11    4     -2.04      0.00
    1   11    5     -5.62      0.00
    1   11    6     -3.04      0.00
    1   11    7      0.78      0.00
    1   11    8      1.05      0.00
    1   11    9      5.38      0.00
    1   11   10      4.89      0.00
    1   11   11      5.26      0.00
    1   11   12      0.05      0.00
    1   11   13      0.57      0.00
    1   11   14     -1.88      0.00
    1   11   15     -1.63      0.00
   -1   12   14      0.77      0.00
   -1   12   13     -2.40      0.00
   -1   12   12      2.31      0.00
   -1   12   11     -0.34      0.00
   -1   12   10      3.31      0.00
   -1   12    9      1.28      0.00
   -1   12    8     -1.76      0.00
   -1   12    7     -0.12      0.00
   -1   12    6     -7.31      0.00
   -1   12    5     -3.25      0.00
   -1   12    4     -3.47      0.00
   -1   12    3      1.70      0.00
   -1   12    2      4.43      0.00
   -1   12    1      3.56      0.00
    1   12    0     -5.48      0.00
    1   12    1     -0.28      0.00
    1   12    2      2.53      0.00
    1   12    3      0.65      0.00
    1   12    4      4.50      0.00
    1   12    5      3.10      0.00
    1   12    6      1.75      0.00
    1   12    7      3.38      0.00
    1   12    8     -0.05      0.00
    1   12    9     -0.30      0.00
    1   12   10     -2.54      0.00
    1   12   11     -1.09      0.00
    1   12   12     -6.96      0.00
    1   12   13     -0.46      0.00
   -1   13   11     -1.82      0.00
   -1   13   10     -0.89      0.00
   -1   13    9     -1.39      0.00
   -1   13    8      1.97      0.00
   -1   13    7      5.47      0.00
   -1   13    6      2.07      0.00
   -1   13    5      4.52      0.00
   -1   13    4     -1.51      0.00
   -1   13    3     -2.46      0.00
   -1   13    2     -4.42      0.00
   -1   13    1     -5.05      0.00
    1   13    0      0.63      0.00
    1   13    1      0.63      0.00
    1   13    2      1.50      0.00
    1   13    3     -3.19      0.00
    1   13    4     -3.06      0.00
    1   13    5     -2.14      0.00
    1   13    6     -2.90      0.00
    1   13    7      0.55      0.00
    1   13    8     -1.42      0.00
    1   13    9     -1.33      0.00
    1   13   10     -2.75      0.00
    1   13   11      3.77      0.00
   -1   14    8     -1.92      0.00
   -1   14    7     -2.60      0.00
   -1   14    6     -2.91      0.00
   -1   14    5      1.16      0.00
   -1   14    4      1.00      0.00
   -1   14    3      3.79      0.00
   -1   14    2      2.29      0.00
   -1   14    1      0.75      0.00
    1   14    1     -3.03      0.00
    1   14    2     -0.32      0.00
    1   14    3      0.69      0.00
    1   14    4      1.46      0.00
    1   14    5      3.49      0.00
    1   14    6      0.40      0.00
    1   14    7      1.20      0.00
   -2    0   22      0.91      0.00
   -2    0   20      8.19      0.00
   -2    0   18      3.77      0.00
   -2    0   16     -3.76      0.00
   -2    0   14     -4.17      0.00
   -2    0   12     -0.81      0.00
   -2    0   10    -13.99      0.00
   -2    0    8     -6.45      0.00
   -2    0    6     26.89      0.00
   -2    0    4     -5.65      0.00
   -2    0    2    -80.53      0.00
    2    0    0      9.54      0.00
    2    0    2     67.77      0.00
    2    0    4     37.46      0.00
    2    0    6      6.47      0.00
    2    0    8    -10.11      0.00
    2    0   10    -13.87      0.00
    2    0   12     -0.03      0.00
    2    0   14      5.48      0.00
    2    0   16     -0.71      0.00
    2    0   18     -3.43      0.00
    2    0   20     -0.71      0.00
    2    0   22      2.68      0.00
   -2    1   23      3.20      0.00
   -2    1   22     -4.81      0.00
   -2    1   21     -3.63      0.00
   -2    1   20      0.60      0.00
   -2    1   19     -6.79      0.00
   -2    1   18      4.27      0.00
   -2    1   17     -0.78      0.00
   -2    1   16      0.60      0.00
   -2    1   15      4.51      0.00
   -2    1   14     -2.80      0.00
   -2    1   13      3.04      0.00
   -2    1   12      1.45      0.00
   -2    1   11      5.56      0.00
   -2    1   10      2.14      0.00
   -2    1    9     11.45      0.00
   -2    1    8    -13.71      0.00
   -2    1    7     -4.80      0.00
   -2    1    6     -2.18      0.00
   -2    1    5    -17.05      0.00
   -2    1    4     29.83      0.00
   -2    1    3     38.66      0.00
   -2    1    2     -8.90      0.00
   -2    1    1     44.85      0.00
    2    1    0     40.88      0.00
    2    1    1    -38.86      0.00
    2    1    2     -4.71      0.00
    2    1    3    -52.14      0.00
    2    1    4    -12.12      0.00
    2    1    5    -24.91      0.00
    2    1    6     -5.88      0.00
    2    1    7      4.96      0.00
    2    1    8     -3.92      0.00
    2    1    9     13.35      0.00
    2    1   10      0.05      0.00
    2    1   11      7.06      0.00
    2    1   12      4.84      0.00
    2    1   13     -4.06      0.00
    2    1   14      0.17      0.00
    2    1   15     -1.48      0.00
    2    1   16     -2.38      0.00
    2    1   17      3.00      0.00
    2    1   18     -0.17      0.00
    2    1   19      1.79      0.00
    2    1   20      0.78      0.00
    2    1   21     -1.54      0.00
    2    1   22      0.65      0.00
   -2    2   23      5.95      0.00
   -2    2   22     -2.17      0.00
   -2    2   21      5.12      0.00
   -2    2   20      2.20      0.00
   -2    2   19     -3.63      0.00
   -2    2   18      4.97      0.00
   -2    2   17     -5.37      0.00
   -2    2   16      0.11      0.00
   -2    2   15      0.64      0.00
   -2    2   14     -5.49      0.00
   -2    2   13      2.53      0.00
   -2    2   12     -5.69      0.00
   -2    2   11     -4.73      0.00
   -2    2   10     -3.69      0.00
   -2    2    9      6.57      0.00
   -2    2    8     -4.07      0.00
   -2    2    7     16.82      0.00
   -2    2    6     -3.40      0.00
   -2    2    5    -16.18      0.00
   -2    2    4     -1.71      0.00
   -2    2    3    -29.40      0.00
   -2    2    2    -23.78      0.00
   -2    2    1     42.62      0.00
    2    2    0    -13.47      0.00
    2    2    1    -34.40      0.00
    2    2    2     28.92      0.00
    2    2    3      8.40      0.00
    2    2    4     40.63      0.00
    2    2    5     18.36      0.00
    2    2    6      8.59      0.00
    2    2    7     11.72      0.00
    2    2    8    -11.48      0.00
    2    2    9      4.13      0.00
    2    2   10     -8.18      0.00
    2    2   11     -6.55      0.00
    2    2   12      0.33      0.00
    2    2   13     -4.60      0.00
    2    2   14      0.13      0.00
    2    2   15      3.17      0.00
    2    2   16     -2.84      0.00
    2    2   17      1.52      0.00
    2    2   18     -2.07      0.00
    2    2   19     -1.91      0.00
    2    2   20      0.11      0.00
    2    2   21     -1.01      0.00
    2    2   22      2.87      0.00
   -2    3   23     -0.44      0.00
   -2    3   22     -5.73      0.00
   -2    3   21      3.30      0.00
   -2    3   20     -2.64      0.00
   -2    3   19     -0.81      0.00
   -2    3   18      4.18      0.00
   -2    3   17     -3.75      0.00
   -2    3   16      5.73      0.00
   -2    3   15      2.14      0.00
   -2    3   14     -0.30      0.00
   -2    3   13      7.52      0.00
   -2    3   12     -0.93      0.00
   -2    3   11      4.56      0.00
   -2    3   10      0.89      0.00
   -2    3    9     -2.76      0.00
   -2    3    8     -9.48      0.00
   -2    3    7      8.64      0.00
   -2    3    6     -6.46      0.00
   -2    3    5     12.89      0.00
   -2    3    4     23.32      0.00
   -2    3    3     -1.26      0.00
   -2    3    2      1.84      0.00
   -2    3    1      5.55      0.00
    2    3    0     44.68      0.00
    2    3    1      6.28      0.00
    2    3    2     24.07      0.00
    2    3    3    -23.27      0.00
    2    3    4    -13.55      0.00
    2    3    5    -19.96      0.00
    2    3    6    -25.94      0.00
    2    3    7      3.97      0.00
    2    3    8     -9.98      0.00
    2    3    9      7.25      0.00
    2    3   10      4.48      0.00
    2    3   11     -0.79      0.00
    2    3   12      7.50      0.00
    2    3   13      2.01      0.00
    2    3   14     -1.85      0.00
    2    3   15      5.27      0.00
    2    3   16     -2.98      0.00
    2    3   17      1.78      0.00
    2    3   18      2.64      0.00
    2    3   19      1.35      0.00
    2    3   20      3.08      0.00
    2    3   21     -0.67      0.00
    2    3   22     -0.67      0.00
   -2    4   23      0.61      0.00
   -2    4   22     -1.50      0.00
   -2    4   21      2.86      0.00
   -2    4   20     -2.58      0.00
   -2    4   19      1.49      0.00
   -2    4   18     -0.31      0.00
   -2    4   17     -5.28      0.00
   -2    4   16      0.45      0.00
   -2    4   15     -6.37      0.00
   -2    4   14     -2.99      0.00
   -2    4   13      1.19      0.00
   -2    4   12     -6.83      0.00
   -2    4   11      2.99      0.00
   -2    4   10      0.25      0.00
   -2    4    9      1.60      0.00
   -2    4    8      2.16      0.00
   -2    4    7      3.87      0.00
   -2    4    6    -15.82      0.00
   -2    4    5     -2.30      0.00
   -2    4    4     -8.93      0.00
   -2    4    3    -12.74      0.00
   -2    4    2     12.39      0.00
   -2    4    1     15.98      0.00
    2    4    0     -2.32      0.00
    2    4    1    -36.83      0.00
    2    4    2     -3.24      0.00
    2    4    3    -11.89      0.00
    2    4    4      9.36      0.00
    2    4    5     27.55      0.00
    2    4    6      5.02      0.00
    2    4    7     21.78      0.00
    2    4    8     -2.22      0.00
    2    4    9     -1.58      0.00
    2    4   10      1.93      0.00
    2    4   11     -8.65      0.00
    2    4   12     -2.31      0.00
    2    4   13      1.60      0.00
    2    4   14     -7.58      0.00
    2    4   15      3.40      0.00
    2    4   16     -2.37      0.00
    2    4   17     -2.08      0.00
    2    4   18     -0.37      0.00
    2    4   19     -3.93      0.00
    2    4   20     -2.21      0.00
    2    4   21     -2.32      0.00
   -2    5   22     -0.33      0.00
   -2    5   21      1.88      0.00
   -2    5   20     -1.49      0.00
   -2    5   19      1.37      0.00
   -2    5   18      1.48      0.00
   -2    5   17      2.57      0.00
   -2    5   16      5.76      0.00
   -2    5   15     -0.53      0.00
   -2    5   14      3.85      0.00
   -2    5   13      1.21      0.00
   -2    5   12     -2.65      0.00
   -2    5   11      4.81      0.00
   -2    5   10     -5.55      0.00
   -2    5    9     -2.20      0.00
   -2    5    8      1.59      0.00
   -2    5    7      3.05      0.00
   -2    5    6      1.31      0.00
   -2    5    5     15.04      0.00
   -2    5    4      1.42      0.00
   -2    5    3     -4.32      0.00
   -2    5    2      0.89      0.00
   -2    5    1    -14.41      0.00
    2    5    0     19.62      0.00
    2    5    1      3.77      0.00
    2    5    2     27.78      0.00
    2    5    3     11.18      0.00
    2    5    4     -7.72      0.00
    2    5    5      0.73      0.00
    2    5    6    -28.75      0.00
    2    5    7     -7.00      0.00
    2    5    8     -7.64      0.00
    2    5    9     -6.92      0.00
    2    5   10      6.60      0.00
    2    5   11      2.65      0.00
    2    5   12      0.75      0.00
    2    5   13      8.77      0.00
    2    5   14     -3.59      0.00
    2    5   15      3.26      0.00
    2    5   16      1.95      0.00
    2    5   17     -0.73      0.00
    2    5   18      2.48      0.00
    2    5   19      1.74      0.00
    2    5   20      2.96      0.00
    2    5   21      3.19      0.00
   -2    6   21      1.98      0.00
   -2    6   20     -2.09      0.00
   -2    6   19     -1.09      0.00
   -2    6   18     -1.35      0.00
   -2    6   17     -2.61      0.00
   -2    6   16     -0.21      0.00
   -2    6   15     -3.97      0.00
   -2    6   14      2.10      0.00
   -2    6   13     -2.40      0.00
   -2    6   12      0.02      0.00
   -2    6   11      4.62      0.00
   -2    6   10     -2.34      0.00
   -2    6    9      4.81      0.00
   -2    6    8     -0.09      0.00
   -2    6    7     -5.49      0.00
   -2    6    6     -5.84      0.00
   -2    6    5     -0.94      0.00
   -2    6    4     -6.96      0.00
   -2    6    3      1.88      0.00
   -2    6    2     12.12      0.00
   -2    6    1      4.74      0.00
    2    6    0     12.75      0.00
    2    6    1    -17.92      0.00
    2    6    2    -11.64      0.00
    2    6    3    -10.77      0.00
    2    6    4    -19.65      0.00
    2    6    5     15.54      0.00
    2    6    6      4.56      0.00
    2    6    7     15.01      0.00
    2    6    8     13.97      0.00
    2    6    9      2.14      0.00
    2    6   10      4.05      0.00
    2    6   11     -0.20      0.00
    2    6   12     -8.91      0.00
    2    6   13      0.62      0.00
    2    6   14     -4.39      0.00
    2    6   15     -1.65      0.00
    2    6   16     -0.18      0.00
    2    6   17     -2.21      0.00
    2    6   18     -0.74      0.00
    2    6   19     -1.11      0.00
    2    6   20     -1.81      0.00
   -2    7   21      4.31      0.00
   -2    7   20     -2.62      0.00
   -2    7   19      2.15      0.00
   -2    7   18      0.74      0.00
   -2    7   17     -0.86      0.00
   -2    7   16      2.59      0.00
   -2    7   15     -1.84      0.00
   -2    7   14      4.20      0.00
   -2    7   13     -3.56      0.00
   -2    7   12     -0.15      0.00
   -2    7   11     -2.02      0.00
   -2    7   10     -5.22      0.00
   -2    7    9      3.05      0.00
   -2    7    8      0.12      0.00
   -2    7    7      2.73      0.00
   -2    7    6      5.09      0.00
   -2    7    5      5.15      0.00
   -2    7    4     -1.69      0.00
   -2    7    3     -2.24      0.00
   -2    7    2     -5.70      0.00
   -2    7    1    -16.09      0.00
    2    7    0      6.77      0.00
    2    7    1     -4.44      0.00
    2    7    2      5.85      0.00
    2    7    3     21.82      0.00
    2    7    4      0.45      0.00
    2    7    5     11.61      0.00
    2    7    6     -7.93      0.00
    2    7    7    -11.74      0.00
    2    7    8     -6.60      0.00
    2    7    9    -10.92      0.00
    2    7   10     -5.37      0.00
    2    7   11      1.33      0.00
    2    7   12     -0.14      0.00
    2    7   13      5.86      0.00
    2    7   14      1.65      0.00
    2    7   15      0.73      0.00
    2    7   16      2.56      0.00
    2    7   17      1.91      0.00
    2    7   18      1.65      0.00
    2    7   19      0.63      0.00
   -2    8   20     -4.18      0.00
   -2    8   19      3.30      0.00
   -2    8   18     -1.20      0.00
   -2    8   17      0.16      0.00
   -2    8   16      0.66      0.00
   -2    8   15     -3.69      0.00
   -2    8   14      4.21      0.00
   -2    8   13     -2.43      0.00
   -2    8   12      5.70      0.00
   -2    8   11      1.18      0.00
   -2    8   10     -0.19      0.00
   -2    8    9      1.92      0.00
   -2    8    8     -3.83      0.00
   -2    8    7     -2.53      0.00
   -2    8    6     -2.71      0.00
   -2    8    5     -1.16      0.00
   -2    8    4     -0.91      0.00
   -2    8    3      6.70      0.00
   -2    8    2     10.04      0.00
   -2    8    1      6.71      0.00
    2    8    0     10.64      0.00
    2    8    1      1.58      0.00
    2    8    2     -8.58      0.00
    2    8    3      1.86      0.00
    2    8    4    -17.23      0.00
    2    8    5     -3.23      0.00
    2    8    6      0.52      0.00
    2    8    7      2.35      0.00
    2    8    8     10.92      0.00
    2    8    9      6.46      0.00
    2    8   10      5.28      0.00
    2    8   11      4.44      0.00
    2    8   12     -2.98      0.00
    2    8   13     -1.98      0.00
    2    8   14     -2.09      0.00
    2    8   15     -1.52      0.00
    2    8   16      0.02      0.00
    2    8   17     -2.39      0.00
    2    8   18     -2.72      0.00
    2    8   19     -1.28      0.00
   -2    9   19      3.03      0.00
   -2    9   18     -2.69      0.00
   -2    9   17      1.61      0.00
   -2    9   16     -0.71      0.00
   -2    9   15     -0.86      0.00
   -2    9   14      2.60      0.00
   -2    9   13     -6.20      0.00
   -2    9   12      1.76      0.00
   -2    9   11     -4.47      0.00
   -2    9   10     -0.39      0.00
   -2    9    9      1.95      0.00
   -2    9    8     -0.85      0.00
   -2    9    7      2.53      0.00
   -2    9    6      2.35      0.00
   -2    9    5      0.91      0.00
   -2    9    4     -4.70      0.00
   -2    9    3     -4.56      0.00
   -2    9    2     -8.34      0.00
   -2    9    1     -8.61      0.00
    2    9    0     -0.99      0.00
    2    9    1      1.00      0.00
    2    9    2     -7.74      0.00
    2    9    3      9.89      0.00
    2    9    4      3.21      0.00
    2    9    5      6.50      0.00
    2    9    6      6.29      0.00
    2    9    7     -4.60      0.00
    2    9    8     -3.89      0.00
    2    9    9     -6.42      0.00
    2    9   10     -7.24      0.00
    2    9   11     -2.43      0.00
    2    9   12     -0.59      0.00
    2    9   13      2.72      0.00
    2    9   14      3.44      0.00
    2    9   15     -0.74      0.00
    2    9   16      0.55      0.00
    2    9   17      1.16      0.00
   -2   10   17      2.55      0.00
   -2   10   16     -2.52      0.00
   -2   10   15      1.41      0.00
   -2   10   14      1.84      0.00
   -2   10   13     -0.98      0.00
   -2   10   12      6.59      0.00
   -2   10   11     -1.30      0.00
   -2   10   10      3.23      0.00
   -2   10    9      0.62      0.00
   -2   10    8     -3.87      0.00
   -2   10    7     -0.95      0.00
   -2   10    6     -1.86      0.00
   -2   10    5      0.77      0.00
   -2   10    4      3.02      0.00
   -2   10    3      8.04      0.00
   -2   10    2      4.95      0.00
   -2   10    1      2.30      0.00
    2   10    0      0.37      0.00
    2   10    1      8.07      0.00
    2   10    2     -3.96      0.00
    2   10    3      2.19      0.00
    2   10    4     -3.48      0.00
    2   10    5     -8.25      0.00
    2   10    6     -3.25      0.00
    2   10    7     -3.46      0.00
    2   10    8      1.48      0.00
    2   10    9      6.32      0.00
    2   10   10      5.51      0.00
    2   10   11      4.05      0.00
    2   10   12      2.33      0.00
    2   10   13     -2.05      0.00
    2   10   14     -1.26      0.00
    2   10   15     -2.28      0.00
    2   10   16     -0.46      0.00
   -2   11   16     -2.87      0.00
   -2   11   15      2.22      0.00
   -2   11   14     -3.02      0.00
   -2   11   13     -3.47      0.00
   -2   11   12     -0.31      0.00
   -2   11   11     -5.26      0.00
   -2   11   10      3.00      0.00
   -2   11    9      1.00      0.00
   -2   11    8      1.51      0.00
   -2   11    7      5.69      0.00
   -2   11    6     -0.89      0.00
   -2   11    5     -2.13      0.00
   -2   11    4     -5.31      0.00
   -2   11    3     -4.38      0.00
   -2   11    2     -4.33      0.00
   -2   11    1      0.33      0.00
    2   11    0     -5.29      0.00
    2   11    1      2.69      0.00
    2   11    2     -4.73      0.00
    2   11    3     -0.46      0.00
    2   11    4      2.87      0.00
    2   11    5      2.28      0.00
    2   11    6      6.47      0.00
    2   11    7      5.57      0.00
    2   11    8      1.06      0.00
    2   11    9     -0.95      0.00
    2   11   10     -2.33      0.00
    2   11   11     -6.37      0.00
    2   11   12     -2.57      0.00
    2   11   13     -1.27      0.00
    2   11   14      0.82      0.00
    2   11   15      1.78      0.00
   -2   12   14     -0.85      0.00
   -2   12   13      2.61      0.00
   -2   12   12      1.47      0.00
   -2   12   11     -2.21      0.00
   -2   12   10      0.80      0.00
   -2   12    9     -6.14      0.00
   -2   12    8     -3.19      0.00
   -2   12    7      0.99      0.00
   -2   12    6     -1.44      0.00
   -2   12    5      5.68      0.00
   -2   12    4      3.85      0.00
   -2   12    3      4.17      0.00
   -2   12    2      0.11      0.00
   -2   12    1     -2.88      0.00
    2   12    0     -2.96      0.00
    2   12    1      4.94      0.00
    2   12    2      0.66      0.00
    2   12    3      0.01      0.00
    2   12    4      0.79      0.00
    2   12    5     -2.49      0.00
    2   12    6     -2.97      0.00
    2   12    7     -3.47      0.00
    2   12    8     -4.96      0.00
    2   12    9     -4.04      0.00
    2   12   10      1.77      0.00
    2   12   11      0.42      0.00
    2   12   12      2.56      0.00
    2   12   13      3.91      0.00
   -2   13   11      2.15      0.00
   -2   13   10      4.19      0.00
   -2   13    9      0.03      0.00
   -2   13    8      3.20      0.00
   -2   13    7     -0.54      0.00
   -2   13    6     -4.83      0.00
   -2   13    5     -1.11      0.00
   -2   13    4     -4.74      0.00
   -2   13    3      0.12      0.00
   -2   13    2      0.77      0.00
   -2   13    1      3.22      0.00
    2   13    0     -4.05      0.00
    2   13    1     -0.54      0.00
    2   13    2     -1.46      0.00
    2   13    3     -1.42      0.00
    2   13    4      1.42      0.00
    2   13    5      0.14      0.00
    2   13    6      0.94      0.00
    2   13    7      2.43      0.00
    2   13    8      2.47      0.00
    2   13    9      1.65      0.00
    2   13   10      4.88      0.00
   -2   14    8      2.33      0.00
   -2   14    7      0.31      0.00
   -2   14    6      1.41      0.00
   -2   14    5      3.12      0.00
   -2   14    4     -0.42      0.00
   -2   14    3      0.72      0.00
   -2   14    2     -2.81      0.00
   -2   14    1     -1.41      0.00
    2   14    0     -1.02      0.00
    2   14    1      1.07      0.00
    2   14    2      2.22      0.00
    2   14    3      0.41      0.00
    2   14    4      0.71      0.00
    2   14    5     -1.28      0.00
    2   14    6     -1.43      0.00
    2   14    7      0.12      0.00
   -3    0   23      5.72      0.00
   -3    0   21     -0.57      0.00
   -3    0   19     -9.85      0.00
   -3    0   17     -7.10      0.00
   -3    0   15      2.79      0.00
   -3    0   13      6.18      0.00
   -3    0   11      2.70      0.00
   -3    0    9     12.43      0.00
   -3    0    7      9.78      0.00
   -3    0    5    -15.82      0.00
   -3    0    3      2.27      0.00
   -3    0    1     31.99      0.00
    3    0    1     -6.34      0.00
    3    0    3    -16.78      0.00
    3    0    5    -21.74      0.00
    3    0    7    -12.66      0.00
    3    0    9      4.80      0.00
    3    0   11     14.84      0.00
    3    0   13      2.17      0.00
    3    0   15     -4.99      0.00
    3    0   17     -0.08      0.00
    3    0   19      3.21      0.00
    3    0   21      0.27      0.00
   -3    1   23      2.51      0.00
   -3    1   22     -3.59      0.00
   -3    1   21      5.56      0.00
   -3    1   20      4.21      0.00
   -3    1   19      0.54      0.00
   -3    1   18      9.23      0.00
   -3    1   17     -4.21      0.00
   -3    1   16      3.05      0.00
   -3    1   15     -2.80      0.00
   -3    1   14     -5.74      0.00
   -3    1   13      1.40      0.00
   -3    1   12     -3.85      0.00
   -3    1   11     -1.56      0.00
   -3    1   10     -4.43      0.00
   -3    1    9      0.59      0.00
   -3    1    8    -10.56      0.00
   -3    1    7     11.35      0.00
   -3    1    6     -3.75      0.00
   -3    1    5      2.70      0.00
   -3    1    4     12.31      0.00
   -3    1    3    -14.38      0.00
   -3    1    2    -17.79      0.00
   -3    1    1     11.16      0.00
    3    1    0    -16.29      0.00
    3    1    1    -10.28      0.00
    3    1    2      7.97      0.00
    3    1    3      2.07      0.00
    3    1    4     21.85      0.00
    3    1    5      0.01      0.00
    3    1    6     18.53      0.00
    3    1    7      4.12      0.00
    3    1    8      3.78      0.00
    3    1    9      8.38      0.00
    3    1   10    -11.35      0.00
    3    1   11      0.78      0.00
    3    1   12     -7.42      0.00
    3    1   13     -5.23      0.00
    3    1   14      2.17      0.00
    3    1   15     -1.40      0.00
    3    1   16      1.97      0.00
    3    1   17      1.92      0.00
    3    1   18     -1.95      0.00
    3    1   19     -0.64      0.00
    3    1   20     -2.09      0.00
    3    1   21     -1.58      0.00
    3    1   22      1.74      0.00
   -3    2   23      0.34      0.00
   -3    2   22     -6.61      0.00
   -3    2   21      2.13      0.00
   -3    2   20     -6.78      0.00
   -3    2   19     -3.47      0.00
   -3    2   18      2.72      0.00
   -3    2   17     -7.22      0.00
   -3    2   16      7.29      0.00
   -3    2   15     -0.12      0.00
   -3    2   14      1.92      0.00
   -3    2   13      5.62      0.00
   -3    2   12     -2.93      0.00
   -3    2   11      3.05      0.00
   -3    2   10      2.55      0.00
   -3    2    9      0.55      0.00
   -3    2    8     -4.52      0.00
   -3    2    7      9.53      0.00
   -3    2    6    -13.15      0.00
   -3    2    5      6.08      0.00
   -3    2    4      6.32      0.00
   -3    2    3     -3.78      0.00
   -3    2    2      8.59      0.00
   -3    2    1     12.15      0.00
    3    2    0     18.82      0.00
    3    2    1     14.10      0.00
    3    2    2      9.61      0.00
    3    2    3    -11.43      0.00
    3    2    4      4.64      0.00
    3    2    5    -23.04      0.00
    3    2    6     -5.19      0.00
    3    2    7     -8.35      0.00
    3    2    8    -12.84      0.00
    3    2    9      4.71      0.00
    3    2   10     -9.29      0.00
    3    2   11      5.32      0.00
    3    2   12      5.47      0.00
    3    2   13      0.20      0.00
    3    2   14      5.38      0.00
    3    2   15      0.52      0.00
    3    2   16     -1.70      0.00
    3    2   17      1.31      0.00
    3    2   18     -0.60      0.00
    3    2   19      1.80      0.00
    3    2   20      1.94      0.00
    3    2   21      0.62      0.00
    3    2   22      1.75      0.00
   -3    3   23      0.77      0.00
   -3    3   22      0.08      0.00
   -3    3   21      6.74      0.00
   -3    3   20     -2.84      0.00
   -3    3   19      5.38      0.00
   -3    3   18      2.41      0.00
   -3    3   17     -5.09      0.00
   -3    3   16      5.07      0.00
   -3    3   15     -8.78      0.00
   -3    3   14     -1.32      0.00
   -3    3   13      0.93      0.00
   -3    3   12     -5.57      0.00
   -3    3   11      3.14      0.00
   -3    3   10     -1.70      0.00
   -3    3    9     -2.83      0.00
   -3    3    8      0.18      0.00
   -3    3    7      3.09      0.00
   -3    3    6    -11.34      0.00
   -3    3    5      9.24      0.00
   -3    3    4     -5.80      0.00
   -3    3    3     -8.16      0.00
   -3    3    2      3.78      0.00
   -3    3    1      0.37      0.00
    3    3    0    -11.54      0.00
    3    3    1    -16.26      0.00
    3    3    2     -6.96      0.00
    3    3    3    -19.51      0.00
    3    3    4     15.70      0.00
    3    3    5     -0.61      0.00
    3    3    6     11.44      0.00
    3    3    7     14.59      0.00
    3    3    8     -2.58      0.00
    3    3    9     14.71      0.00
    3    3   10     -1.37      0.00
    3    3   11     -0.51      0.00
    3    3   12      2.70      0.00
    3    3   13     -5.31      0.00
    3    3   14     -2.41      0.00
    3    3   15      0.27      0.00
    3    3   16     -3.40      0.00
    3    3   17      1.52      0.00
    3    3   18     -1.23      0.00
    3    3   19     -1.69      0.00
    3    3   20     -1.92      0.00
    3    3   21     -3.27      0.00
   -3    4   23     -3.20      0.00
   -3    4   22     -0.60      0.00
   -3    4   21      0.71      0.00
   -3    4   20     -5.56      0.00
   -3    4   19      1.86      0.00
   -3    4   18     -3.71      0.00
   -3    4   17     -0.18      0.00
   -3    4   16      8.21      0.00
   -3    4   15     -2.42      0.00
   -3    4   14      7.72      0.00
   -3    4   13      0.66      0.00
   -3    4   12     -2.99      0.00
   -3    4   11      7.13      0.00
   -3    4   10     -2.52      0.00
   -3    4    9      1.49      0.00
   -3    4    8      4.82      0.00
   -3    4    7      0.77      0.00
   -3    4    6     -3.91      0.00
   -3    4    5      9.44      0.00
   -3    4    4     -5.78      0.00
   -3    4    3      1.33      0.00
   -3    4    2      6.52      0.00
   -3    4    1     -2.30      0.00
    3    4    0      1.66      0.00
    3    4    1      6.40      0.00
    3    4    2     24.74      0.00
    3    4    3     -2.21      0.00
    3    4    4     16.62      0.00
    3    4    5     -6.57      0.00
    3    4    6    -13.04      0.00
    3    4    7      1.31      0.00
    3    4    8    -16.98      0.00
    3    4    9      0.09      0.00
    3    4   10     -2.80      0.00
    3    4   11     -5.05      0.00
    3    4   12      3.03      0.00
    3    4   13      0.97      0.00
    3    4   14     -1.29      0.00
    3    4   15      5.30      0.00
    3    4   16     -1.29      0.00
    3    4   17      0.92      0.00
    3    4   18      0.48      0.00
    3    4   19      1.26      0.00
    3    4   20      3.78      0.00
    3    4   21      1.70      0.00
   -3    5   22      0.74      0.00
   -3    5   21      1.85      0.00
   -3    5   20      0.51      0.00
   -3    5   19      3.60      0.00
   -3    5   18     -2.91      0.00
   -3    5   17     -1.22      0.00
   -3    5   16     -2.22      0.00
   -3    5   15     -8.42      0.00
   -3    5   14      3.55      0.00
   -3    5   13     -5.14      0.00
   -3    5   12     -1.02      0.00
   -3    5   11      3.10      0.00
   -3    5   10     -8.69      0.00
   -3    5    9      2.48      0.00
   -3    5    8     -0.25      0.00
   -3    5    7     -3.52      0.00
   -3    5    6      0.74      0.00
   -3    5    5      6.15      0.00
   -3    5    4     -6.77      0.00
   -3    5    3      1.73      0.00
   -3    5    2     -0.51      0.00
   -3    5    1     -8.13      0.00
    3    5    0      4.56      0.00
    3    5    1    -10.40      0.00
    3    5    2      3.24      0.00
    3    5    3    -26.30      0.00
    3    5    4     -4.55      0.00
    3    5    5      1.80      0.00
    3    5    6     -3.87      0.00
    3    5    7     17.42      0.00
    3    5    8      1.52      0.00
    3    5    9      6.60      0.00
    3    5   10      6.88      0.00
    3    5   11     -1.52      0.00
    3    5   12     -0.81      0.00
    3    5   13      1.98      0.00
    3    5   14     -4.30      0.00
    3    5   15      0.87      0.00
    3    5   16     -1.90      0.00
    3    5   17     -0.35      0.00
    3    5   18      0.18      0.00
    3    5   19     -1.29      0.00
    3    5   20     -1.07      0.00
   -3    6   22     -0.95      0.00
   -3    6   21      0.96      0.00
   -3    6   20     -3.00      0.00
   -3    6   19      1.54      0.00
   -3    6   18      0.76      0.00
   -3    6   17      3.78      0.00
   -3    6   16      2.99      0.00
   -3    6   15     -0.76      0.00
   -3    6   14      6.46      0.00
   -3    6   13     -4.51      0.00
   -3    6   12      4.45      0.00
   -3    6   11      1.92      0.00
   -3    6   10     -4.57      0.00
   -3    6    9      7.54      0.00
   -3    6    8     -3.27      0.00
   -3    6    7     -2.44      0.00
   -3    6    6      0.07      0.00
   -3    6    5     -0.31      0.00
   -3    6    4     -3.16      0.00
   -3    6    3      8.24      0.00
   -3    6    2      3.42      0.00
   -3    6    1     -1.98      0.00
    3    6    0     -0.72      0.00
    3    6    1    -13.86      0.00
    3    6    2     16.23      0.00
    3    6    3      3.45      0.00
    3    6    4     10.37      0.00
    3    6    5     13.05      0.00
    3    6    6    -10.13      0.00
    3    6    7      0.28      0.00
    3    6    8     -8.61      0.00
    3    6    9     -8.86      0.00
    3    6   10     -3.62      0.00
    3    6   11     -2.71      0.00
    3    6   12     -1.19      0.00
    3    6   13      3.81      0.00
    3    6   14     -0.63      0.00
    3    6   15      1.59      0.00
    3    6   16      1.51      0.00
    3    6   17      1.28      0.00
    3    6   18      0.23      0.00
    3    6   19     -0.48      0.00
    3    6   20      1.62      0.00
   -3    7   21      2.72      0.00
   -3    7   20     -4.04      0.00
   -3    7   19      2.13      0.00
   -3    7   18     -3.71      0.00
   -3    7   17     -0.14      0.00
   -3    7   16     -1.00      0.00
   -3    7   15     -3.09      0.00
   -3    7   14      3.52      0.00
   -3    7   13     -6.29      0.00
   -3    7   12      5.22      0.00
   -3    7   11     -2.64      0.00
   -3    7   10     -2.57      0.00
   -3    7    9      5.06      0.00
   -3    7    8     -4.84      0.00
   -3    7    7      3.99      0.00
   -3    7    6      2.99      0.00
   -3    7    5     -0.73      0.00
   -3    7    4     -4.90      0.00
   -3    7    3     -1.92      0.00
   -3    7    2     -5.44      0.00
   -3    7    1      1.35      0.00
    3    7    0     11.50      0.00
    3    7    1     -6.59      0.00
    3    7    2      8.90      0.00
    3    7    3     -6.98      0.00
    3    7    4    -14.19      0.00
    3    7    5     -0.57      0.00
    3    7    6     -8.08      0.00
    3    7    7      5.12      0.00
    3    7    8      5.68      0.00
    3    7    9      4.55      0.00
    3    7   10      7.81      0.00
    3    7   11      5.13      0.00
    3    7   12     -0.44      0.00
    3    7   13     -0.06      0.00
    3    7   14     -1.36      0.00
    3    7   15     -0.61      0.00
    3    7   16     -1.25      0.00
    3    7   17     -1.81      0.00
    3    7   18     -1.68      0.00
    3    7   19     -0.91      0.00
   -3    8   20     -3.12      0.00
   -3    8   19      5.64      0.00
   -3    8   18     -2.89      0.00
   -3    8   17      3.52      0.00
   -3    8   16     -2.33      0.00
   -3    8   15      0.08      0.00
   -3    8   14      3.66      0.00
   -3    8   13     -5.37      0.00
   -3    8   12      6.16      0.00
   -3    8   11     -4.24      0.00
   -3    8   10      2.15      0.00
   -3    8    9      3.22      0.00
   -3    8    8     -6.09      0.00
   -3    8    7      0.40      0.00
   -3    8    6     -2.21      0.00
   -3    8    5      1.48      0.00
   -3    8    4      3.51      0.00
   -3    8    3      5.56      0.00
   -3    8    2     -1.44      0.00
   -3    8    1     -4.27      0.00
    3    8    0      7.38      0.00
    3    8    1    -11.23      0.00
    3    8    2      0.97      0.00
    3    8    3      3.79      0.00
    3    8    4      0.33      0.00
    3    8    5     12.70      0.00
    3    8    6      1.67      0.00
    3    8    7      0.32      0.00
    3    8    8     -0.50      0.00
    3    8    9     -5.97      0.00
    3    8   10     -5.90      0.00
    3    8   11     -4.24      0.00
    3    8   12     -3.50      0.00
    3    8   13      0.82      0.00
    3    8   14      0.72      0.00
    3    8   15     -0.75      0.00
    3    8   16      0.59      0.00
    3    8   17      1.63      0.00
    3    8   18      2.18      0.00
   -3    9   19      1.90      0.00
   -3    9   18     -4.24      0.00
   -3    9   17      4.60      0.00
   -3    9   16     -3.60      0.00
   -3    9   15      3.05      0.00
   -3    9   14     -1.00      0.00
   -3    9   13     -3.79      0.00
   -3    9   12      4.71      0.00
   -3    9   11     -6.45      0.00
   -3    9   10      3.50      0.00
   -3    9    9      2.06      0.00
   -3    9    8      0.13      0.00
   -3    9    7      5.60      0.00
   -3    9    6     -1.30      0.00
   -3    9    5     -2.76      0.00
   -3    9    4     -4.03      0.00
   -3    9    3     -0.38      0.00
   -3    9    2      1.10      0.00
   -3    9    1      7.36      0.00
    3    9    0      7.37      0.00
    3    9    1     -2.31      0.00
    3    9    2      1.39      0.00
    3    9    3      5.04      0.00
    3    9    4     -6.96      0.00
    3    9    5     -2.94      0.00
    3    9    6     -5.40      0.00
    3    9    7     -4.69      0.00
    3    9    8      1.45      0.00
    3    9    9      2.93      0.00
    3    9   10      2.49      0.00
    3    9   11      5.95      0.00
    3    9   12      2.28      0.00
    3    9   13      0.25      0.00
    3    9   14      0.60      0.00
    3    9   15     -1.07      0.00
    3    9   16      1.51      0.00
    3    9   17      0.18      0.00
   -3   10   17      1.63      0.00
   -3   10   16     -4.39      0.00
   -3   10   15      5.47      0.00
   -3   10   14     -2.15      0.00
   -3   10   13      1.45      0.00
   -3   10   12      2.10      0.00
   -3   10   11     -5.79      0.00
   -3   10   10      2.01      0.00
   -3   10    9     -5.29      0.00
   -3   10    8     -4.45      0.00
   -3   10    7      2.36      0.00
   -3   10    6      0.34      0.00
   -3   10    5      3.60      0.00
   -3   10    4      1.97      0.00
   -3   10    3     -0.37      0.00
   -3   10    2     -5.31      0.00
   -3   10    1     -4.49      0.00
    3   10    0      4.01      0.00
    3   10    1     -0.56      0.00
    3   10    2     -4.70      0.00
    3   10    3      1.57      0.00
    3   10    4     -1.91      0.00
    3   10    5      3.04      0.00
    3   10    6      6.22      0.00
    3   10    7      3.96      0.00
    3   10    8      1.02      0.00
    3   10    9      1.81      0.00
    3   10   11     -2.90      0.00
    3   10   12     -1.92      0.00
    3   10   13     -2.29      0.00
    3   10   14      2.07      0.00
    3   10   15     -1.52      0.00
    3   10   16     -0.85      0.00
   -3   11   16     -2.23      0.00
   -3   11   15      3.41      0.00
   -3   11   14     -4.53      0.00
   -3   11   13      4.00      0.00
   -3   11   12      1.37      0.00
   -3   11   11      0.95      0.00
   -3   11   10      6.99      0.00
   -3   11    9     -1.01      0.00
   -3   11    8      0.49      0.00
   -3   11    7      0.55      0.00
   -3   11    6     -5.74      0.00
   -3   11    5     -0.84      0.00
   -3   11    4     -0.58      0.00
   -3   11    3      2.61      0.00
   -3   11    2      3.30      0.00
   -3   11    1      3.86      0.00
    3   11    0      0.01      0.00
    3   11    1      2.19      0.00
    3   11    2     -1.56      0.00
    3   11    3      3.25      0.00
    3   11    4      0.85      0.00
    3   11    5     -0.52      0.00
    3   11    6     -3.04      0.00
    3   11    7     -3.81      0.00
    3   11    8     -6.82      0.00
    3   11    9      0.96      0.00
    3   11   10      0.11      0.00
    3   11   11      1.09      0.00
    3   11   12      4.11      0.00
    3   11   13     -0.58      0.00
    3   11   14      1.57      0.00
   -3   12   14     -4.87      0.00
   -3   12   13      1.71      0.00
   -3   12   12     -4.76      0.00
   -3   12   11     -1.54      0.00
   -3   12   10      1.28      0.00
   -3   12    9     -3.45      0.00
   -3   12    8      4.12      0.00
   -3   12    7      3.20      0.00
   -3   12    6     -0.33      0.00
   -3   12    5      3.82      0.00
   -3   12    4     -2.44      0.00
   -3   12    3     -1.66      0.00
   -3   12    2     -3.33      0.00
   -3   12    1     -0.64      0.00
    3   12    0     -0.94      0.00
    3   12    1      1.83      0.00
    3   12    2     -2.23      0.00
    3   12    3      0.49      0.00
    3   12    4     -2.02      0.00
    3   12    5     -0.96      0.00
    3   12    6      0.11      0.00
    3   12    7      4.34      0.00
    3   12    8      1.46      0.00
    3   12    9      4.91      0.00
    3   12   10      2.80      0.00
    3   12   11     -2.12      0.00
    3   12   12      0.48      0.00
   -3   13   11      2.04      0.00
   -3   13   10     -0.82      0.00
   -3   13    9     -4.17      0.00
   -3   13    8      1.84      0.00
   -3   13    7     -3.90      0.00
   -3   13    6     -2.14      0.00
   -3   13    5      1.67      0.00
   -3   13    4     -0.96      0.00
   -3   13    3      3.93      0.00
   -3   13    2      0.26      0.00
   -3   13    1      0.68      0.00
    3   13    0     -1.91      0.00
    3   13    1      2.22      0.00
    3   13    2     -1.02      0.00
    3   13    3      1.58      0.00
    3   13    4     -0.14      0.00
    3   13    5      0.28      0.00
    3   13    6      0.55      0.00
    3   13    7      1.32      0.00
    3   13    8     -3.10      0.00
    3   13    9     -2.53      0.00
    3   13   10     -1.21      0.00
   -3   14    8      3.61      0.00
   -3   14    7     -1.51      0.00
   -3   14    6      2.59      0.00
   -3   14    5     -0.11      0.00
   -3   14    4     -2.30      0.00
   -3   14    3     -0.37      0.00
   -3   14    2     -1.67      0.00
    3   14    0     -0.47      0.00
    3   14    1      1.75      0.00
    3   14    2     -1.57      0.00
    3   14    3      0.07      0.00
    3   14    4      0.06      0.00
    3   14    5     -0.72      0.00
    3   14    6      0.02      0.00
   -4    0   24     -0.90      0.00
   -4    0   22     -6.16      0.00
   -4    0   20     -1.60      0.00
   -4    0   18      9.32      0.00
   -4    0   16     12.45      0.00
   -4    0   14      2.51      0.00
   -4    0   12     -8.70      0.00
   -4    0   10    -12.16      0.00
   -4    0    8     -7.95      0.00
   -4    0    6     -6.44      0.00
   -4    0    4     -2.13      0.00
   -4    0    2    -11.33      0.00
    4    0    0     -0.61      0.00
    4    0    2      6.48      0.00
    4    0    4      3.15      0.00
    4    0    6      9.71      0.00
    4    0    8     14.71      0.00
    4    0   10     -0.08      0.00
    4    0   12     -9.99      0.00
    4    0   14     -3.52      0.00
    4    0   16      2.80      0.00
    4    0   18     -0.58      0.00
    4    0   20     -2.98      0.00
   -4    1   23      2.34      0.00
   -4    1   22     -1.88      0.00
   -4    1   21      4.71      0.00
   -4    1   20     -5.71      0.00
   -4    1   19     -2.96      0.00
   -4    1   18     -2.88      0.00
   -4    1   17    -11.04      0.00
   -4    1   16      1.77      0.00
   -4    1   15     -8.00      0.00
   -4    1   14      4.99      0.00
   -4    1   13      4.20      0.00
   -4    1   12      2.92      0.00
   -4    1   11      9.70      0.00
   -4    1   10      0.74      0.00
   -4    1    9      6.94      0.00
   -4    1    8     -4.95      0.00
   -4    1    7      5.44      0.00
   -4    1    6     -4.70      0.00
   -4    1    5      8.52      0.00
   -4    1    4      2.39      0.00
   -4    1    3      4.52      0.00
   -4    1    2     -0.64      0.00
   -4    1    1      6.54      0.00
    4    1    0     11.88      0.00
    4    1    1     -2.22      0.00
    4    1    2     -1.13      0.00
    4    1    3     -1.51      0.00
    4    1    4     -0.40      0.00
    4    1    5     -7.24      0.00
    4    1    6      3.58      0.00
    4    1    7    -12.41      0.00
    4    1    8     -1.38      0.00
    4    1    9     -7.81      0.00
    4    1   10     -8.53      0.00
    4    1   11      5.89      0.00
    4    1   12     -2.34      0.00
    4    1   13      5.84      0.00
    4    1   14      3.46      0.00
    4    1   15     -0.11      0.00
    4    1   16      0.58      0.00
    4    1   17     -1.22      0.00
    4    1   18     -1.09      0.00
    4    1   19      1.15      0.00
    4    1   20      0.79      0.00
    4    1   21      2.73      0.00
   -4    2   23     -1.34      0.00
   -4    2   22     -1.20      0.00
   -4    2   21      5.73      0.00
   -4    2   20     -2.79      0.00
   -4    2   19      8.45      0.00
   -4    2   18      4.24      0.00
   -4    2   17      0.98      0.00
   -4    2   16      9.31      0.00
   -4    2   15     -6.57      0.00
   -4    2   14      1.45      0.00
   -4    2   13     -6.44      0.00
   -4    2   12     -6.36      0.00
   -4    2   11     -0.36      0.00
   -4    2   10     -4.78      0.00
   -4    2    9      3.67      0.00
   -4    2    8      0.01      0.00
   -4    2    7      3.06      0.00
   -4    2    6    -10.81      0.00
   -4    2    5      0.92      0.00
   -4    2    4     -9.31      0.00
   -4    2    3     -1.39      0.00
   -4    2    2      0.61      0.00
   -4    2    1     11.53      0.00
    4    2    0     -3.06      0.00
    4    2    1     -7.34      0.00
    4    2    2     -6.63      0.00
    4    2    3      0.17      0.00
    4    2    4      4.90      0.00
    4    2    5     -5.41      0.00
    4    2    6     10.63      0.00
    4    2    7     -4.10      0.00
    4    2    8      7.37      0.00
    4    2    9     10.17      0.00
    4    2   10     -0.76      0.00
    4    2   11      9.31      0.00
    4    2   12     -1.53      0.00
    4    2   13     -1.55      0.00
    4    2   14     -1.28      0.00
    4    2   15     -3.75      0.00
    4    2   16     -0.68      0.00
    4    2   17      0.80      0.00
    4    2   18      0.49      0.00
    4    2   19      0.92      0.00
    4    2   20     -1.65      0.00
    4    2   21     -0.88      0.00
   -4    3   23     -3.01      0.00
   -4    3   22      0.11      0.00
   -4    3   21      0.94      0.00
   -4    3   20     -7.38      0.00
   -4    3   19      2.52      0.00
   -4    3   18     -8.69      0.00
   -4    3   17     -4.64      0.00
   -4    3   16      3.09      0.00
   -4    3   15     -5.72      0.00
   -4    3   14     10.37      0.00
   -4    3   13      0.92      0.00
   -4    3   12      2.45      0.00
   -4    3   11      4.77      0.00
   -4    3   10     -5.00      0.00
   -4    3    9      0.96      0.00
   -4    3    8     -0.75      0.00
   -4    3    7      4.97      0.00
   -4    3    6      3.76      0.00
   -4    3    5     11.75      0.00
   -4    3    4     -2.05      0.00
   -4    3    3      0.09      0.00
   -4    3    2     -6.69      0.00
   -4    3    1     -3.90      0.00
    4    3    0      6.76      0.00
    4    3    1     10.98      0.00
    4    3    2      3.30      0.00
    4    3    3      3.56      0.00
    4    3    4      9.76      0.00
    4    3    5    -10.71      0.00
    4    3    6      7.36      0.00
    4    3    7     -5.84      0.00
    4    3    8     -5.25      0.00
    4    3    9      1.96      0.00
    4    3   10    -10.97      0.00
    4    3   11     -1.60      0.00
    4    3   12     -2.59      0.00
    4    3   13     -2.40      0.00
    4    3   14      2.40      0.00
    4    3   15      2.24      0.00
    4    3   16      0.93      0.00
    4    3   17      1.17      0.00
    4    3   18     -1.20      0.00
    4    3   19      0.76      0.00
    4    3   20     -0.82      0.00
    4    3   21      0.85      0.00
   -4    4   23     -2.03      0.00
   -4    4   22      1.75      0.00
   -4    4   21      0.32      0.00
   -4    4   20      0.15      0.00
   -4    4   19      9.01      0.00
   -4    4   18     -1.24      0.00
   -4    4   17      7.02      0.00
   -4    4   16      1.83      0.00
   -4    4   15     -8.92      0.00
   -4    4   14      3.36      0.00
   -4    4   13     -9.94      0.00
   -4    4   12      1.07      0.00
   -4    4   11      2.36      0.00
   -4    4   10     -4.94      0.00
   -4    4    9      4.56      0.00
   -4    4    8     -5.27      0.00
   -4    4    7     -6.14      0.00
   -4    4    6     -7.83      0.00
   -4    4    5      0.07      0.00
   -4    4    4     -2.48      0.00
   -4    4    3      8.51      0.00
   -4    4    2      5.98      0.00
   -4    4    1      2.25      0.00
    4    4    0     -3.83      0.00
    4    4    1      2.32      0.00
    4    4    2     -7.12      0.00
    4    4    3    -14.33      0.00
    4    4    4      5.56      0.00
    4    4    5    -11.72      0.00
    4    4    6      6.06      0.00
    4    4    7      2.71      0.00
    4    4    8     -3.37      0.00
    4    4    9      8.71      0.00
    4    4   10      0.83      0.00
    4    4   11      2.35      0.00
    4    4   12      3.88      0.00
    4    4   13      1.17      0.00
    4    4   14     -0.52      0.00
    4    4   15     -0.70      0.00
    4    4   16     -3.01      0.00
    4    4   17      0.42      0.00
    4    4   18     -1.07      0.00
    4    4   19      1.52      0.00
    4    4   20     -0.64      0.00
   -4    5   22      1.36      0.00
   -4    5   21     -1.52      0.00
   -4    5   20     -3.15      0.00
   -4    5   19     -2.52      0.00
   -4    5   18     -7.77      0.00
   -4    5   17      3.88      0.00
   -4    5   16     -0.72      0.00
   -4    5   15      1.70      0.00
   -4    5   14     10.24      0.00
   -4    5   13     -5.92      0.00
   -4    5   12      7.46      0.00
   -4    5   11     -2.10      0.00
   -4    5   10     -3.47      0.00
   -4    5    9      9.12      0.00
   -4    5    8      0.27      0.00
   -4    5    7      7.54      0.00
   -4    5    6      3.27      0.00
   -4    5    5      0.48      0.00
   -4    5    4     -9.19      0.00
   -4    5    3     -2.67      0.00
   -4    5    2     -5.35      0.00
   -4    5    1      2.04      0.00
    4    5    0     -8.03      0.00
    4    5    1      0.99      0.00
    4    5    2      6.56      0.00
    4    5    3     -3.42      0.00
    4    5    4     17.15      0.00
    4    5    5     -1.86      0.00
    4    5    6     -0.22      0.00
    4    5    7      2.55      0.00
    4    5    8     -6.92      0.00
    4    5    9     -0.84      0.00
    4    5   10     -2.61      0.00
    4    5   11     -3.07      0.00
    4    5   12     -1.20      0.00
    4    5   13     -0.41      0.00
    4    5   14     -1.69      0.00
    4    5   15      2.01      0.00
    4    5   16      1.07      0.00
    4    5   17      2.31      0.00
    4    5   18     -1.59      0.00
    4    5   19      0.32      0.00
    4    5   20      0.38      0.00
   -4    6   22      0.30      0.00
   -4    6   21      2.31      0.00
   -4    6   20      1.84      0.00
   -4    6   19      3.70      0.00
   -4    6   18     -0.91      0.00
   -4    6   17      2.48      0.00
   -4    6   16     -6.21      0.00
   -4    6   15     -2.13      0.00
   -4    6   14      0.45      0.00
   -4    6   13     -7.93      0.00
   -4    6   12      8.54      0.00
   -4    6   11     -6.25      0.00
   -4    6   10     -0.32      0.00
   -4    6    9      1.10      0.00
   -4    6    8    -11.93      0.00
   -4    6    7      0.07      0.00
   -4    6    6     -0.73      0.00
   -4    6    5      5.36      0.00
   -4    6    4      4.39      0.00
   -4    6    3      7.00      0.00
   -4    6    2     -4.99      0.00
   -4    6    1     -3.05      0.00
    4    6    0     -2.99      0.00
    4    6    1      1.90      0.00
    4    6    2      8.48      0.00
    4    6    3    -12.04      0.00
    4    6    4     -0.89      0.00
    4    6    5     -5.73      0.00
    4    6    6     -3.82      0.00
    4    6    7      4.73      0.00
    4    6    8     -0.21      0.00
    4    6    9      3.16      0.00
    4    6   10      4.65      0.00
    4    6   11      2.61      0.00
    4    6   12      0.18      0.00
    4    6   13      1.64      0.00
    4    6   14      0.38      0.00
    4    6   15      0.29      0.00
    4    6   16     -1.90      0.00
    4    6   17     -0.26      0.00
    4    6   18     -1.79      0.00
    4    6   19      0.62      0.00
   -4    7   21     -0.88      0.00
   -4    7   20     -4.20      0.00
   -4    7   19      1.61      0.00
   -4    7   18     -1.59      0.00
   -4    7   17      5.04      0.00
   -4    7   16     -1.81      0.00
   -4    7   15      3.94      0.00
   -4    7   14      1.88      0.00
   -4    7   13     -4.20      0.00
   -4    7   12      6.45      0.00
   -4    7   11     -8.16      0.00
   -4    7   10      7.16      0.00
   -4    7    9      5.41      0.00
   -4    7    8     -0.03      0.00
   -4    7    7      6.37      0.00
   -4    7    6     -6.47      0.00
   -4    7    5     -4.78      0.00
   -4    7    4     -4.76      0.00
   -4    7    3      1.26      0.00
   -4    7    2      1.54      0.00
   -4    7    1      7.56      0.00
    4    7    0     -0.40      0.00
    4    7    1     -5.19      0.00
    4    7    2      4.73      0.00
    4    7    3     -4.28      0.00
    4    7    4      6.82      0.00
    4    7    5      6.52      0.00
    4    7    6     -0.43      0.00
    4    7    7      2.53      0.00
    4    7    8     -1.47      0.00
    4    7    9     -2.89      0.00
    4    7   10     -3.23      0.00
    4    7   11     -3.26      0.00
    4    7   12     -2.82      0.00
    4    7   13     -0.17      0.00
    4    7   14     -1.01      0.00
    4    7   15     -1.34      0.00
    4    7   16     -0.77      0.00
    4    7   17      1.78      0.00
    4    7   18      0.82      0.00
   -4    8   20     -0.05      0.00
   -4    8   19      2.04      0.00
   -4    8   18     -4.86      0.00
   -4    8   17      2.45      0.00
   -4    8   16     -5.63      0.00
   -4    8   15      4.31      0.00
   -4    8   14     -1.53      0.00
   -4    8   13     -1.18      0.00
   -4    8   12      5.98      0.00
   -4    8   11     -8.64      0.00
   -4    8   10      2.51      0.00
   -4    8    9     -7.61      0.00
   -4    8    8     -4.18      0.00
   -4    8    7      5.73      0.00
   -4    8    6      1.48      0.00
   -4    8    5      6.60      0.00
   -4    8    4      0.44      0.00
   -4    8    3     -2.24      0.00
   -4    8    2     -5.22      0.00
   -4    8    1     -1.67      0.00
    4    8    0     -0.05      0.00
    4    8    1     -4.51      0.00
    4    8    2      6.14      0.00
    4    8    3     -2.68      0.00
    4    8    4     -3.45      0.00
    4    8    5     -2.30      0.00
    4    8    6     -6.11      0.00
    4    8    7     -0.91      0.00
    4    8    8      0.17      0.00
    4    8    9     -0.54      0.00
    4    8   10      1.88      0.00
    4    8   11      4.66      0.00
    4    8   12      1.63      0.00
    4    8   13      1.52      0.00
    4    8   14      1.18      0.00
    4    8   15      1.49      0.00
    4    8   16      2.27      0.00
    4    8   17      0.51      0.00
    4    8   18     -0.95      0.00
   -4    9   19      3.03      0.00
   -4    9   18      0.27      0.00
   -4    9   17      3.23      0.00
   -4    9   16     -5.71      0.00
   -4    9   15      5.00      0.00
   -4    9   14     -5.55      0.00
   -4    9   13      2.06      0.00
   -4    9   12      3.15      0.00
   -4    9   11     -2.45      0.00
   -4    9   10     10.73      0.00
   -4    9    9     -1.90      0.00
   -4    9    8     -0.21      0.00
   -4    9    7     -2.07      0.00
   -4    9    6     -6.96      0.00
   -4    9    5      0.13      0.00
   -4    9    4     -0.05      0.00
   -4    9    3      3.86      0.00
   -4    9    2      2.78      0.00
   -4    9    1      0.59      0.00
    4    9    0      3.42      0.00
    4    9    1     -3.71      0.00
    4    9    2      1.72      0.00
    4    9    3     -0.66      0.00
    4    9    4     -0.86      0.00
    4    9    5      4.72      0.00
    4    9    6      3.02      0.00
    4    9    7      2.07      0.00
    4    9    8      2.67      0.00
    4    9    9      1.52      0.00
    4    9   10     -2.28      0.00
    4    9   11      0.21      0.00
    4    9   12     -3.24      0.00
    4    9   13     -1.20      0.00
    4    9   14     -0.26      0.00
    4    9   15     -2.90      0.00
    4    9   16     -1.71      0.00
   -4   10   17      1.53      0.00
   -4   10   16     -0.77      0.00
   -4   10   15      5.13      0.00
   -4   10   14     -6.50      0.00
   -4   10   13      3.42      0.00
   -4   10   12     -4.50      0.00
   -4   10   11     -4.20      0.00
   -4   10   10      3.10      0.00
   -4   10    9     -4.22      0.00
   -4   10    8      5.82      0.00
   -4   10    7      4.11      0.00
   -4   10    6      0.46      0.00
   -4   10    5      1.75      0.00
   -4   10    4     -3.12      0.00
   -4   10    3     -1.69      0.00
   -4   10    2     -1.15      0.00
   -4   10    1      1.48      0.00
    4   10    0      1.98      0.00
    4   10    1     -2.06      0.00
    4   10    2      0.11      0.00
    4   10    3      1.46      0.00
    4   10    4     -0.14      0.00
    4   10    5     -0.22      0.00
    4   10    6     -1.90      0.00
    4   10    7     -3.57      0.00
    4   10    8     -3.10      0.00
    4   10    9      1.54      0.00
    4   10   10     -3.22      0.00
    4   10   11      2.50      0.00
    4   10   12      0.31      0.00
    4   10   13      0.40      0.00
    4   10   14      1.71      0.00
    4   10   15      0.06      0.00
   -4   11   16     -0.52      0.00
   -4   11   15      2.91      0.00
   -4   11   14     -2.49      0.00
   -4   11   13      6.27      0.00
   -4   11   12     -2.94      0.00
   -4   11   11      2.18      0.00
   -4   11   10      0.82      0.00
   -4   11    9     -6.54      0.00
   -4   11    8      0.35      0.00
   -4   11    7     -3.49      0.00
   -4   11    6     -1.86      0.00
   -4   11    5      2.57      0.00
   -4   11    4      0.55      0.00
   -4   11    3      2.20      0.00
   -4   11    2     -0.04      0.00
   -4   11    1     -1.02      0.00
    4   11    0      1.28      0.00
    4   11    1      0.25      0.00
    4   11    2      0.82      0.00
    4   11    3      0.36      0.00
    4   11    4     -1.23      0.00
    4   11    5     -0.68      0.00
    4   11    6      0.60      0.00
    4   11    7      3.03      0.00
    4   11    8      0.24      0.00
    4   11    9      5.04      0.00
    4   11   10     -2.77      0.00
    4   11   11      0.56      0.00
    4   11   12     -0.79      0.00
    4   11   13     -0.93      0.00
   -4   12   14     -3.01      0.00
   -4   12   13      3.08      0.00
   -4   12   12     -3.51      0.00
   -4   12   11      3.97      0.00
   -4   12   10      1.23      0.00
   -4   12    9     -0.43      0.00
   -4   12    8      6.16      0.00
   -4   12    7     -1.21      0.00
   -4   12    6      0.02      0.00
   -4   12    5     -0.39      0.00
   -4   12    4     -3.88      0.00
   -4   12    3     -0.19      0.00
   -4   12    2     -0.16      0.00
   -4   12    1      0.85      0.00
    4   12    0      0.91      0.00
    4   12    1     -0.59      0.00
    4   12    2     -0.91      0.00
    4   12    3     -0.57      0.00
    4   12    4     -1.40      0.00
    4   12    5      1.72      0.00
    4   12    6      0.62      0.00
    4   12    7      0.53      0.00
    4   12    8     -5.11      0.00
    4   12    9      1.10      0.00
    4   12   10     -2.92      0.00
    4   12   11      0.58      0.00
   -4   13   11      2.30      0.00
   -4   13   10     -3.20      0.00
   -4   13    9     -2.24      0.00
   -4   13    8      2.08      0.00
   -4   13    7     -4.10      0.00
   -4   13    6      3.84      0.00
   -4   13    5      2.29      0.00
   -4   13    4      0.90      0.00
   -4   13    3      1.51      0.00
   -4   13    2     -1.89      0.00
   -4   13    1     -0.59      0.00
    4   13    0      0.21      0.00
    4   13    1     -0.19      0.00
    4   13    2     -0.65      0.00
    4   13    3      2.63      0.00
    4   13    4     -0.17      0.00
    4   13    5      0.57      0.00
    4   13    6     -0.76      0.00
    4   13    7      0.78      0.00
    4   13    8     -2.25      0.00
    4   13    9      3.36      0.00
   -4   14    7     -4.13      0.00
   -4   14    6      1.12      0.00
   -4   14    5     -4.08      0.00
   -4   14    4      0.33      0.00
   -4   14    3      0.96      0.00
   -4   14    2      0.44      0.00
    4   14    0     -0.84      0.00
    4   14    1      0.76      0.00
    4   14    2     -1.16      0.00
    4   14    3      1.29      0.00
    4   14    4     -1.43      0.00
    4   14    5     -0.95      0.00
   -5    0   23     -0.66      0.00
   -5    0   21      5.11      0.00
   -5    0   19      4.70      0.00
   -5    0   17     -3.72      0.00
   -5    0   15    -14.82      0.00
   -5    0   13    -12.10      0.00
   -5    0   11      8.61      0.00
   -5    0    9     23.25      0.00
   -5    0    7      3.91      0.00
   -5    0    5     -2.05      0.00
   -5    0    3     14.18      0.00
   -5    0    1     18.99      0.00
    5    0    1     -5.70      0.00
    5    0    3     -8.64      0.00
    5    0    5     -0.29      0.00
    5    0    7     -2.11      0.00
    5    0    9    -10.56      0.00
    5    0   11     -2.21      0.00
    5    0   13      4.27      0.00
    5    0   15      1.54      0.00
    5    0   17     -0.34      0.00
    5    0   19      0.67      0.00
    5    0   21      2.22      0.00
   -5    1   23     -1.83      0.00
   -5    1   22     -0.90      0.00
   -5    1   21      0.11      0.00
   -5    1   20     -5.03      0.00
   -5    1   19      4.07      0.00
   -5    1   18     -1.24      0.00
   -5    1   17      4.46      0.00
   -5    1   16      8.33      0.00
   -5    1   15      2.22      0.00
   -5    1   14     13.63      0.00
   -5    1   13     -5.30      0.00
   -5    1   12      2.66      0.00
   -5    1   11     -8.14      0.00
   -5    1   10    -16.16      0.00
   -5    1    9      1.48      0.00
   -5    1    8    -11.75      0.00
   -5    1    7      9.90      0.00
   -5    1    6      0.18      0.00
   -5    1    5     -1.72      0.00
   -5    1    4     -7.69      0.00
   -5    1    3     -8.93      0.00
   -5    1    2    -17.34      0.00
   -5    1    1      6.34      0.00
    5    1    0     -5.09      0.00
    5    1    1     -9.92      0.00
    5    1    2      7.40      0.00
    5    1    3      1.71      0.00
    5    1    4      3.95      0.00
    5    1    5      1.99      0.00
    5    1    6     -0.43      0.00
    5    1    7     -4.56      0.00
    5    1    8      7.41      0.00
    5    1    9     -0.64      0.00
    5    1   10      5.58      0.00
    5    1   11      4.92      0.00
    5    1   12     -0.99      0.00
    5    1   13      2.18      0.00
    5    1   14     -3.07      0.00
    5    1   15     -1.29      0.00
    5    1   16     -0.31      0.00
    5    1   17      0.44      0.00
    5    1   18      0.25      0.00
    5    1   19      0.07      0.00
    5    1   20     -0.96      0.00
    5    1   21     -0.06      0.00
   -5    2   23     -2.41      0.00
   -5    2   22      2.13      0.00
   -5    2   21      0.85      0.00
   -5    2   20     -2.62      0.00
   -5    2   19      3.85      0.00
   -5    2   18     -6.64      0.00
   -5    2   17     -2.12      0.00
   -5    2   16     -5.79      0.00
   -5    2   15     -9.21      0.00
   -5    2   14      1.98      0.00
   -5    2   13     -6.19      0.00
   -5    2   12     11.14      0.00
   -5    2   11      4.49      0.00
   -5    2   10      5.77      0.00
   -5    2    9      8.32      0.00
   -5    2    8    -11.08      0.00
   -5    2    7      3.44      0.00
   -5    2    6     -4.28      0.00
   -5    2    5      9.70      0.00
   -5    2    4     11.30      0.00
   -5    2    3     11.08      0.00
   -5    2    2      1.89      0.00
   -5    2    1      4.34      0.00
    5    2    0     17.85      0.00
    5    2    1      0.27      0.00
    5    2    2      5.43      0.00
    5    2    3     -0.77      0.00
    5    2    4     -4.88      0.00
    5    2    5     -2.61      0.00
    5    2    6      3.18      0.00
    5    2    7     -4.85      0.00
    5    2    8      6.29      0.00
    5    2    9     -3.72      0.00
    5    2   10     -4.48      0.00
    5    2   11     -0.64      0.00
    5    2   12     -5.82      0.00
    5    2   13      0.00      0.00
    5    2   14     -0.26      0.00
    5    2   15      1.39      0.00
    5    2   16      1.40      0.00
    5    2   17      0.60      0.00
    5    2   18      0.05      0.00
    5    2   19     -0.42      0.00
    5    2   20     -1.48      0.00
   -5    3   23     -1.55      0.00
   -5    3   22      1.77      0.00
   -5    3   21     -2.37      0.00
   -5    3   20     -1.60      0.00
   -5    3   19      4.54      0.00
   -5    3   18     -3.01      0.00
   -5    3   17      9.10      0.00
   -5    3   16      5.74      0.00
   -5    3   15      2.50      0.00
   -5    3   14      5.69      0.00
   -5    3   13     -8.86      0.00
   -5    3   12      1.13      0.00
   -5    3   11     -9.66      0.00
   -5    3   10     -2.19      0.00
   -5    3    9      4.38      0.00
   -5    3    8     -1.95      0.00
   -5    3    7      7.10      0.00
   -5    3    6    -11.27      0.00
   -5    3    5     -6.99      0.00
   -5    3    4    -11.75      0.00
   -5    3    3     -6.71      0.00
   -5    3    2      1.51      0.00
   -5    3    1     11.94      0.00
    5    3    0      1.78      0.00
    5    3    1    -11.10      0.00
    5    3    2     -7.73      0.00
    5    3    3     -0.03      0.00
    5    3    4      0.47      0.00
    5    3    5     -0.69      0.00
    5    3    6      8.00      0.00
    5    3    7     -6.88      0.00
    5    3    8      2.55      0.00
    5    3    9      1.19      0.00
    5    3   10     -1.46      0.00
    5    3   11      4.06      0.00
    5    3   12      1.49      0.00
    5    3   13      3.18      0.00
    5    3   14      0.76      0.00
    5    3   15     -1.36      0.00
    5    3   16     -1.61      0.00
    5    3   17     -1.35      0.00
    5    3   18     -1.20      0.00
    5    3   19      0.96      0.00
    5    3   20     -1.17      0.00
   -5    4   23     -0.18      0.00
   -5    4   22      3.19      0.00
   -5    4   21     -0.24      0.00
   -5    4   20      2.32      0.00
   -5    4   19      0.43      0.00
   -5    4   18     -9.26      0.00
   -5    4   17      0.03      0.00
   -5    4   16     -9.26      0.00
   -5    4   15     -3.14      0.00
   -5    4   14      5.42      0.00
   -5    4   13     -2.72      0.00
   -5    4   12     11.69      0.00
   -5    4   11     -3.28      0.00
   -5    4   10      1.94      0.00
   -5    4    9     -1.27      0.00
   -5    4    8     -5.13      0.00
   -5    4    7      8.37      0.00
   -5    4    6      3.20      0.00
   -5    4    5     14.70      0.00
   -5    4    4      4.08      0.00
   -5    4    3     -0.12      0.00
   -5    4    2     -6.60      0.00
   -5    4    1     -7.82      0.00
    5    4    0      6.70      0.00
    5    4    1      5.40      0.00
    5    4    2      2.31      0.00
    5    4    3      6.25      0.00
    5    4    4      6.01      0.00
    5    4    5     -6.82      0.00
    5    4    6      4.36      0.00
    5    4    7     -4.46      0.00
    5    4    8     -0.69      0.00
    5    4    9      1.30      0.00
    5    4   10     -1.89      0.00
    5    4   11     -0.27      0.00
    5    4   12     -1.73      0.00
    5    4   13     -2.06      0.00
    5    4   14     -1.20      0.00
    5    4   15      0.42      0.00
    5    4   16      1.83      0.00
    5    4   17      2.08      0.00
    5    4   18      0.20      0.00
    5    4   19      2.48      0.00
    5    4   20     -0.97      0.00
   -5    5   22     -1.79      0.00
   -5    5   21     -2.88      0.00
   -5    5   20      2.29      0.00
   -5    5   19      1.77      0.00
   -5    5   18      3.01      0.00
   -5    5   17     10.68      0.00
   -5    5   16     -2.93      0.00
   -5    5   15      3.23      0.00
   -5    5   14     -2.02      0.00
   -5    5   13     -8.74      0.00
   -5    5   12      6.01      0.00
   -5    5   11     -8.74      0.00
   -5    5   10      7.39      0.00
   -5    5    9      1.23      0.00
   -5    5    8     -4.15      0.00
   -5    5    7     -3.06      0.00
   -5    5    6    -13.11      0.00
   -5    5    5     -2.54      0.00
   -5    5    4     -4.35      0.00
   -5    5    3      7.16      0.00
   -5    5    2      6.02      0.00
   -5    5    1      6.06      0.00
    5    5    0     -0.25      0.00
    5    5    1      2.49      0.00
    5    5    2     -3.25      0.00
    5    5    3     -7.34      0.00
    5    5    4      0.26      0.00
    5    5    5     -6.86      0.00
    5    5    6      3.73      0.00
    5    5    7      1.13      0.00
    5    5    8     -0.04      0.00
    5    5    9      1.98      0.00
    5    5   10      1.57      0.00
    5    5   11      0.04      0.00
    5    5   12      0.29      0.00
    5    5   13      1.83      0.00
    5    5   14      1.98      0.00
    5    5   15     -0.17      0.00
    5    5   16     -1.18      0.00
    5    5   17     -0.83      0.00
    5    5   18     -2.83      0.00
    5    5   19      1.13      0.00
   -5    6   21      0.74      0.00
   -5    6   20     -1.40      0.00
   -5    6   19     -5.20      0.00
   -5    6   18     -3.14      0.00
   -5    6   17     -0.20      0.00
   -5    6   16     -5.60      0.00
   -5    6   15      6.75      0.00
   -5    6   14     -0.29      0.00
   -5    6   13      1.57      0.00
   -5    6   12      6.45      0.00
   -5    6   11    -10.72      0.00
   -5    6   10      6.23      0.00
   -5    6    9     -3.89      0.00
   -5    6    8      4.41      0.00
   -5    6    7     10.74      0.00
   -5    6    6      3.75      0.00
   -5    6    5      5.19      0.00
   -5    6    4     -5.50      0.00
   -5    6    3     -4.19      0.00
   -5    6    2     -7.56      0.00
   -5    6    1      0.80      0.00
    5    6    0     -0.16      0.00
    5    6    1      1.16      0.00
    5    6    2      0.96      0.00
    5    6    3     -0.66      0.00
    5    6    4      8.39      0.00
    5    6    5      1.02      0.00
    5    6    6      1.17      0.00
    5    6    7     -0.29      0.00
    5    6    8     -1.44      0.00
    5    6    9     -1.58      0.00
    5    6   10     -0.89      0.00
    5    6   11     -0.96      0.00
    5    6   12     -0.43      0.00
    5    6   13     -0.40      0.00
    5    6   14     -1.31      0.00
    5    6   15     -2.14      0.00
    5    6   16     -0.40      0.00
    5    6   17      2.06      0.00
    5    6   18     -1.23      0.00
    5    6   19      1.83      0.00
   -5    7   21      0.24      0.00
   -5    7   20      1.98      0.00
   -5    7   19      2.87      0.00
   -5    7   18      2.32      0.00
   -5    7   17      0.98      0.00
   -5    7   16     -4.04      0.00
   -5    7   15      2.77      0.00
   -5    7   14     -6.25      0.00
   -5    7   13      0.62      0.00
   -5    7   12      2.39      0.00
   -5    7   11     -3.88      0.00
   -5    7   10      9.20      0.00
   -5    7    9     -9.55      0.00
   -5    7    8     -4.05      0.00
   -5    7    7     -5.92      0.00
   -5    7    6     -6.10      0.00
   -5    7    5      4.15      0.00
   -5    7    4      2.99      0.00
   -5    7    3      5.99      0.00
   -5    7    2      2.02      0.00
   -5    7    1      1.01      0.00
    5    7    0     -3.40      0.00
    5    7    1      0.17      0.00
    5    7    2      1.75      0.00
    5    7    3     -4.27      0.00
    5    7    4     -1.75      0.00
    5    7    5     -5.27      0.00
    5    7    6     -2.23      0.00
    5    7    7      0.85      0.00
    5    7    8      0.05      0.00
    5    7    9     -0.27      0.00
    5    7   10      1.42      0.00
    5    7   11      1.71      0.00
    5    7   12     -0.67      0.00
    5    7   13     -0.11      0.00
    5    7   14      1.00      0.00
    5    7   15      1.80      0.00
    5    7   16      1.57      0.00
    5    7   17      2.02      0.00
    5    7   18     -1.14      0.00
   -5    8   20     -2.31      0.00
   -5    8   19     -1.21      0.00
   -5    8   18      0.86      0.00
   -5    8   17      2.00      0.00
   -5    8   16     -1.08      0.00
   -5    8   15      5.60      0.00
   -5    8   14     -3.34      0.00
   -5    8   13      3.16      0.00
   -5    8   12     -2.24      0.00
   -5    8   11     -4.39      0.00
   -5    8   10      7.19      0.00
   -5    8    9     -1.45      0.00
   -5    8    8     10.42      0.00
   -5    8    7      2.72      0.00
   -5    8    6     -1.28      0.00
   -5    8    5     -0.77      0.00
   -5    8    4     -6.54      0.00
   -5    8    3     -1.93      0.00
   -5    8    2     -0.48      0.00
   -5    8    1      1.43      0.00
    5    8    0     -1.35      0.00
    5    8    1     -0.49      0.00
    5    8    2      1.48      0.00
    5    8    3     -1.45      0.00
    5    8    4      3.98      0.00
    5    8    5      4.08      0.00
    5    8    6      2.03      0.00
    5    8    7      1.70      0.00
    5    8    8      0.99      0.00
    5    8    9      0.53      0.00
    5    8   10     -0.55      0.00
    5    8   11      0.83      0.00
    5    8   12     -1.79      0.00
    5    8   13      1.01      0.00
    5    8   14      0.46      0.00
    5    8   15     -1.56      0.00
    5    8   16     -2.37      0.00
    5    8   17     -2.11      0.00
   -5    9   19     -1.06      0.00
   -5    9   18     -1.85      0.00
   -5    9   17     -2.52      0.00
   -5    9   16     -1.42      0.00
   -5    9   15      3.71      0.00
   -5    9   14     -4.52      0.00
   -5    9   13      5.82      0.00
   -5    9   12     -1.86      0.00
   -5    9   11     -0.64      0.00
   -5    9   10      0.21      0.00
   -5    9    9    -10.15      0.00
   -5    9    8      0.92      0.00
   -5    9    7     -3.48      0.00
   -5    9    6      2.13      0.00
   -5    9    5      4.43      0.00
   -5    9    4      0.67      0.00
   -5    9    3      2.94      0.00
   -5    9    2     -1.37      0.00
   -5    9    1     -1.29      0.00
    5    9    0      0.14      0.00
    5    9    1     -0.15      0.00
    5    9    2      1.86      0.00
    5    9    3     -0.64      0.00
    5    9    4     -0.70      0.00
    5    9    5     -1.84      0.00
    5    9    6     -2.79      0.00
    5    9    7     -2.00      0.00
    5    9    8     -0.82      0.00
    5    9    9     -0.27      0.00
    5    9   10     -3.50      0.00
    5    9   11      1.75      0.00
    5    9   12     -1.11      0.00
    5    9   13      0.21      0.00
    5    9   14     -0.23      0.00
    5    9   15     -0.26      0.00
    5    9   16      2.68      0.00
   -5   10   17     -1.29      0.00
   -5   10   16     -0.74      0.00
   -5   10   15     -0.37      0.00
   -5   10   14     -4.02      0.00
   -5   10   13      4.45      0.00
   -5   10   12     -4.39      0.00
   -5   10   11      5.36      0.00
   -5   10   10      3.91      0.00
   -5   10    9     -0.11      0.00
   -5   10    8      5.67      0.00
   -5   10    7     -4.35      0.00
   -5   10    6     -0.52      0.00
   -5   10    5     -2.53      0.00
   -5   10    4     -3.21      0.00
   -5   10    3      0.99      0.00
   -5   10    2     -0.60      0.00
   -5   10    1      1.32      0.00
    5   10    0     -0.39      0.00
    5   10    1     -0.14      0.00
    5   10    2      0.34      0.00
    5   10    3     -0.49      0.00
    5   10    4      0.56      0.00
    5   10    5      0.24      0.00
    5   10    6      1.68      0.00
    5   10    7      1.20      0.00
    5   10    8      0.31      0.00
    5   10    9      2.87      0.00
    5   10   10     -1.97      0.00
    5   10   11      2.61      0.00
    5   10   12     -0.59      0.00
    5   10   13      0.84      0.00
    5   10   14      0.63      0.00
   -5   11   16      2.82      0.00
   -5   11   15      0.34      0.00
   -5   11   14     -1.51      0.00
   -5   11   13      1.53      0.00
   -5   11   12     -5.74      0.00
   -5   11   11      1.93      0.00
   -5   11   10     -5.07      0.00
   -5   11    9     -2.00      0.00
   -5   11    8      3.25      0.00
   -5   11    7     -1.58      0.00
   -5   11    6      5.18      0.00
   -5   11    5      1.76      0.00
   -5   11    4      1.03      0.00
   -5   11    3      0.68      0.00
   -5   11    2     -1.95      0.00
   -5   11    1     -0.72      0.00
    5   11    0     -0.95      0.00
    5   11    1     -0.15      0.00
    5   11    2     -0.09      0.00
    5   11    3     -2.40      0.00
    5   11    4      0.02      0.00
    5   11    5     -0.16      0.00
    5   11    6     -0.13      0.00
    5   11    7     -1.35      0.00
    5   11    8     -2.85      0.00
    5   11    9      1.62      0.00
    5   11   10     -2.27      0.00
    5   11   11      2.06      0.00
    5   11   12     -0.99      0.00
    5   11   13      0.20      0.00
   -5   12   14      0.91      0.00
   -5   12   13      2.55      0.00
   -5   12   12     -0.88      0.00
   -5   12   11      5.02      0.00
   -5   12   10     -2.00      0.00
   -5   12    9      1.37      0.00
   -5   12    8      0.05      0.00
   -5   12    7     -5.61      0.00
   -5   12    6     -0.46      0.00
   -5   12    5     -2.96      0.00
   -5   12    4     -0.02      0.00
   -5   12    3      1.91      0.00
   -5   12    2      0.77      0.00
   -5   12    1      0.88      0.00
    5   12    0     -0.68      0.00
    5   12    1     -1.00      0.00
    5   12    2      1.96      0.00
    5   12    3      1.19      0.00
    5   12    4      1.63      0.00
    5   12    5      0.86      0.00
    5   12    6      0.22      0.00
    5   12    7      0.48      0.00
    5   12    8      0.35      0.00
    5   12   10     -1.26      0.00
    5   12   11      0.98      0.00
   -5   13   11      1.53      0.00
   -5   13   10     -3.64      0.00
   -5   13    9      2.77      0.00
   -5   13    8      2.33      0.00
   -5   13    7      0.42      0.00
   -5   13    6      4.58      0.00
   -5   13    5     -1.76      0.00
   -5   13    4     -0.72      0.00
   -5   13    3     -0.21      0.00
   -5   13    2     -1.35      0.00
   -5   13    1      0.28      0.00
    5   13    0      0.71      0.00
    5   13    1      0.48      0.00
    5   13    2      0.96      0.00
    5   13    3     -0.73      0.00
    5   13    4     -2.95      0.00
    5   13    5     -1.76      0.00
    5   13    6      0.30      0.00
    5   13    7      0.06      0.00
    5   13    8     -1.91      0.00
   -5   14    7     -2.11      0.00
   -5   14    6      2.03      0.00
   -5   14    5     -1.57      0.00
   -5   14    4      1.83      0.00
   -5   14    3     -0.18      0.00
    5   14    0     -0.02      0.00
    5   14    1     -0.58      0.00
    5   14    2     -1.09      0.00
    5   14    3      0.49      0.00
    5   14    4      0.63      0.00
   -6    0   22      2.46      0.00
   -6    0   20     -1.69      0.00
   -6    0   18     -5.07      0.00
   -6    0   16     -3.77      0.00
   -6    0   14     12.47      0.00
   -6    0   12     21.41      0.00
   -6    0   10     -4.71      0.00
   -6    0    8    -25.98      0.00
   -6    0    6     -0.71      0.00
   -6    0    4      8.26      0.00
   -6    0    2    -15.54      0.00
    6    0    0    -18.33      0.00
    6    0    2      2.93      0.00
    6    0    4     11.64      0.00
    6    0    6      1.95      0.00
    6    0    8      2.21      0.00
    6    0   10      4.11      0.00
    6    0   12      1.15      0.00
    6    0   14     -1.47      0.00
    6    0   16      0.63      0.00
    6    0   18     -0.45      0.00
    6    0   20      0.92      0.00
   -6    1   23     -2.24      0.00
   -6    1   22      1.31      0.00
   -6    1   21     -1.48      0.00
   -6    1   20      1.18      0.00
   -6    1   19      2.40      0.00
   -6    1   18     -0.62      0.00
   -6    1   17      5.13      0.00
   -6    1   16     -3.79      0.00
   -6    1   15     -2.30      0.00
   -6    1   14     -5.16      0.00
   -6    1   13    -17.16      0.00
   -6    1   12      4.32      0.00
   -6    1   11    -11.50      0.00
   -6    1   10     11.46      0.00
   -6    1    9     16.11      0.00
   -6    1    8     -3.56      0.00
   -6    1    7     13.11      0.00
   -6    1    6    -11.91      0.00
   -6    1    5     -3.80      0.00
   -6    1    4      4.89      0.00
   -6    1    3      4.17      0.00
   -6    1    2     10.23      0.00
   -6    1    1     18.51      0.00
    6    1    0      5.32      0.00
    6    1    1      6.71      0.00
    6    1    2      7.74      0.00
    6    1    3     -8.40      0.00
    6    1    4     -0.62      0.00
    6    1    5     -6.75      0.00
    6    1    6     -3.02      0.00
    6    1    7     -1.30      0.00
    6    1    8      2.11      0.00
    6    1    9     -3.98      0.00
    6    1   10      0.47      0.00
    6    1   11     -1.95      0.00
    6    1   12     -1.90      0.00
    6    1   13      0.34      0.00
    6    1   14     -0.68      0.00
    6    1   15      0.19      0.00
    6    1   16     -0.12      0.00
    6    1   17      0.05      0.00
    6    1   18      0.04      0.00
    6    1   19     -0.66      0.00
    6    1   20      0.59      0.00
   -6    2   23      0.70      0.00
   -6    2   22      2.18      0.00
   -6    2   21     -2.12      0.00
   -6    2   20      1.28      0.00
   -6    2   19     -1.09      0.00
   -6    2   18     -3.46      0.00
   -6    2   17      1.14      0.00
   -6    2   16     -1.27      0.00
   -6    2   15      8.49      0.00
   -6    2   14      6.72      0.00
   -6    2   13      2.95      0.00
   -6    2   12     11.93      0.00
   -6    2   11    -14.05      0.00
   -6    2   10      1.19      0.00
   -6    2    9     -9.73      0.00
   -6    2    8     -7.69      0.00
   -6    2    7     14.04      0.00
   -6    2    6     -6.22      0.00
   -6    2    5      5.59      0.00
   -6    2    4     -6.24      0.00
   -6    2    3    -15.22      0.00
   -6    2    2     -9.29      0.00
   -6    2    1     -3.24      0.00
    6    2    0     -7.44      0.00
    6    2    1    -15.01      0.00
    6    2    2     -0.45      0.00
    6    2    3     -6.64      0.00
    6    2    4      5.00      0.00
    6    2    5      5.28      0.00
    6    2    6      3.96      0.00
    6    2    7     -0.46      0.00
    6    2    8      4.86      0.00
    6    2    9     -1.42      0.00
    6    2   10      1.13      0.00
    6    2   11      1.00      0.00
    6    2   12      0.46      0.00
    6    2   13      2.41      0.00
    6    2   14      0.08      0.00
    6    2   15     -0.05      0.00
    6    2   16      0.10      0.00
    6    2   17      0.10      0.00
    6    2   18     -0.20      0.00
    6    2   19     -0.56      0.00
    6    2   20     -0.08      0.00
   -6    3   23     -0.47      0.00
   -6    3   22     -0.30      0.00
   -6    3   21     -1.45      0.00
   -6    3   20      3.51      0.00
   -6    3   19      1.75      0.00
   -6    3   18      1.03      0.00
   -6    3   17      2.37      0.00
   -6    3   16     -5.66      0.00
   -6    3   15     -4.29      0.00
   -6    3   14     -7.65      0.00
   -6    3   13     -4.63      0.00
   -6    3   12      5.79      0.00
   -6    3   11     -4.78      0.00
   -6    3   10     15.52      0.00
   -6    3    9     -3.72      0.00
   -6    3    8     -1.01      0.00
   -6    3    7      1.41      0.00
   -6    3    6    -10.27      0.00
   -6    3    5     12.27      0.00
   -6    3    4      6.27      0.00
   -6    3    3      9.14      0.00
   -6    3    2     10.64      0.00
   -6    3    1     -0.30      0.00
    6    3    0      9.06      0.00
    6    3    1      1.27      0.00
    6    3    2     13.53      0.00
    6    3    3      4.10      0.00
    6    3    4      1.25      0.00
    6    3    5     -2.96      0.00
    6    3    6     -1.21      0.00
    6    3    7     -6.30      0.00
    6    3    8      0.32      0.00
    6    3    9     -2.58      0.00
    6    3   10     -1.25      0.00
    6    3   11      0.07      0.00
    6    3   12     -1.31      0.00
    6    3   13     -0.68      0.00
    6    3   14     -0.98      0.00
    6    3   15     -0.45      0.00
    6    3   16      0.05      0.00
    6    3   17      0.56      0.00
    6    3   18      0.66      0.00
    6    3   19      1.18      0.00
   -6    4   23      1.44      0.00
   -6    4   22     -1.36      0.00
   -6    4   21     -2.60      0.00
   -6    4   20     -0.72      0.00
   -6    4   19     -4.82      0.00
   -6    4   18     -1.88      0.00
   -6    4   17      5.17      0.00
   -6    4   16      1.86      0.00
   -6    4   15      7.76      0.00
   -6    4   14      1.98      0.00
   -6    4   13      0.10      0.00
   -6    4   12      1.15      0.00
   -6    4   11    -10.83      0.00
   -6    4   10      6.15      0.00
   -6    4    9     -6.79      0.00
   -6    4    8      8.76      0.00
   -6    4    7      2.77      0.00
   -6    4    6     -6.80      0.00
   -6    4    5      0.18      0.00
   -6    4    4    -14.42      0.00
   -6    4    3     -6.38      0.00
   -6    4    2     -0.02      0.00
   -6    4    1      1.32      0.00
    6    4    0      6.04      0.00
    6    4    1     -7.57      0.00
    6    4    2     -4.46      0.00
    6    4    3     -8.52      0.00
    6    4    4     -4.02      0.00
    6    4    5     -3.34      0.00
    6    4    6      4.28      0.00
    6    4    7     -0.29      0.00
    6    4    8      2.65      0.00
    6    4    9      3.01      0.00
    6    4   10      1.87      0.00
    6    4   11      0.35      0.00
    6    4   12      0.31      0.00
    6    4   13      1.46      0.00
    6    4   14      1.36      0.00
    6    4   15     -0.11      0.00
    6    4   16     -0.08      0.00
    6    4   17     -0.16      0.00
    6    4   18     -0.81      0.00
    6    4   19     -1.12      0.00
   -6    5   22      0.98      0.00
   -6    5   21      3.96      0.00
   -6    5   20      4.24      0.00
   -6    5   19     -1.69      0.00
   -6    5   18      0.42      0.00
   -6    5   17     -2.06      0.00
   -6    5   16     -8.28      0.00
   -6    5   15      0.78      0.00
   -6    5   14     -4.39      0.00
   -6    5   13      2.74      0.00
   -6    5   12      4.15      0.00
   -6    5   11     -3.93      0.00
   -6    5   10      6.98      0.00
   -6    5    9    -11.35      0.00
   -6    5    8      2.33      0.00
   -6    5    7     -3.18      0.00
   -6    5    6      4.10      0.00
   -6    5    5     11.51      0.00
   -6    5    4      2.42      0.00
   -6    5    3      6.01      0.00
   -6    5    2     -1.97      0.00
   -6    5    1     -5.08      0.00
    6    5    0      2.66      0.00
    6    5    1     -3.17      0.00
    6    5    2      3.47      0.00
    6    5    3      3.44      0.00
    6    5    4      8.43      0.00
    6    5    5      1.65      0.00
    6    5    6      2.57      0.00
    6    5    7     -0.56      0.00
    6    5    8     -1.51      0.00
    6    5    9     -2.03      0.00
    6    5   10     -1.39      0.00
    6    5   11     -1.29      0.00
    6    5   12     -0.05      0.00
    6    5   13     -0.85      0.00
    6    5   14     -0.81      0.00
    6    5   15     -1.50      0.00
    6    5   16      0.51      0.00
    6    5   17     -0.39      0.00
    6    5   18      0.24      0.00
    6    5   19      0.57      0.00
   -6    6   21     -1.27      0.00
   -6    6   20     -1.79      0.00
   -6    6   19     -0.79      0.00
   -6    6   18      5.79      0.00
   -6    6   17      1.88      0.00
   -6    6   16      1.65      0.00
   -6    6   15      5.46      0.00
   -6    6   14     -4.24      0.00
   -6    6   13      2.79      0.00
   -6    6   12     -3.30      0.00
   -6    6   11     -2.79      0.00
   -6    6   10      8.98      0.00
   -6    6    9     -3.84      0.00
   -6    6    8      7.31      0.00
   -6    6    7     -7.07      0.00
   -6    6    6     -4.77      0.00
   -6    6    5     -5.25      0.00
   -6    6    4     -6.41      0.00
   -6    6    3      1.72      0.00
   -6    6    2      1.31      0.00
   -6    6    1      4.30      0.00
    6    6    0      2.83      0.00
    6    6    1     -0.38      0.00
    6    6    2      2.64      0.00
    6    6    3     -3.92      0.00
    6    6    4     -2.80      0.00
    6    6    5     -5.87      0.00
    6    6    6     -1.69      0.00
    6    6    7     -0.47      0.00
    6    6    8     -0.03      0.00
    6    6    9      0.38      0.00
    6    6   10      2.45      0.00
    6    6   11      0.27      0.00
    6    6   12     -0.44      0.00
    6    6   13     -0.81      0.00
    6    6   14      1.14      0.00
    6    6   15      0.23      0.00
    6    6   16      1.51      0.00
    6    6   17      0.06      0.00
    6    6   18      0.43      0.00
   -6    7   21      1.94      0.00
   -6    7   20     -2.34      0.00
   -6    7   19     -2.51      0.00
   -6    7   18     -0.96      0.00
   -6    7   17     -4.70      0.00
   -6    7   16     -1.18      0.00
   -6    7   15      0.12      0.00
   -6    7   14     -2.01      0.00
   -6    7   13      5.93      0.00
   -6    7   12     -2.04      0.00
   -6    7   11      0.20      0.00
   -6    7   10      0.51      0.00
   -6    7    9     -7.21      0.00
   -6    7    8      7.40      0.00
   -6    7    7      0.26      0.00
   -6    7    6      7.63      0.00
   -6    7    5      4.28      0.00
   -6    7    4      0.25      0.00
   -6    7    3      0.11      0.00
   -6    7    2     -3.64      0.00
   -6    7    1     -2.05      0.00
    6    7    0      1.77      0.00
    6    7    1     -2.15      0.00
    6    7    2     -0.13      0.00
    6    7    3     -1.55      0.00
    6    7    4      4.58      0.00
    6    7    5      2.88      0.00
    6    7    6      3.25      0.00
    6    7    7      0.94      0.00
    6    7    8      0.71      0.00
    6    7    9     -1.09      0.00
    6    7   10     -0.13      0.00
    6    7   11     -0.94      0.00
    6    7   12     -0.13      0.00
    6    7   13      1.86      0.00
    6    7   14      1.26      0.00
    6    7   15     -0.62      0.00
    6    7   16     -0.39      0.00
    6    7   17     -1.22      0.00
   -6    8   20      1.77      0.00
   -6    8   19      3.58      0.00
   -6    8   18      2.11      0.00
   -6    8   17     -1.03      0.00
   -6    8   16      1.16      0.00
   -6    8   15     -0.12      0.00
   -6    8   14     -3.23      0.00
   -6    8   13     -0.10      0.00
   -6    8   12     -3.65      0.00
   -6    8   11      3.37      0.00
   -6    8   10      1.86      0.00
   -6    8    9     -3.22      0.00
   -6    8    8      1.27      0.00
   -6    8    7     -8.46      0.00
   -6    8    6     -1.12      0.00
   -6    8    5     -3.04      0.00
   -6    8    4     -0.93      0.00
   -6    8    3      3.29      0.00
   -6    8    2      1.18      0.00
   -6    8    1      2.42      0.00
    6    8    0      0.99      0.00
    6    8    1      0.19      0.00
    6    8    2      2.93      0.00
    6    8    3     -0.64      0.00
    6    8    4      0.24      0.00
    6    8    5     -4.00      0.00
    6    8    6     -2.23      0.00
    6    8    7     -2.12      0.00
    6    8    8      0.41      0.00
    6    8    9     -1.43      0.00
    6    8   10     -0.53      0.00
    6    8   11      2.21      0.00
    6    8   12     -1.02      0.00
    6    8   13     -0.03      0.00
    6    8   14     -2.05      0.00
    6    8   15     -1.32      0.00
    6    8   16      0.57      0.00
   -6    9   18      1.05      0.00
   -6    9   17      0.30      0.00
   -6    9   16      1.74      0.00
   -6    9   15      0.87      0.00
   -6    9   14      0.19      0.00
   -6    9   13      2.96      0.00
   -6    9   12     -3.13      0.00
   -6    9   11      0.93      0.00
   -6    9   10     -1.25      0.00
   -6    9    9      0.73      0.00
   -6    9    8      5.97      0.00
   -6    9    7     -0.18      0.00
   -6    9    6      5.68      0.00
   -6    9    5     -0.72      0.00
   -6    9    4     -0.77      0.00
   -6    9    3     -1.08      0.00
   -6    9    2     -3.90      0.00
   -6    9    1      0.19      0.00
    6    9    0      1.37      0.00
    6    9    1     -0.84      0.00
    6    9    2     -0.43      0.00
    6    9    3     -1.91      0.00
    6    9    4      1.14      0.00
    6    9    5      0.19      0.00
    6    9    6      3.01      0.00
    6    9    7     -0.06      0.00
    6    9    8      1.64      0.00
    6    9    9      1.65      0.00
    6    9   10     -0.97      0.00
    6    9   11      2.56      0.00
    6    9   12     -1.87      0.00
    6    9   13      0.76      0.00
    6    9   14      0.27      0.00
    6    9   15      1.23      0.00
   -6   10   17     -0.78      0.00
   -6   10   16      1.47      0.00
   -6   10   15      0.02      0.00
   -6   10   14     -0.26      0.00
   -6   10   13      1.68      0.00
   -6   10   12     -1.57      0.00
   -6   10   11      3.74      0.00
   -6   10   10     -3.63      0.00
   -6   10    9     -1.65      0.00
   -6   10    8     -1.56      0.00
   -6   10    7     -5.51      0.00
   -6   10    6      1.73      0.00
   -6   10    5     -2.28      0.00
   -6   10    4      3.39      0.00
   -6   10    3      2.79      0.00
   -6   10    2      0.81      0.00
   -6   10    1      2.50      0.00
    6   10    0     -1.70      0.00
    6   10    1     -0.27      0.00
    6   10    2     -0.36      0.00
    6   10    3     -1.07      0.00
    6   10    4      1.16      0.00
    6   10    5     -1.89      0.00
    6   10    6      0.52      0.00
    6   10    7     -1.94      0.00
    6   10    8     -0.92      0.00
    6   10    9      1.07      0.00
    6   10   10     -2.96      0.00
    6   10   11      0.52      0.00
    6   10   12     -1.52      0.00
    6   10   13      1.31      0.00
    6   10   14     -0.99      0.00
   -6   11   15     -1.07      0.00
   -6   11   14     -0.23      0.00
   -6   11   13     -0.18      0.00
   -6   11   12     -1.48      0.00
   -6   11   11      3.02      0.00
   -6   11   10     -1.97      0.00
   -6   11    9      5.16      0.00
   -6   11    8      2.00      0.00
   -6   11    7      0.52      0.00
   -6   11    6      2.75      0.00
   -6   11    5     -4.55      0.00
   -6   11    4     -1.01      0.00
   -6   11    3     -3.30      0.00
   -6   11    2     -1.20      0.00
   -6   11    1      1.24      0.00
    6   11    0      0.19      0.00
    6   11    1      1.86      0.00
    6   11    2      1.71      0.00
    6   11    3      0.29      0.00
    6   11    4      2.68      0.00
    6   11    5     -0.21      0.00
    6   11    6      1.16      0.00
    6   11    7      0.38      0.00
    6   11    8      0.88      0.00
    6   11    9      2.19      0.00
    6   11   10     -0.66      0.00
    6   11   11      1.39      0.00
    6   11   12     -0.98      0.00
   -6   12   13      0.50      0.00
   -6   12   12      0.13      0.00
   -6   12   11      0.72      0.00
   -6   12   10     -4.29      0.00
   -6   12    9      0.28      0.00
   -6   12    8     -4.10      0.00
   -6   12    7     -0.81      0.00
   -6   12    6      2.70      0.00
   -6   12    5      0.91      0.00
   -6   12    4      3.81      0.00
   -6   12    3      0.92      0.00
   -6   12    2      0.43      0.00
   -6   12    1     -0.26      0.00
    6   12    0     -1.06      0.00
    6   12    1     -0.21      0.00
    6   12    2     -0.12      0.00
    6   12    3     -3.05      0.00
    6   12    4     -2.26      0.00
    6   12    5     -1.67      0.00
    6   12    6      0.34      0.00
    6   12    7     -1.18      0.00
    6   12    8     -1.36      0.00
    6   12    9     -1.03      0.00
    6   12   10     -2.00      0.00
   -6   13   10      0.74      0.00
   -6   13    9      4.82      0.00
   -6   13    8     -0.35      0.00
   -6   13    7     -0.23      0.00
   -6   13    6     -1.07      0.00
   -6   13    5     -3.60      0.00
   -6   13    4     -1.19      0.00
   -6   13    3     -0.94      0.00
   -6   13    2     -1.42      0.00
   -6   13    1      1.23      0.00
    6   13    0     -0.19      0.00
    6   13    1     -0.37      0.00
    6   13    2      0.06      0.00
    6   13    3      1.00      0.00
    6   13    4      2.15      0.00
    6   13    5      2.23      0.00
    6   13    6      2.20      0.00
    6   13    7     -0.45      0.00
   -6   14    5      0.45      0.00
   -6   14    4      2.43      0.00
   -6   14    3      1.26      0.00
    6   14    0     -2.32      0.00
    6   14    1     -0.10      0.00
   -7    0   23     -0.91      0.00
   -7    0   21     -2.64      0.00
   -7    0   19     -2.28      0.00
   -7    0   17      2.38      0.00
   -7    0   13     -5.90      0.00
   -7    0   11    -22.84      0.00
   -7    0    9     -0.80      0.00
   -7    0    7     18.62      0.00
   -7    0    5     -0.27      0.00
   -7    0    3     -6.97      0.00
   -7    0    1     10.06      0.00
    7    0    1     14.30      0.00
    7    0    3      2.47      0.00
    7    0    5     -7.52      0.00
    7    0    7     -5.08      0.00
    7    0    9     -5.17      0.00
    7    0   13      1.24      0.00
    7    0   15      0.50      0.00
    7    0   17      0.04      0.00
    7    0   19      0.09      0.00
   -7    1   23      1.17      0.00
   -7    1   22      1.44      0.00
   -7    1   21     -0.73      0.00
   -7    1   20      2.72      0.00
   -7    1   19     -0.82      0.00
   -7    1   18      1.62      0.00
   -7    1   17     -2.52      0.00
   -7    1   16     -5.97      0.00
   -7    1   15      1.69      0.00
   -7    1   14     -3.77      0.00
   -7    1   13      5.56      0.00
   -7    1   12     14.53      0.00
   -7    1   11     -2.52      0.00
   -7    1   10     15.37      0.00
   -7    1    9    -10.68      0.00
   -7    1    8     -9.15      0.00
   -7    1    7      3.41      0.00
   -7    1    6    -10.29      0.00
   -7    1    5      8.62      0.00
   -7    1    4      3.55      0.00
   -7    1    3     -4.47      0.00
   -7    1    2     -1.39      0.00
   -7    1    1     -6.81      0.00
    7    1    0    -13.16      0.00
    7    1    1     -1.48      0.00
    7    1    2     -9.00      0.00
    7    1    3     -5.60      0.00
    7    1    4      3.81      0.00
    7    1    5     -1.29      0.00
    7    1    6      5.32      0.00
    7    1    7      1.06      0.00
    7    1    8      5.91      0.00
    7    1    9      0.35      0.00
    7    1   10      3.54      0.00
    7    1   11      1.04      0.00
    7    1   12      0.52      0.00
    7    1   13      1.66      0.00
    7    1   14     -1.41      0.00
    7    1   15     -0.17      0.00
    7    1   16      1.10      0.00
    7    1   17      0.45      0.00
    7    1   18     -0.50      0.00
    7    1   19     -0.40      0.00
   -7    2   23      0.51      0.00
   -7    2   22     -1.76      0.00
   -7    2   21     -1.36      0.00
   -7    2   20      0.31      0.00
   -7    2   19     -2.87      0.00
   -7    2   18      2.88      0.00
   -7    2   17      1.31      0.00
   -7    2   16      3.44      0.00
   -7    2   15      3.72      0.00
   -7    2   14     -7.24      0.00
   -7    2   13     -2.06      0.00
   -7    2   12     -5.21      0.00
   -7    2   11    -12.42      0.00
   -7    2   10     12.16      0.00
   -7    2    9     -6.50      0.00
   -7    2    8     10.09      0.00
   -7    2    7      3.95      0.00
   -7    2    6    -10.15      0.00
   -7    2    5      6.22      0.00
   -7    2    4     -4.73      0.00
   -7    2    3      2.09      0.00
   -7    2    2     11.45      0.00
   -7    2    1      6.04      0.00
    7    2    0     -5.03      0.00
    7    2    1      8.79      0.00
    7    2    2      8.63      0.00
    7    2    3      2.48      0.00
    7    2    4      7.06      0.00
    7    2    5     -2.34      0.00
    7    2    6      0.47      0.00
    7    2    7     -4.83      0.00
    7    2    8     -0.68      0.00
    7    2    9     -5.27      0.00
    7    2   10     -2.38      0.00
    7    2   11     -1.01      0.00
    7    2   12     -2.40      0.00
    7    2   13      0.55      0.00
    7    2   14     -0.31      0.00
    7    2   15     -1.06      0.00
    7    2   16     -0.01      0.00
    7    2   17     -0.66      0.00
    7    2   18     -0.94      0.00
    7    2   19      0.39      0.00
   -7    3   23      2.35      0.00
   -7    3   22     -0.71      0.00
   -7    3   21      2.39      0.00
   -7    3   20      1.61      0.00
   -7    3   19     -1.50      0.00
   -7    3   18     -1.36      0.00
   -7    3   17     -4.51      0.00
   -7    3   16     -0.37      0.00
   -7    3   15      1.15      0.00
   -7    3   14     -0.09      0.00
   -7    3   13      8.27      0.00
   -7    3   12      1.77      0.00
   -7    3   11     -2.16      0.00
   -7    3   10      6.04      0.00
   -7    3    9    -14.87      0.00
   -7    3    8      8.02      0.00
   -7    3    7     -3.06      0.00
   -7    3    6     -0.16      0.00
   -7    3    5      8.65      0.00
   -7    3    4     -7.84      0.00
   -7    3    3     -3.69      0.00
   -7    3    2     -5.54      0.00
   -7    3    1    -10.97      0.00
    7    3    0     -1.83      0.00
    7    3    1     -2.58      0.00
    7    3    2     -3.09      0.00
    7    3    3    -11.06      0.00
    7    3    4     -2.44      0.00
    7    3    5     -5.17      0.00
    7    3    6      1.14      0.00
    7    3    7     -2.83      0.00
    7    3    8      3.58      0.00
    7    3    9      3.66      0.00
    7    3   10      2.39      0.00
    7    3   11      3.15      0.00
    7    3   12      0.51      0.00
    7    3   13      1.58      0.00
    7    3   14      0.98      0.00
    7    3   15     -1.34      0.00
    7    3   16      0.89      0.00
    7    3   17      2.12      0.00
    7    3   18     -0.93      0.00
    7    3   19      1.30      0.00
   -7    4   22     -2.97      0.00
   -7    4   21      1.36      0.00
   -7    4   20      0.15      0.00
   -7    4   19      1.07      0.00
   -7    4   18      3.35      0.00
   -7    4   17      2.14      0.00
   -7    4   16      0.19      0.00
   -7    4   15     -1.74      0.00
   -7    4   14     -3.36      0.00
   -7    4   13      1.63      0.00
   -7    4   12     -3.92      0.00
   -7    4   11      1.10      0.00
   -7    4   10      6.52      0.00
   -7    4    9     -6.75      0.00
   -7    4    8      8.57      0.00
   -7    4    7    -11.51      0.00
   -7    4    6      0.14      0.00
   -7    4    5      2.58      0.00
   -7    4    4     -1.92      0.00
   -7    4    3      9.62      0.00
   -7    4    2      6.43      0.00
   -7    4    1      1.37      0.00
    7    4    0     -4.31      0.00
    7    4    1     -3.53      0.00
    7    4    2      4.87      0.00
    7    4    3      2.22      0.00
    7    4    4      8.96      0.00
    7    4    5      1.59      0.00
    7    4    6      6.11      0.00
    7    4    7      0.97      0.00
    7    4    8      0.29      0.00
    7    4    9     -0.49      0.00
    7    4   10     -4.09      0.00
    7    4   11     -1.52      0.00
    7    4   12     -2.31      0.00
    7    4   13     -1.80      0.00
    7    4   14      0.33      0.00
    7    4   15     -0.65      0.00
    7    4   16     -0.64      0.00
    7    4   17      0.70      0.00
    7    4   18     -2.14      0.00
   -7    5   22     -0.95      0.00
   -7    5   21      0.96      0.00
   -7    5   20     -3.32      0.00
   -7    5   19     -2.86      0.00
   -7    5   18     -0.33      0.00
   -7    5   17     -0.81      0.00
   -7    5   16      0.04      0.00
   -7    5   15      1.74      0.00
   -7    5   14     -0.25      0.00
   -7    5   13      3.84      0.00
   -7    5   12     -3.38      0.00
   -7    5   11      0.68      0.00
   -7    5   10      0.63      0.00
   -7    5    9     -3.02      0.00
   -7    5    8     10.77      0.00
   -7    5    7     -4.64      0.00
   -7    5    6      7.34      0.00
   -7    5    5     -2.85      0.00
   -7    5    4     -6.10      0.00
   -7    5    3     -1.96      0.00
   -7    5    2     -5.98      0.00
   -7    5    1     -1.90      0.00
    7    5    0      2.66      0.00
    7    5    1      1.89      0.00
    7    5    2      4.55      0.00
    7    5    3     -4.39      0.00
    7    5    4     -0.63      0.00
    7    5    5     -7.04      0.00
    7    5    6     -1.95      0.00
    7    5    7     -3.22      0.00
    7    5    8     -3.63      0.00
    7    5    9      1.49      0.00
    7    5   10      0.77      0.00
    7    5   11      2.15      0.00
    7    5   12      1.36      0.00
    7    5   13      0.56      0.00
    7    5   14      2.11      0.00
    7    5   15      0.04      0.00
    7    5   16     -0.90      0.00
    7    5   17      1.08      0.00
    7    5   18      0.82      0.00
   -7    6   21      3.61      0.00
   -7    6   20     -0.17      0.00
   -7    6   19      1.63      0.00
   -7    6   18      1.35      0.00
   -7    6   17     -1.92      0.00
   -7    6   16     -0.49      0.00
   -7    6   15     -1.75      0.00
   -7    6   14     -2.94      0.00
   -7    6   13      1.10      0.00
   -7    6   12     -3.71      0.00
   -7    6   11      3.52      0.00
   -7    6   10     -0.95      0.00
   -7    6    9     -4.60      0.00
   -7    6    8      1.09      0.00
   -7    6    7     -7.85      0.00
   -7    6    6      5.79      0.00
   -7    6    5     -1.20      0.00
   -7    6    4      4.04      0.00
   -7    6    3      4.89      0.00
   -7    6    2      0.60      0.00
   -7    6    1      2.27      0.00
    7    6    0      0.59      0.00
    7    6    1     -3.50      0.00
    7    6    2     -0.93      0.00
    7    6    3     -4.45      0.00
    7    6    4      3.96      0.00
    7    6    5      0.66      0.00
    7    6    6      3.35      0.00
    7    6    7      3.13      0.00
    7    6    8      0.79      0.00
    7    6    9      1.70      0.00
    7    6   10     -1.09      0.00
    7    6   11     -1.82      0.00
    7    6   12     -0.04      0.00
    7    6   13     -1.43      0.00
    7    6   14     -0.14      0.00
    7    6   15     -0.29      0.00
    7    6   16     -0.01      0.00
    7    6   17     -0.16      0.00
   -7    7   20     -2.12      0.00
   -7    7   19      2.49      0.00
   -7    7   18      1.21      0.00
   -7    7   17      0.66      0.00
   -7    7   16      3.14      0.00
   -7    7   15      2.23      0.00
   -7    7   14      3.18      0.00
   -7    7   13      1.22      0.00
   -7    7   12     -3.42      0.00
   -7    7   11      1.85      0.00
   -7    7   10     -1.27      0.00
   -7    7    9      1.78      0.00
   -7    7    8      4.16      0.00
   -7    7    7     -3.11      0.00
   -7    7    6      3.28      0.00
   -7    7    5     -5.66      0.00
   -7    7    4     -1.45      0.00
   -7    7    3     -2.87      0.00
   -7    7    2     -2.47      0.00
   -7    7    1      1.47      0.00
    7    7    0     -0.65      0.00
    7    7    1     -0.85      0.00
    7    7    2      4.19      0.00
    7    7    3     -0.27      0.00
    7    7    4      2.46      0.00
    7    7    5     -2.90      0.00
    7    7    6     -1.61      0.00
    7    7    7     -1.09      0.00
    7    7    8     -1.66      0.00
    7    7    9     -1.29      0.00
    7    7   10      1.52      0.00
    7    7   11      0.74      0.00
    7    7   12      1.88      0.00
    7    7   13      0.20      0.00
    7    7   14     -0.09      0.00
    7    7   15      0.11      0.00
    7    7   16     -0.11      0.00
   -7    8   19     -1.15      0.00
   -7    8   18     -2.77      0.00
   -7    8   17     -1.67      0.00
   -7    8   16     -2.35      0.00
   -7    8   15     -2.43      0.00
   -7    8   14     -0.64      0.00
   -7    8   13      0.60      0.00
   -7    8   12      1.95      0.00
   -7    8   11      2.16      0.00
   -7    8   10     -2.31      0.00
   -7    8    9     -0.69      0.00
   -7    8    8     -0.35      0.00
   -7    8    7     -1.88      0.00
   -7    8    6      4.51      0.00
   -7    8    5     -0.27      0.00
   -7    8    4      5.22      0.00
   -7    8    3      0.96      0.00
   -7    8    2      0.02      0.00
   -7    8    1      0.91      0.00
    7    8    0      2.67      0.00
    7    8    1     -0.93      0.00
    7    8    2      0.86      0.00
    7    8    3     -3.45      0.00
    7    8    4      0.69      0.00
    7    8    5     -0.17      0.00
    7    8    6      1.80      0.00
    7    8    7      0.30      0.00
    7    8    8      2.55      0.00
    7    8    9     -0.44      0.00
    7    8   10      1.15      0.00
    7    8   11     -0.93      0.00
    7    8   12     -2.06      0.00
    7    8   13     -1.09      0.00
    7    8   14     -0.56      0.00
    7    8   15      0.60      0.00
   -7    9   18     -0.18      0.00
   -7    9   17      0.67      0.00
   -7    9   16      1.12      0.00
   -7    9   15      1.94      0.00
   -7    9   14     -1.21      0.00
   -7    9   13     -1.47      0.00
   -7    9   12     -1.28      0.00
   -7    9   11      0.41      0.00
   -7    9   10      0.41      0.00
   -7    9    9      1.66      0.00
   -7    9    8      0.09      0.00
   -7    9    7     -2.07      0.00
   -7    9    6     -0.39      0.00
   -7    9    5     -5.71      0.00
   -7    9    4      0.38      0.00
   -7    9    3     -2.47      0.00
   -7    9    2      1.66      0.00
   -7    9    1      2.63      0.00
    7    9    0     -0.19      0.00
    7    9    1     -2.65      0.00
    7    9    2      0.75      0.00
    7    9    3     -0.58      0.00
    7    9    4      1.19      0.00
    7    9    5     -1.10      0.00
    7    9    6      1.16      0.00
    7    9    7     -2.55      0.00
    7    9    8      1.55      0.00
    7    9    9     -1.68      0.00
    7    9   10     -1.99      0.00
    7    9   11     -0.23      0.00
    7    9   12      0.73      0.00
    7    9   13      1.52      0.00
    7    9   14      0.49      0.00
   -7   10   17     -0.04      0.00
   -7   10   16     -1.51      0.00
   -7   10   15     -0.20      0.00
   -7   10   14     -0.43      0.00
   -7   10   13      1.71      0.00
   -7   10   12     -0.37      0.00
   -7   10   11     -0.15      0.00
   -7   10   10     -2.16      0.00
   -7   10    9      0.62      0.00
   -7   10    8     -0.21      0.00
   -7   10    7      1.67      0.00
   -7   10    6      4.48      0.00
   -7   10    5      0.21      0.00
   -7   10    4      3.41      0.00
   -7   10    3     -4.02      0.00
   -7   10    2     -0.46      0.00
   -7   10    1     -2.14      0.00
    7   10    0      2.39      0.00
    7   10    1      0.97      0.00
    7   10    2      1.71      0.00
    7   10    3      0.59      0.00
    7   10    4      2.12      0.00
    7   10    5     -0.96      0.00
    7   10    6      2.04      0.00
    7   10    7     -2.15      0.00
    7   10    8      0.54      0.00
    7   10    9      0.40      0.00
    7   10   10      0.60      0.00
    7   10   11      1.27      0.00
    7   10   12      1.59      0.00
    7   10   13      0.29      0.00
   -7   11   15      1.07      0.00
   -7   11   14     -1.73      0.00
   -7   11   13      0.21      0.00
   -7   11   12      0.32      0.00
   -7   11   11      1.92      0.00
   -7   11   10      0.30      0.00
   -7   11    9      2.32      0.00
   -7   11    8     -2.91      0.00
   -7   11    7     -1.92      0.00
   -7   11    6     -2.45      0.00
   -7   11    5     -3.01      0.00
   -7   11    4      3.22      0.00
   -7   11    3     -0.49      0.00
   -7   11    2      4.82      0.00
   -7   11    1      0.45      0.00
    7   11    0      0.61      0.00
    7   11    1     -1.13      0.00
    7   11    2     -1.03      0.00
    7   11    3     -3.20      0.00
    7   11    4     -1.33      0.00
    7   11    5     -2.65      0.00
    7   11    6      0.68      0.00
    7   11    7     -1.07      0.00
    7   11    8      0.62      0.00
    7   11    9      0.39      0.00
    7   11   10      0.21      0.00
    7   11   11     -1.80      0.00
   -7   12   13      0.70      0.00
   -7   12   12     -2.30      0.00
   -7   12   11     -2.46      0.00
   -7   12   10     -2.32      0.00
   -7   12    9      1.47      0.00
   -7   12    8      0.86      0.00
   -7   12    7      4.56      0.00
   -7   12    6      2.11      0.00
   -7   12    5     -0.36      0.00
   -7   12    4     -0.44      0.00
   -7   12    3     -4.28      0.00
   -7   12    2     -0.64      0.00
   -7   12    1     -3.02      0.00
    7   12    0     -0.18      0.00
    7   12    1     -0.55      0.00
    7   12    2      1.33      0.00
    7   12    3      1.42      0.00
    7   12    4      3.42      0.00
    7   12    5      2.39      0.00
    7   12    6      2.09      0.00
    7   12    7     -0.60      0.00
    7   12    8      0.21      0.00
   -7   13    9     -1.24      0.00
   -7   13    8     -4.23      0.00
   -7   13    7     -2.40      0.00
   -7   13    6     -1.00      0.00
   -7   13    5      0.24      0.00
   -7   13    4      3.05      0.00
   -7   13    3      2.36      0.00
   -7   13    2      2.77      0.00
   -7   13    1      1.07      0.00
    7   13    0      0.48      0.00
    7   13    1      0.55      0.00
    7   13    2      0.81      0.00
    7   13    3     -0.76      0.00
    7   13    4     -2.57      0.00
    7   13    5     -3.26      0.00
   -8    0   22      0.75      0.00
   -8    0   20      0.28      0.00
   -8    0   18      4.21      0.00
   -8    0   16      2.23      0.00
   -8    0   14     -6.92      0.00
   -8    0   12     -0.52      0.00
   -8    0   10     16.23      0.00
   -8    0    8      4.65      0.00
   -8    0    6     -8.36      0.00
   -8    0    4     -0.96      0.00
   -8    0    2      2.31      0.00
    8    0    0     -2.05      0.00
    8    0    2     -8.96      0.00
    8    0    4     -6.65      0.00
    8    0    6     -1.27      0.00
    8    0    8      2.76      0.00
    8    0   10      5.83      0.00
    8    0   12      3.94      0.00
    8    0   14     -2.34      0.00
    8    0   16     -0.07      0.00
    8    0   18     -0.90      0.00
   -8    1   23      0.35      0.00
   -8    1   22     -1.25      0.00
   -8    1   21      0.22      0.00
   -8    1   20      0.15      0.00
   -8    1   19     -1.39      0.00
   -8    1   18     -0.47      0.00
   -8    1   17     -4.51      0.00
   -8    1   16      3.30      0.00
   -8    1   15      1.89      0.00
   -8    1   14      0.70      0.00
   -8    1   13      5.53      0.00
   -8    1   12     -3.80      0.00
   -8    1   11     -7.33      0.00
   -8    1   10      0.34      0.00
   -8    1    9    -12.64      0.00
   -8    1    8      6.80      0.00
   -8    1    7      1.82      0.00
   -8    1    6     -1.07      0.00
   -8    1    5      6.28      0.00
   -8    1    4     -2.86      0.00
   -8    1    3     -1.22      0.00
   -8    1    2      1.34      0.00
   -8    1    1     -0.77      0.00
    8    1    0     -3.18      0.00
    8    1    1      6.18      0.00
    8    1    2     -2.37      0.00
    8    1    3      8.39      0.00
    8    1    4      2.46      0.00
    8    1    5      3.54      0.00
    8    1    6      2.00      0.00
    8    1    7     -0.14      0.00
    8    1    8      1.30      0.00
    8    1    9     -4.91      0.00
    8    1   10      0.66      0.00
    8    1   11     -4.74      0.00
    8    1   12     -2.32      0.00
    8    1   13      0.49      0.00
    8    1   14     -2.00      0.00
    8    1   15      0.94      0.00
    8    1   16      0.24      0.00
    8    1   17     -0.63      0.00
    8    1   18      0.28      0.00
   -8    2   23      1.35      0.00
   -8    2   22     -1.60      0.00
   -8    2   21      0.65      0.00
   -8    2   20     -0.48      0.00
   -8    2   19      1.98      0.00
   -8    2   18      2.23      0.00
   -8    2   17     -1.71      0.00
   -8    2   16      2.24      0.00
   -8    2   15     -4.22      0.00
   -8    2   14     -2.39      0.00
   -8    2   13      2.11      0.00
   -8    2   12     -1.49      0.00
   -8    2   11      4.55      0.00
   -8    2   10      7.07      0.00
   -8    2    9     -6.48      0.00
   -8    2    8      7.19      0.00
   -8    2    7     -7.81      0.00
   -8    2    6     -1.62      0.00
   -8    2    5      3.49      0.00
   -8    2    4     -3.64      0.00
   -8    2    3      3.24      0.00
   -8    2    2      0.76      0.00
   -8    2    1     -5.17      0.00
    8    2    0     -3.33      0.00
    8    2    1      6.42      0.00
    8    2    2     -6.66      0.00
    8    2    3     -1.29      0.00
    8    2    4     -4.28      0.00
    8    2    5     -4.15      0.00
    8    2    6     -3.23      0.00
    8    2    7     -4.54      0.00
    8    2    8      2.63      0.00
    8    2    9     -1.52      0.00
    8    2   10      3.68      0.00
    8    2   11      2.23      0.00
    8    2   12      0.46      0.00
    8    2   13      4.52      0.00
    8    2   14     -1.31      0.00
    8    2   15     -0.75      0.00
    8    2   16      2.13      0.00
    8    2   17     -0.18      0.00
    8    2   18     -0.04      0.00
   -8    3   22     -0.99      0.00
   -8    3   21      1.81      0.00
   -8    3   20     -2.43      0.00
   -8    3   19     -0.86      0.00
   -8    3   18     -2.13      0.00
   -8    3   17     -0.10      0.00
   -8    3   16      3.07      0.00
   -8    3   15     -1.92      0.00
   -8    3   14      2.58      0.00
   -8    3   13      3.02      0.00
   -8    3   12     -3.52      0.00
   -8    3   11      0.95      0.00
   -8    3   10     -0.67      0.00
   -8    3    9     -3.37      0.00
   -8    3    8      9.28      0.00
   -8    3    7     -6.83      0.00
   -8    3    6      4.88      0.00
   -8    3    5     -0.78      0.00
   -8    3    4     -5.20      0.00
   -8    3    3      2.41      0.00
   -8    3    2      1.06      0.00
   -8    3    1      3.56      0.00
    8    3    0     -8.65      0.00
    8    3    1      2.91      0.00
    8    3    2     -2.85      0.00
    8    3    3      2.85      0.00
    8    3    4      2.96      0.00
    8    3    5      2.76      0.00
    8    3    6      6.38      0.00
    8    3    7      1.38      0.00
    8    3    8      5.63      0.00
    8    3    9     -1.14      0.00
    8    3   10     -1.70      0.00
    8    3   11      0.04      0.00
    8    3   12     -5.38      0.00
    8    3   13      0.42      0.00
    8    3   14     -0.69      0.00
    8    3   15     -1.66      0.00
    8    3   16      1.72      0.00
    8    3   17     -0.63      0.00
    8    3   18     -1.94      0.00
   -8    4   22     -0.08      0.00
   -8    4   21      2.34      0.00
   -8    4   20     -0.19      0.00
   -8    4   19      2.36      0.00
   -8    4   18     -0.65      0.00
   -8    4   17      1.27      0.00
   -8    4   16     -0.26      0.00
   -8    4   15     -3.26      0.00
   -8    4   14     -0.50      0.00
   -8    4   13     -1.57      0.00
   -8    4   12     -3.64      0.00
   -8    4   11      3.37      0.00
   -8    4   10     -2.90      0.00
   -8    4    9     -1.65      0.00
   -8    4    8      4.25      0.00
   -8    4    7     -6.91      0.00
   -8    4    6      8.69      0.00
   -8    4    5     -1.50      0.00
   -8    4    4      1.05      0.00
   -8    4    3      1.60      0.00
   -8    4    2     -5.45      0.00
   -8    4    1     -4.20      0.00
    8    4    0     -2.90      0.00
    8    4    1      6.10      0.00
    8    4    2      0.12      0.00
    8    4    3      0.74      0.00
    8    4    4     -0.60      0.00
    8    4    5     -4.04      0.00
    8    4    6      0.12      0.00
    8    4    7     -7.74      0.00
    8    4    8     -2.74      0.00
    8    4    9     -1.48      0.00
    8    4   10     -2.12      0.00
    8    4   11      4.05      0.00
    8    4   12     -0.82      0.00
    8    4   13      3.50      0.00
    8    4   14      2.72      0.00
    8    4   15     -1.90      0.00
    8    4   16      0.14      0.00
    8    4   17      1.35      0.00
   -8    5   22      0.34      0.00
   -8    5   21      0.24      0.00
   -8    5   20     -2.12      0.00
   -8    5   19      0.31      0.00
   -8    5   18     -1.25      0.00
   -8    5   17      1.40      0.00
   -8    5   16     -0.19      0.00
   -8    5   15      1.66      0.00
   -8    5   14      3.85      0.00
   -8    5   13      1.35      0.00
   -8    5   12     -1.62      0.00
   -8    5   11      3.31      0.00
   -8    5   10     -2.83      0.00
   -8    5    9      2.03      0.00
   -8    5    8      0.03      0.00
   -8    5    7     -6.66      0.00
   -8    5    6      4.88      0.00
   -8    5    5     -7.10      0.00
   -8    5    4      1.96      0.00
   -8    5    3      1.19      0.00
   -8    5    2      1.13      0.00
   -8    5    1      5.22      0.00
    8    5    0     -2.58      0.00
    8    5    1      1.12      0.00
    8    5    2     -4.42      0.00
    8    5    3     -1.77      0.00
    8    5    4      1.39      0.00
    8    5    5     -2.82      0.00
    8    5    6      4.85      0.00
    8    5    7      0.94      0.00
    8    5    8      3.49      0.00
    8    5    9      4.61      0.00
    8    5   10     -2.00      0.00
    8    5   11      2.54      0.00
    8    5   12     -2.92      0.00
    8    5   13     -2.45      0.00
    8    5   14     -0.78      0.00
    8    5   15     -1.83      0.00
    8    5   16     -0.23      0.00
    8    5   17      1.33      0.00
   -8    6   21     -0.99      0.00
   -8    6   20     -0.73      0.00
   -8    6   19      1.52      0.00
   -8    6   18     -0.30      0.00
   -8    6   17      0.60      0.00
   -8    6   16     -2.70      0.00
   -8    6   15     -1.05      0.00
   -8    6   14      0.09      0.00
   -8    6   13      0.15      0.00
   -8    6   12      0.11      0.00
   -8    6   11      2.44      0.00
   -8    6   10     -3.06      0.00
   -8    6    9      2.90      0.00
   -8    6    8      0.09      0.00
   -8    6    7     -0.27      0.00
   -8    6    6      5.86      0.00
   -8    6    5     -3.57      0.00
   -8    6    4      4.60      0.00
   -8    6    3     -2.90      0.00
   -8    6    2     -1.95      0.00
   -8    6    1     -1.04      0.00
    8    6    0     -4.78      0.00
    8    6    1      2.05      0.00
    8    6    2      0.49      0.00
    8    6    3      1.10      0.00
    8    6    4      4.03      0.00
    8    6    5     -3.08      0.00
    8    6    6      2.03      0.00
    8    6    7     -1.91      0.00
    8    6    8     -3.74      0.00
    8    6    9      0.43      0.00
    8    6   10     -3.16      0.00
    8    6   11      1.88      0.00
    8    6   12      0.73      0.00
    8    6   13      0.88      0.00
    8    6   14      3.19      0.00
    8    6   15      1.56      0.00
    8    6   16     -0.10      0.00
   -8    7   20      0.64      0.00
   -8    7   19     -0.50      0.00
   -8    7   18     -0.94      0.00
   -8    7   17      1.22      0.00
   -8    7   16     -0.99      0.00
   -8    7   15      0.89      0.00
   -8    7   14     -2.12      0.00
   -8    7   13     -2.74      0.00
   -8    7   12     -0.65      0.00
   -8    7   11      1.21      0.00
   -8    7   10     -0.89      0.00
   -8    7    9      1.84      0.00
   -8    7    8     -2.21      0.00
   -8    7    7     -1.43      0.00
   -8    7    6      0.02      0.00
   -8    7    5     -4.90      0.00
   -8    7    4      3.34      0.00
   -8    7    3     -1.82      0.00
   -8    7    2      3.69      0.00
   -8    7    1      2.94      0.00
    8    7    0     -0.82      0.00
    8    7    1      2.82      0.00
    8    7    2      0.02      0.00
    8    7    3     -3.45      0.00
    8    7    4      1.78      0.00
    8    7    5     -2.67      0.00
    8    7    6      1.24      0.00
    8    7    7      1.48      0.00
    8    7    8      0.00      0.00
    8    7    9      2.79      0.00
    8    7   10     -0.15      0.00
    8    7   11     -0.18      0.00
    8    7   12     -0.79      0.00
    8    7   13     -2.22      0.00
    8    7   14     -1.61      0.00
    8    7   15     -1.81      0.00
   -8    8   19      0.38      0.00
   -8    8   18      1.00      0.00
   -8    8   17     -0.15      0.00
   -8    8   16     -0.51      0.00
   -8    8   15      4.25      0.00
   -8    8   14      0.86      0.00
   -8    8   13      1.96      0.00
   -8    8   12      0.24      0.00
   -8    8   11     -1.55      0.00
   -8    8   10     -0.67      0.00
   -8    8    9      0.83      0.00
   -8    8    8      0.34      0.00
   -8    8    7      2.33      0.00
   -8    8    6      2.28      0.00
   -8    8    5     -1.13      0.00
   -8    8    4      1.80      0.00
   -8    8    3     -5.34      0.00
   -8    8    2      0.25      0.00
   -8    8    1     -2.56      0.00
    8    8    0     -2.07      0.00
    8    8    1     -1.27      0.00
    8    8    2      1.23      0.00
    8    8    3     -1.78      0.00
    8    8    4      2.70      0.00
    8    8    5     -0.59      0.00
    8    8    6     -0.29      0.00
    8    8    7     -0.35      0.00
    8    8    8     -0.66      0.00
    8    8    9     -1.54      0.00
    8    8   10     -1.35      0.00
    8    8   11     -0.04      0.00
    8    8   12      1.01      0.00
    8    8   13      0.78      0.00
    8    8   14      2.24      0.00
   -8    9   18      1.43      0.00
   -8    9   17     -0.86      0.00
   -8    9   16     -1.25      0.00
   -8    9   15     -1.15      0.00
   -8    9   14     -4.33      0.00
   -8    9   13      1.55      0.00
   -8    9   12      0.02      0.00
   -8    9   11      0.44      0.00
   -8    9   10      0.78      0.00
   -8    9    9     -1.24      0.00
   -8    9    8     -1.74      0.00
   -8    9    7     -1.45      0.00
   -8    9    6     -0.48      0.00
   -8    9    5      0.51      0.00
   -8    9    4      4.07      0.00
   -8    9    3     -0.99      0.00
   -8    9    2      4.54      0.00
   -8    9    1     -1.37      0.00
    8    9    0      0.25      0.00
    8    9    1     -0.70      0.00
    8    9    2      2.52      0.00
    8    9    3     -1.26      0.00
    8    9    4      1.07      0.00
    8    9    5     -0.23      0.00
    8    9    6      0.54      0.00
    8    9    7     -1.45      0.00
    8    9    8      0.96      0.00
    8    9    9      0.22      0.00
    8    9   10      0.50      0.00
    8    9   11      1.58      0.00
    8    9   12      1.57      0.00
    8    9   13     -2.33      0.00
   -8   10   16      3.18      0.00
   -8   10   15      2.67      0.00
   -8   10   14     -0.51      0.00
   -8   10   13      1.56      0.00
   -8   10   12     -2.42      0.00
   -8   10   11     -0.01      0.00
   -8   10   10      0.73      0.00
   -8   10    9      1.27      0.00
   -8   10    8      1.81      0.00
   -8   10    7      1.10      0.00
   -8   10    6     -0.96      0.00
   -8   10    5     -2.71      0.00
   -8   10    4     -1.13      0.00
   -8   10    3     -3.75      0.00
   -8   10    2      3.19      0.00
   -8   10    1     -1.98      0.00
    8   10    0      2.83      0.00
    8   10    1     -1.31      0.00
    8   10    2      1.37      0.00
    8   10    3     -2.23      0.00
    8   10    4     -0.69      0.00
    8   10    5     -2.14      0.00
    8   10    6      0.59      0.00
    8   10    7     -1.23      0.00
    8   10    8      1.82      0.00
    8   10    9      1.74      0.00
    8   10   10     -0.22      0.00
    8   10   11     -2.25      0.00
   -8   11   14     -0.23      0.00
   -8   11   13      3.01      0.00
   -8   11   12     -0.22      0.00
   -8   11   11      0.60      0.00
   -8   11   10     -1.71      0.00
   -8   11    9     -2.68      0.00
   -8   11    8     -2.39      0.00
   -8   11    7      0.74      0.00
   -8   11    6      1.74      0.00
   -8   11    5      2.71      0.00
   -8   11    4      2.71      0.00
   -8   11    3     -1.48      0.00
   -8   11    2      2.02      0.00
   -8   11    1     -4.67      0.00
    8   11    0     -0.36      0.00
    8   11    1     -3.39      0.00
    8   11    2      1.03      0.00
    8   11    3     -0.69      0.00
    8   11    4      2.88      0.00
    8   11    5      1.72      0.00
    8   11    6      3.19      0.00
    8   11    7     -0.41      0.00
    8   11    8     -0.22      0.00
    8   11    9     -1.12      0.00
    8   11   10     -0.96      0.00
   -8   12   12     -1.37      0.00
   -8   12   11      2.75      0.00
   -8   12   10      2.96      0.00
   -8   12    9      3.07      0.00
   -8   12    8      0.94      0.00
   -8   12    7     -1.23      0.00
   -8   12    6     -3.60      0.00
   -8   12    5     -2.49      0.00
   -8   12    4     -0.81      0.00
   -8   12    3     -0.45      0.00
   -8   12    2      3.96      0.00
   -8   12    1     -0.08      0.00
    8   12    0      4.59      0.00
    8   12    1      0.47      0.00
    8   12    2      3.22      0.00
    8   12    3     -0.63      0.00
    8   12    4     -0.90      0.00
    8   12    5     -3.46      0.00
    8   12    6     -1.37      0.00
    8   12    7     -2.72      0.00
   -8   13    8      0.72      0.00
   -8   13    7      2.63      0.00
   -8   13    6      2.97      0.00
   -8   13    5      1.25      0.00
   -8   13    4      0.18      0.00
   -8   13    3     -2.49      0.00
   -8   13    2     -1.59      0.00
   -8   13    1     -3.46      0.00
    8   13    0      0.08      0.00
    8   13    1     -2.98      0.00
    8   13    2     -1.30      0.00
    8   13    3     -2.35      0.00
   -9    0   23      0.09      0.00
   -9    0   21     -1.05      0.00
   -9    0   19      3.20      0.00
   -9    0   17     -2.26      0.00
   -9    0   15     -5.45      0.00
   -9    0   13      0.86      0.00
   -9    0   11      0.67      0.00
   -9    0    9    -11.28      0.00
   -9    0    7     -6.59      0.00
   -9    0    5      1.36      0.00
   -9    0    3      2.76      0.00
   -9    0    1      0.43      0.00
    9    0    1     -3.58      0.00
    9    0    3      2.26      0.00
    9    0    5      3.88      0.00
    9    0    7      5.07      0.00
    9    0    9      2.48      0.00
    9    0   11     -5.61      0.00
    9    0   13     -3.80      0.00
    9    0   15      0.73      0.00
    9    0   17      0.20      0.00
   -9    1   23      1.67      0.00
   -9    1   22      1.24      0.00
   -9    1   21      0.18      0.00
   -9    1   20     -1.98      0.00
   -9    1   19      0.43      0.00
   -9    1   18     -1.98      0.00
   -9    1   17      1.70      0.00
   -9    1   16      4.12      0.00
   -9    1   15     -1.37      0.00
   -9    1   14      3.96      0.00
   -9    1   13     -1.86      0.00
   -9    1   12     -1.75      0.00
   -9    1   11      2.34      0.00
   -9    1   10      4.15      0.00
   -9    1    9      1.22      0.00
   -9    1    8      9.32      0.00
   -9    1    7     -2.97      0.00
   -9    1    6      1.66      0.00
   -9    1    5     -1.69      0.00
   -9    1    4     -2.95      0.00
   -9    1    3     -1.14      0.00
   -9    1    2     -0.66      0.00
   -9    1    1      1.86      0.00
    9    1    0      2.07      0.00
    9    1    1      1.08      0.00
    9    1    2     -0.12      0.00
    9    1    3      2.65      0.00
    9    1    4     -2.80      0.00
    9    1    5     -0.08      0.00
    9    1    6     -4.79      0.00
    9    1    7      0.21      0.00
    9    1    8     -3.89      0.00
    9    1    9     -2.06      0.00
    9    1   10      2.02      0.00
    9    1   11     -2.45      0.00
    9    1   12      5.30      0.00
    9    1   13      2.14      0.00
    9    1   14     -0.52      0.00
    9    1   15      1.49      0.00
    9    1   16      0.36      0.00
    9    1   17     -0.56      0.00
   -9    2   22     -1.03      0.00
   -9    2   21      1.37      0.00
   -9    2   20      1.47      0.00
   -9    2   19      2.55      0.00
   -9    2   18     -3.34      0.00
   -9    2   17      0.55      0.00
   -9    2   16     -2.04      0.00
   -9    2   15     -4.63      0.00
   -9    2   14      1.79      0.00
   -9    2   13     -2.01      0.00
   -9    2   12      2.46      0.00
   -9    2   11      0.00      0.00
   -9    2   10     -3.08      0.00
   -9    2    9     -3.28      0.00
   -9    2    8      1.66      0.00
   -9    2    7     -4.55      0.00
   -9    2    6      4.86      0.00
   -9    2    5      1.27      0.00
   -9    2    4      1.20      0.00
   -9    2    3      0.15      0.00
   -9    2    2     -1.98      0.00
   -9    2    1     -1.39      0.00
    9    2    0     -0.50      0.00
    9    2    1      0.96      0.00
    9    2    2     -3.95      0.00
    9    2    3      1.10      0.00
    9    2    4     -1.90      0.00
    9    2    5      3.16      0.00
    9    2    6     -0.46      0.00
    9    2    7      4.67      0.00
    9    2    8      2.73      0.00
    9    2    9     -0.56      0.00
    9    2   10      4.48      0.00
    9    2   11     -3.14      0.00
    9    2   12     -1.49      0.00
    9    2   13      0.19      0.00
    9    2   14     -3.55      0.00
    9    2   15      0.31      0.00
    9    2   16      0.56      0.00
    9    2   17     -1.64      0.00
   -9    3   22     -0.90      0.00
   -9    3   21     -1.48      0.00
   -9    3   20     -1.73      0.00
   -9    3   19      0.91      0.00
   -9    3   18     -0.95      0.00
   -9    3   17      5.17      0.00
   -9    3   16      1.07      0.00
   -9    3   15      2.19      0.00
   -9    3   14      2.42      0.00
   -9    3   13     -3.89      0.00
   -9    3   12     -0.96      0.00
   -9    3   11     -1.76      0.00
   -9    3   10     -0.17      0.00
   -9    3    9      1.25      0.00
   -9    3    8      0.87      0.00
   -9    3    7     -3.66      0.00
   -9    3    6      2.57      0.00
   -9    3    5     -3.43      0.00
   -9    3    4      1.50      0.00
   -9    3    3      1.78      0.00
   -9    3    2      0.89      0.00
   -9    3    1      0.21      0.00
    9    3    0     -1.66      0.00
    9    3    1      3.22      0.00
    9    3    2     -1.16      0.00
    9    3    3      3.02      0.00
    9    3    4     -1.57      0.00
    9    3    5      3.23      0.00
    9    3    6     -2.91      0.00
    9    3    7     -3.10      0.00
    9    3    8     -0.63      0.00
    9    3    9     -5.36      0.00
    9    3   10      0.98      0.00
    9    3   11     -0.71      0.00
    9    3   12     -0.92      0.00
    9    3   13      5.39      0.00
    9    3   14     -0.44      0.00
    9    3   15     -0.29      0.00
    9    3   16      1.81      0.00
    9    3   17     -1.03      0.00
   -9    4   22      1.43      0.00
   -9    4   21      1.79      0.00
   -9    4   20      0.03      0.00
   -9    4   19     -0.54      0.00
   -9    4   18     -3.32      0.00
   -9    4   17      0.12      0.00
   -9    4   16     -5.71      0.00
   -9    4   15     -0.82      0.00
   -9    4   14      1.96      0.00
   -9    4   13      2.52      0.00
   -9    4   12      3.68      0.00
   -9    4   11      1.50      0.00
   -9    4   10     -0.30      0.00
   -9    4    9      1.83      0.00
   -9    4    8     -0.75      0.00
   -9    4    7     -1.69      0.00
   -9    4    6      3.21      0.00
   -9    4    5     -3.91      0.00
   -9    4    4      1.52      0.00
   -9    4    3     -2.64      0.00
   -9    4    2     -0.04      0.00
   -9    4    1      1.53      0.00
    9    4    0     -0.80      0.00
    9    4    1      1.58      0.00
    9    4    2     -3.31      0.00
    9    4    3      2.54      0.00
    9    4    4     -4.07      0.00
    9    4    5      0.77      0.00
    9    4    6      0.22      0.00
    9    4    7     -1.10      0.00
    9    4    8      5.65      0.00
    9    4    9      0.38      0.00
    9    4   10      2.32      0.00
    9    4   11      2.84      0.00
    9    4   12     -3.73      0.00
    9    4   13      0.45      0.00
    9    4   14     -2.50      0.00
    9    4   15     -2.08      0.00
    9    4   16      1.00      0.00
   -9    5   21     -1.08      0.00
   -9    5   20     -0.17      0.00
   -9    5   19      1.74      0.00
   -9    5   18      1.59      0.00
   -9    5   17      5.14      0.00
   -9    5   16     -0.74      0.00
   -9    5   15      1.79      0.00
   -9    5   14     -2.82      0.00
   -9    5   13     -3.94      0.00
   -9    5   12     -1.95      0.00
   -9    5   11     -0.13      0.00
   -9    5   10     -1.76      0.00
   -9    5    9      2.64      0.00
   -9    5    8     -1.64      0.00
   -9    5    7      0.80      0.00
   -9    5    6      2.14      0.00
   -9    5    5     -3.20      0.00
   -9    5    4      4.37      0.00
   -9    5    3     -2.14      0.00
   -9    5    2      2.36      0.00
   -9    5    1     -0.19      0.00
    9    5    0     -1.91      0.00
    9    5    1      2.02      0.00
    9    5    2     -3.29      0.00
    9    5    3      4.33      0.00
    9    5    4     -1.58      0.00
    9    5    5      0.35      0.00
    9    5    6      3.24      0.00
    9    5    7     -3.62      0.00
    9    5    8      0.68      0.00
    9    5    9     -2.51      0.00
    9    5   10     -3.10      0.00
    9    5   11      1.22      0.00
    9    5   12     -2.77      0.00
    9    5   13      2.67      0.00
    9    5   14      2.77      0.00
    9    5   15      0.97      0.00
    9    5   16      1.36      0.00
   -9    6   20      0.13      0.00
   -9    6   19     -2.28      0.00
   -9    6   18     -2.96      0.00
   -9    6   17     -1.01      0.00
   -9    6   16     -3.58      0.00
   -9    6   15      4.25      0.00
   -9    6   14      1.21      0.00
   -9    6   13      1.75      0.00
   -9    6   12      0.42      0.00
   -9    6   11     -0.04      0.00
   -9    6   10     -1.44      0.00
   -9    6    9      2.07      0.00
   -9    6    8     -2.77      0.00
   -9    6    7      2.26      0.00
   -9    6    6      0.66      0.00
   -9    6    5     -2.38      0.00
   -9    6    4      1.71      0.00
   -9    6    3     -5.19      0.00
   -9    6    2      2.03      0.00
   -9    6    1     -1.40      0.00
    9    6    0     -1.68      0.00
    9    6    1      3.99      0.00
    9    6    2     -3.94      0.00
    9    6    3      1.54      0.00
    9    6    4     -0.43      0.00
    9    6    5     -2.75      0.00
    9    6    6      2.97      0.00
    9    6    7     -2.08      0.00
    9    6    8      2.00      0.00
    9    6    9      2.22      0.00
    9    6   10     -0.44      0.00
    9    6   11      3.10      0.00
    9    6   12     -0.74      0.00
    9    6   13     -0.49      0.00
    9    6   14     -1.78      0.00
    9    6   15     -2.64      0.00
   -9    7   20      2.82      0.00
   -9    7   19      0.84      0.00
   -9    7   18      3.65      0.00
   -9    7   17      0.99      0.00
   -9    7   16     -2.61      0.00
   -9    7   15      1.24      0.00
   -9    7   14     -3.86      0.00
   -9    7   13      1.49      0.00
   -9    7   12      0.52      0.00
   -9    7   11      0.70      0.00
   -9    7   10     -0.43      0.00
   -9    7    9      0.36      0.00
   -9    7    8     -2.67      0.00
   -9    7    7      0.96      0.00
   -9    7    6     -0.68      0.00
   -9    7    5      1.20      0.00
   -9    7    4      3.87      0.00
   -9    7    3     -1.19      0.00
   -9    7    2      3.60      0.00
   -9    7    1     -3.13      0.00
    9    7    0     -2.04      0.00
    9    7    1      3.25      0.00
    9    7    2     -1.84      0.00
    9    7    3      0.84      0.00
    9    7    4      3.14      0.00
    9    7    5     -2.19      0.00
    9    7    6      2.12      0.00
    9    7    7     -1.66      0.00
    9    7    8     -1.14      0.00
    9    7    9     -0.67      0.00
    9    7   10     -2.32      0.00
    9    7   11      0.13      0.00
    9    7   12     -1.37      0.00
    9    7   13      0.36      0.00
    9    7   14      1.36      0.00
   -9    8   18      1.22      0.00
   -9    8   17     -0.95      0.00
   -9    8   16      2.05      0.00
   -9    8   15      2.93      0.00
   -9    8   14     -3.22      0.00
   -9    8   13      1.51      0.00
   -9    8   12     -2.58      0.00
   -9    8   11      0.41      0.00
   -9    8   10      0.84      0.00
   -9    8    9      1.07      0.00
   -9    8    8      0.45      0.00
   -9    8    7      0.21      0.00
   -9    8    6     -2.27      0.00
   -9    8    5     -1.65      0.00
   -9    8    4     -1.08      0.00
   -9    8    3     -2.64      0.00
   -9    8    2      3.32      0.00
   -9    8    1     -0.14      0.00
    9    8    0     -3.41      0.00
    9    8    1      1.79      0.00
    9    8    2     -0.26      0.00
    9    8    3     -2.73      0.00
    9    8    4      1.15      0.00
    9    8    5     -2.65      0.00
    9    8    6      0.66      0.00
    9    8    7     -0.20      0.00
    9    8    8      1.35      0.00
    9    8    9      1.03      0.00
    9    8   10      0.37      0.00
    9    8   11      2.33      0.00
    9    8   12     -0.16      0.00
    9    8   13      0.26      0.00
   -9    9   17     -4.28      0.00
   -9    9   16      0.33      0.00
   -9    9   15      0.14      0.00
   -9    9   14     -0.38      0.00
   -9    9   13      4.07      0.00
   -9    9   12     -1.99      0.00
   -9    9   11      0.81      0.00
   -9    9   10     -1.18      0.00
   -9    9    9     -1.00      0.00
   -9    9    8      0.88      0.00
   -9    9    7      1.18      0.00
   -9    9    6      2.04      0.00
   -9    9    5      1.65      0.00
   -9    9    4      0.18      0.00
   -9    9    3     -1.80      0.00
   -9    9    2      0.92      0.00
   -9    9    1     -4.43      0.00
    9    9    0     -0.46      0.00
    9    9    1      0.64      0.00
    9    9    2      1.61      0.00
    9    9    3     -1.81      0.00
    9    9    4      2.11      0.00
    9    9    5     -0.50      0.00
    9    9    6      1.07      0.00
    9    9    7     -1.23      0.00
    9    9    8      1.07      0.00
    9    9    9      0.05      0.00
    9    9   10     -2.11      0.00
    9    9   11      0.49      0.00
    9    9   12     -0.87      0.00
   -9   10   15     -2.54      0.00
   -9   10   14     -2.12      0.00
   -9   10   13      1.20      0.00
   -9   10   12     -1.99      0.00
   -9   10   11      2.70      0.00
   -9   10   10      0.52      0.00
   -9   10    9     -0.40      0.00
   -9   10    8     -1.23      0.00
   -9   10    7     -2.42      0.00
   -9   10    6     -0.72      0.00
   -9   10    5     -0.19      0.00
   -9   10    4      0.85      0.00
   -9   10    3      1.10      0.00
   -9   10    2      3.69      0.00
   -9   10    1     -0.68      0.00
    9   10    0     -2.61      0.00
    9   10    1     -2.26      0.00
    9   10    2      0.95      0.00
    9   10    3     -2.42      0.00
    9   10    4      1.70      0.00
    9   10    5     -0.04      0.00
    9   10    6      2.18      0.00
    9   10    7     -1.05      0.00
    9   10    8      0.65      0.00
    9   10    9      0.14      0.00
    9   10   10     -2.12      0.00
   -9   11   13      0.72      0.00
   -9   11   12     -3.47      0.00
   -9   11   11      0.16      0.00
   -9   11   10     -1.09      0.00
   -9   11    9      0.94      0.00
   -9   11    8      2.64      0.00
   -9   11    7      1.71      0.00
   -9   11    6      0.17      0.00
   -9   11    5     -1.52      0.00
   -9   11    4     -1.84      0.00
   -9   11    3     -2.51      0.00
   -9   11    2     -0.53      0.00
   -9   11    1     -2.57      0.00
    9   11    0      2.55      0.00
    9   11    1      0.46      0.00
    9   11    2      4.32      0.00
    9   11    3     -0.18      0.00
    9   11    4      1.35      0.00
    9   11    5     -2.10      0.00
    9   11    6     -0.42      0.00
    9   11    7     -3.59      0.00
    9   11    8     -0.52      0.00
   -9   12   11      2.86      0.00
   -9   12   10     -1.88      0.00
   -9   12    9     -2.11      0.00
   -9   12    8     -1.78      0.00
   -9   12    7     -0.79      0.00
   -9   12    6      1.08      0.00
   -9   12    5      2.38      0.00
   -9   12    4      2.31      0.00
   -9   12    3      1.23      0.00
   -9   12    2      1.38      0.00
   -9   12    1     -1.74      0.00
    9   12    0     -0.10      0.00
    9   12    1     -3.68      0.00
    9   12    2     -0.86      0.00
    9   12    3     -4.00      0.00
    9   12    4     -0.82      0.00
    9   12    5     -1.16      0.00
   -9   13    5     -1.87      0.00
   -9   13    4     -1.29      0.00
   -9   13    3     -0.68      0.00
   -9   13    2      1.14      0.00
   -9   13    1      0.39      0.00
    9   13    0      1.76      0.00
  -10    0   22      1.88      0.00
  -10    0   20      0.69      0.00
  -10    0   18     -5.46      0.00
  -10    0   16     -2.64      0.00
  -10    0   14      2.92      0.00
  -10    0   12      0.33      0.00
  -10    0   10      2.16      0.00
  -10    0    8     10.23      0.00
  -10    0    6      6.65      0.00
  -10    0    4      1.71      0.00
  -10    0    2     -3.05      0.00
   10    0    0     -0.79      0.00
   10    0    2      2.48      0.00
   10    0    4      0.98      0.00
   10    0    6      1.67      0.00
   10    0    8     -4.12      0.00
   10    0   10     -4.25      0.00
   10    0   12      4.12      0.00
   10    0   14      2.58      0.00
   10    0   16      0.87      0.00
  -10    1   22     -1.79      0.00
  -10    1   21     -2.48      0.00
  -10    1   20      1.40      0.00
  -10    1   19      2.95      0.00
  -10    1   18     -0.39      0.00
  -10    1   17      5.30      0.00
  -10    1   16     -2.00      0.00
  -10    1   15     -0.16      0.00
  -10    1   14     -1.19      0.00
  -10    1   13     -3.84      0.00
  -10    1   12      0.78      0.00
  -10    1   11     -0.85      0.00
  -10    1   10     -2.79      0.00
  -10    1    9     -5.32      0.00
  -10    1    8     -1.82      0.00
  -10    1    7     -7.26      0.00
  -10    1    6      0.59      0.00
  -10    1    5     -2.13      0.00
  -10    1    4      2.83      0.00
  -10    1    3      0.32      0.00
  -10    1    2      1.95      0.00
  -10    1    1      1.19      0.00
   10    1    0      1.91      0.00
   10    1    1     -0.79      0.00
   10    1    2     -0.80      0.00
   10    1    3     -1.15      0.00
   10    1    4      0.18      0.00
   10    1    5     -1.93      0.00
   10    1    6     -0.27      0.00
   10    1    7      1.59      0.00
   10    1    8     -2.43      0.00
   10    1    9      4.75      0.00
   10    1   10      1.54      0.00
   10    1   11     -1.40      0.00
   10    1   12      2.01      0.00
   10    1   13     -3.54      0.00
   10    1   14     -0.86      0.00
   10    1   15     -0.92      0.00
   10    1   16     -0.94      0.00
  -10    2   22      1.91      0.00
  -10    2   21     -0.50      0.00
  -10    2   20     -0.39      0.00
  -10    2   19     -2.72      0.00
  -10    2   18     -3.52      0.00
  -10    2   17      2.84      0.00
  -10    2   16     -3.45      0.00
  -10    2   15      5.61      0.00
  -10    2   14      2.75      0.00
  -10    2   13      1.32      0.00
  -10    2   12      3.20      0.00
  -10    2   11     -2.06      0.00
  -10    2   10      2.78      0.00
  -10    2    9      2.25      0.00
  -10    2    8      2.79      0.00
  -10    2    7      0.56      0.00
  -10    2    6      1.29      0.00
  -10    2    5     -1.47      0.00
  -10    2    4     -0.69      0.00
  -10    2    3     -2.37      0.00
  -10    2    2      1.73      0.00
  -10    2    1     -0.13      0.00
   10    2    0     -0.07      0.00
   10    2    1      0.09      0.00
   10    2    2     -0.02      0.00
   10    2    3     -0.24      0.00
   10    2    4      2.21      0.00
   10    2    5      0.11      0.00
   10    2    6     -1.19      0.00
   10    2    7      2.84      0.00
   10    2    8     -3.00      0.00
   10    2    9     -0.28      0.00
   10    2   10      0.35      0.00
   10    2   11     -4.00      0.00
   10    2   12      3.17      0.00
   10    2   13      1.20      0.00
   10    2   14      0.19      0.00
   10    2   15      1.65      0.00
   10    2   16      1.12      0.00
  -10    3   22     -1.28      0.00
  -10    3   21      1.11      0.00
  -10    3   20      3.01      0.00
  -10    3   19      0.18      0.00
  -10    3   18      0.59      0.00
  -10    3   17      2.08      0.00
  -10    3   16     -6.24      0.00
  -10    3   15     -0.27      0.00
  -10    3   14     -6.78      0.00
  -10    3   13      0.41      0.00
  -10    3   12      1.75      0.00
  -10    3   11     -1.63      0.00
  -10    3   10      3.09      0.00
  -10    3    9     -1.88      0.00
  -10    3    8     -0.01      0.00
  -10    3    7     -0.37      0.00
  -10    3    6     -0.59      0.00
  -10    3    5      0.81      0.00
  -10    3    4      0.03      0.00
  -10    3    3     -1.13      0.00
  -10    3    2      1.14      0.00
  -10    3    1     -0.85      0.00
   10    3    0     -1.08      0.00
   10    3    1     -0.32      0.00
   10    3    2      0.88      0.00
   10    3    3     -1.11      0.00
   10    3    4     -0.20      0.00
   10    3    5      0.95      0.00
   10    3    6     -3.15      0.00
   10    3    7      2.02      0.00
   10    3    8      0.17      0.00
   10    3    9     -0.71      0.00
   10    3   10      3.94      0.00
   10    3   11     -1.40      0.00
   10    3   12     -0.13      0.00
   10    3   13     -0.38      0.00
   10    3   14     -2.85      0.00
   10    3   15     -0.66      0.00
   10    3   16     -0.60      0.00
  -10    4   21     -0.84      0.00
  -10    4   20     -1.53      0.00
  -10    4   19     -1.65      0.00
  -10    4   18      0.78      0.00
  -10    4   17      2.49      0.00
  -10    4   16      0.60      0.00
  -10    4   15      7.31      0.00
  -10    4   14     -1.03      0.00
  -10    4   13      1.88      0.00
  -10    4   12     -3.92      0.00
  -10    4   11     -1.75      0.00
  -10    4   10      0.57      0.00
  -10    4    9     -2.14      0.00
  -10    4    8      1.18      0.00
  -10    4    7      0.92      0.00
  -10    4    6      0.73      0.00
  -10    4    5      1.00      0.00
  -10    4    4     -0.14      0.00
  -10    4    3     -0.92      0.00
  -10    4    2      1.21      0.00
  -10    4    1     -1.37      0.00
   10    4    0      1.43      0.00
   10    4    1     -0.49      0.00
   10    4    2      1.27      0.00
   10    4    3      0.63      0.00
   10    4    4     -2.43      0.00
   10    4    5      3.00      0.00
   10    4    6     -0.90      0.00
   10    4    7      0.23      0.00
   10    4    8      1.39      0.00
   10    4    9     -2.79      0.00
   10    4   10      0.43      0.00
   10    4   11     -1.75      0.00
   10    4   12     -1.11      0.00
   10    4   13      2.55      0.00
   10    4   14      1.25      0.00
   10    4   15      1.35      0.00
  -10    5   21      1.69      0.00
  -10    5   20      1.03      0.00
  -10    5   19      0.11      0.00
  -10    5   18     -0.34      0.00
  -10    5   17     -1.88      0.00
  -10    5   16     -5.93      0.00
  -10    5   15     -0.50      0.00
  -10    5   14     -2.86      0.00
  -10    5   13      3.80      0.00
  -10    5   12     -0.22      0.00
  -10    5   11      2.62      0.00
  -10    5   10     -0.20      0.00
  -10    5    9      0.19      0.00
  -10    5    8     -1.47      0.00
  -10    5    7     -1.27      0.00
  -10    5    6     -0.80      0.00
  -10    5    5      0.63      0.00
  -10    5    4      0.56      0.00
  -10    5    3     -0.94      0.00
  -10    5    2      1.61      0.00
  -10    5    1     -3.02      0.00
   10    5    0      0.27      0.00
   10    5    1     -1.64      0.00
   10    5    2     -2.28      0.00
   10    5    3      1.92      0.00
   10    5    4     -2.99      0.00
   10    5    5      1.52      0.00
   10    5    6     -0.12      0.00
   10    5    7     -2.04      0.00
   10    5    8      1.81      0.00
   10    5    9     -1.03      0.00
   10    5   10      1.39      0.00
   10    5   11      1.76      0.00
   10    5   12      0.33      0.00
   10    5   13     -0.02      0.00
   10    5   14     -1.78      0.00
   10    5   15     -1.42      0.00
  -10    6   20      0.08      0.00
  -10    6   19     -0.43      0.00
  -10    6   18      3.07      0.00
  -10    6   17      3.75      0.00
  -10    6   16      2.23      0.00
  -10    6   15      4.65      0.00
  -10    6   14     -2.88      0.00
  -10    6   13      0.21      0.00
  -10    6   12     -2.47      0.00
  -10    6   11      1.30      0.00
  -10    6   10     -0.96      0.00
  -10    6    9      2.22      0.00
  -10    6    8     -0.36      0.00
  -10    6    7      1.47      0.00
  -10    6    6     -1.43      0.00
  -10    6    5     -0.42      0.00
  -10    6    4     -0.51      0.00
  -10    6    3     -0.08      0.00
  -10    6    2      3.33      0.00
  -10    6    1     -0.43      0.00
   10    6    0      2.35      0.00
   10    6    1      2.32      0.00
   10    6    2     -1.11      0.00
   10    6    3      4.45      0.00
   10    6    4     -0.21      0.00
   10    6    5      0.59      0.00
   10    6    6      1.85      0.00
   10    6    7     -1.73      0.00
   10    6    8      1.38      0.00
   10    6    9     -1.03      0.00
   10    6   10     -0.44      0.00
   10    6   11     -1.06      0.00
   10    6   12     -1.36      0.00
   10    6   13     -0.23      0.00
   10    6   14      0.70      0.00
  -10    7   19     -3.85      0.00
  -10    7   18     -1.46      0.00
  -10    7   17     -5.31      0.00
  -10    7   16     -2.55      0.00
  -10    7   15      1.67      0.00
  -10    7   14     -1.25      0.00
  -10    7   13      3.41      0.00
  -10    7   12     -1.70      0.00
  -10    7   11      0.60      0.00
  -10    7   10     -1.90      0.00
  -10    7    9      0.80      0.00
  -10    7    8     -0.94      0.00
  -10    7    7      1.89      0.00
  -10    7    6      0.50      0.00
  -10    7    5      1.16      0.00
  -10    7    4     -1.12      0.00
  -10    7    3     -1.80      0.00
  -10    7    2     -0.75      0.00
  -10    7    1     -2.58      0.00
   10    7    0     -1.56      0.00
   10    7    1      1.33      0.00
   10    7    2     -3.74      0.00
   10    7    3     -0.55      0.00
   10    7    4     -1.96      0.00
   10    7    5     -3.10      0.00
   10    7    6      0.59      0.00
   10    7    7     -1.74      0.00
   10    7    8      1.48      0.00
   10    7    9     -0.46      0.00
   10    7   10      0.97      0.00
   10    7   11      0.76      0.00
   10    7   12      0.98      0.00
   10    7   13      1.15      0.00
  -10    8   18      4.75      0.00
  -10    8   17     -0.85      0.00
  -10    8   16      1.61      0.00
  -10    8   15     -1.49      0.00
  -10    8   14     -2.78      0.00
  -10    8   13      2.18      0.00
  -10    8   12     -1.50      0.00
  -10    8   11      2.43      0.00
  -10    8   10     -1.27      0.00
  -10    8    9      0.36      0.00
  -10    8    8     -1.82      0.00
  -10    8    7     -0.84      0.00
  -10    8    6     -0.23      0.00
  -10    8    5      0.62      0.00
  -10    8    4      1.03      0.00
  -10    8    3      1.52      0.00
  -10    8    2      2.63      0.00
  -10    8    1     -0.87      0.00
   10    8    0     -1.27      0.00
   10    8    1      2.14      0.00
   10    8    2     -1.14      0.00
   10    8    3      0.82      0.00
   10    8    4      3.00      0.00
   10    8    5      0.79      0.00
   10    8    6      2.78      0.00
   10    8    7     -0.86      0.00
   10    8    8      1.47      0.00
   10    8    9     -1.65      0.00
   10    8   10     -0.14      0.00
   10    8   11     -0.10      0.00
   10    8   12     -1.38      0.00
  -10    9   16      3.56      0.00
  -10    9   15     -0.22      0.00
  -10    9   14      0.23      0.00
  -10    9   13      0.89      0.00
  -10    9   12     -2.72      0.00
  -10    9   11      1.95      0.00
  -10    9   10     -0.44      0.00
  -10    9    9      2.17      0.00
  -10    9    8     -0.20      0.00
  -10    9    7     -0.15      0.00
  -10    9    6      0.26      0.00
  -10    9    5     -1.52      0.00
  -10    9    4     -1.36      0.00
  -10    9    3     -1.68      0.00
  -10    9    2      0.79      0.00
  -10    9    1     -0.60      0.00
   10    9    0     -2.96      0.00
   10    9    1      1.72      0.00
   10    9    2      0.13      0.00
   10    9    3     -0.91      0.00
   10    9    4      0.64      0.00
   10    9    5     -2.03      0.00
   10    9    6      0.13      0.00
   10    9    7     -2.49      0.00
   10    9    8      1.97      0.00
   10    9    9     -0.66      0.00
   10    9   10     -0.13      0.00
   10    9   11      1.60      0.00
  -10   10   15     -1.21      0.00
  -10   10   14      0.72      0.00
  -10   10   13      1.27      0.00
  -10   10   12     -1.77      0.00
  -10   10   11      1.03      0.00
  -10   10   10     -2.02      0.00
  -10   10    9      0.09      0.00
  -10   10    8     -0.42      0.00
  -10   10    7      1.15      0.00
  -10   10    6      1.33      0.00
  -10   10    5     -0.37      0.00
  -10   10    4      1.13      0.00
  -10   10    3      0.23      0.00
  -10   10    2     -0.06      0.00
  -10   10    1     -3.43      0.00
   10   10    0     -0.43      0.00
   10   10    1      1.99      0.00
   10   10    2      1.15      0.00
   10   10    3     -0.76      0.00
   10   10    4      1.01      0.00
   10   10    5     -0.98      0.00
   10   10    6      1.27      0.00
   10   10    7     -2.37      0.00
   10   10    8      1.47      0.00
   10   10    9     -0.34      0.00
  -10   11   12     -1.56      0.00
  -10   11   11      2.93      0.00
  -10   11   10     -0.20      0.00
  -10   11    9      0.19      0.00
  -10   11    8     -0.80      0.00
  -10   11    7     -0.27      0.00
  -10   11    6     -0.44      0.00
  -10   11    5     -0.54      0.00
  -10   11    4      1.08      0.00
  -10   11    3      0.53      0.00
  -10   11    2      2.00      0.00
  -10   11    1      1.35      0.00
   10   11    0     -2.21      0.00
   10   11    1     -1.08      0.00
   10   11    2     -0.87      0.00
   10   11    3     -2.77      0.00
   10   11    4     -0.59      0.00
   10   11    5     -0.94      0.00
   10   11    6      2.09      0.00
  -10   12    9      0.72      0.00
  -10   12    8      0.91      0.00
  -10   12    7      0.29      0.00
  -10   12    6     -0.76      0.00
  -10   12    5     -0.68      0.00
  -10   12    4     -0.75      0.00
  -10   12    3     -2.15      0.00
  -10   12    2     -1.02      0.00
  -10   12    1     -1.48      0.00
   10   12    0     -0.58      0.00
   10   12    1     -0.05      0.00
   10   12    2      1.75      0.00
   10   12    3      1.57      0.00
  -11    0   21     -3.11      0.00
  -11    0   19     -0.04      0.00
  -11    0   17      5.28      0.00
  -11    0   15      5.92      0.00
  -11    0   13      2.61      0.00
  -11    0   11      3.97      0.00
  -11    0    9     -2.32      0.00
  -11    0    7     -6.94      0.00
  -11    0    5     -2.83      0.00
  -11    0    3     -0.58      0.00
  -11    0    1      1.19      0.00
   11    0    1     -1.42      0.00
   11    0    3      0.59      0.00
   11    0    5     -0.06      0.00
   11    0    7     -2.32      0.00
   11    0    9      3.57      0.00
   11    0   11      2.86      0.00
   11    0   13     -0.90      0.00
   11    0   15     -1.84      0.00
  -11    1   22      1.50      0.00
  -11    1   21      0.82      0.00
  -11    1   20      1.87      0.00
  -11    1   19     -2.36      0.00
  -11    1   18     -2.67      0.00
  -11    1   17     -1.05      0.00
  -11    1   16     -6.34      0.00
  -11    1   15      0.80      0.00
  -11    1   14     -3.48      0.00
  -11    1   13      1.60      0.00
  -11    1   12     -1.52      0.00
  -11    1   11      1.00      0.00
  -11    1   10     -0.38      0.00
  -11    1    9      3.38      0.00
  -11    1    8      4.46      0.00
  -11    1    7      1.18      0.00
  -11    1    6      2.78      0.00
  -11    1    5     -0.05      0.00
  -11    1    4      0.00      0.00
  -11    1    3     -1.80      0.00
  -11    1    2      0.70      0.00
  -11    1    1     -0.13      0.00
   11    1    0      0.44      0.00
   11    1    1      0.01      0.00
   11    1    2     -0.03      0.00
   11    1    3      1.50      0.00
   11    1    4     -0.54      0.00
   11    1    5     -1.75      0.00
   11    1    6      1.57      0.00
   11    1    7      0.16      0.00
   11    1    8     -1.17      0.00
   11    1    9      2.24      0.00
   11    1   10     -3.62      0.00
   11    1   11     -0.45      0.00
   11    1   12      0.84      0.00
   11    1   13     -0.90      0.00
   11    1   14      1.12      0.00
   11    1   15      0.39      0.00
  -11    2   21     -0.71      0.00
  -11    2   20      2.23      0.00
  -11    2   19      0.20      0.00
  -11    2   18      3.32      0.00
  -11    2   17      3.47      0.00
  -11    2   16      0.00      0.00
  -11    2   15      4.01      0.00
  -11    2   14     -5.31      0.00
  -11    2   13      1.26      0.00
  -11    2   12     -2.49      0.00
  -11    2   11     -0.76      0.00
  -11    2   10     -0.85      0.00
  -11    2    9     -2.64      0.00
  -11    2    8     -0.66      0.00
  -11    2    7     -0.84      0.00
  -11    2    6     -0.52      0.00
  -11    2    5      2.18      0.00
  -11    2    4     -1.19      0.00
  -11    2    3      0.11      0.00
  -11    2    2      0.44      0.00
  -11    2    1     -1.65      0.00
   11    2    0     -1.35      0.00
   11    2    1      0.66      0.00
   11    2    2     -2.08      0.00
   11    2    3     -0.17      0.00
   11    2    4      1.08      0.00
   11    2    5     -0.96      0.00
   11    2    6      1.06      0.00
   11    2    7      1.50      0.00
   11    2    8     -2.22      0.00
   11    2    9      2.32      0.00
   11    2   10      0.21      0.00
   11    2   11     -0.79      0.00
   11    2   12      1.01      0.00
   11    2   13     -1.57      0.00
   11    2   14     -0.63      0.00
   11    2   15     -0.65      0.00
  -11    3   21      0.49      0.00
  -11    3   20     -1.25      0.00
  -11    3   19     -3.05      0.00
  -11    3   18      0.37      0.00
  -11    3   17     -2.49      0.00
  -11    3   16     -1.61      0.00
  -11    3   15      4.07      0.00
  -11    3   14     -0.85      0.00
  -11    3   13      6.59      0.00
  -11    3   12     -3.31      0.00
  -11    3   11      1.71      0.00
  -11    3   10      1.64      0.00
  -11    3    9     -2.79      0.00
  -11    3    8      1.65      0.00
  -11    3    7     -2.35      0.00
  -11    3    6     -0.51      0.00
  -11    3    5      2.62      0.00
  -11    3    4     -2.21      0.00
  -11    3    3      2.62      0.00
  -11    3    2     -0.26      0.00
  -11    3    1     -1.54      0.00
   11    3    0     -0.53      0.00
   11    3    1      2.45      0.00
   11    3    2      1.15      0.00
   11    3    3     -0.20      0.00
   11    3    4      1.12      0.00
   11    3    5      0.04      0.00
   11    3    6     -1.47      0.00
   11    3    7      1.09      0.00
   11    3    8     -1.36      0.00
   11    3    9     -0.51      0.00
   11    3   10      0.17      0.00
   11    3   11     -1.63      0.00
   11    3   12      0.96      0.00
   11    3   13      1.53      0.00
   11    3   14      0.76      0.00
   11    3   15      1.16      0.00
  -11    4   21      2.01      0.00
  -11    4   20      0.12      0.00
  -11    4   19      0.18      0.00
  -11    4   18      2.63      0.00
  -11    4   17     -0.31      0.00
  -11    4   16     -0.21      0.00
  -11    4   15     -1.70      0.00
  -11    4   14     -4.61      0.00
  -11    4   13      2.71      0.00
  -11    4   12     -4.60      0.00
  -11    4   11      3.84      0.00
  -11    4   10     -0.99      0.00
  -11    4    9      0.07      0.00
  -11    4    8      4.23      0.00
  -11    4    7     -2.66      0.00
  -11    4    6      0.56      0.00
  -11    4    5     -0.12      0.00
  -11    4    4     -2.70      0.00
  -11    4    3      2.05      0.00
  -11    4    2     -0.04      0.00
  -11    4    1      1.30      0.00
   11    4    0     -1.06      0.00
   11    4    1     -1.48      0.00
   11    4    2     -0.60      0.00
   11    4    3     -1.46      0.00
   11    4    4     -1.25      0.00
   11    4    5      1.24      0.00
   11    4    6     -1.61      0.00
   11    4    7     -0.04      0.00
   11    4    8      0.27      0.00
   11    4    9     -0.54      0.00
   11    4   10      1.10      0.00
   11    4   11      1.00      0.00
   11    4   12     -0.18      0.00
   11    4   13     -0.85      0.00
   11    4   14     -1.05      0.00
  -11    5   20     -1.10      0.00
  -11    5   19     -0.98      0.00
  -11    5   18     -0.40      0.00
  -11    5   17     -1.66      0.00
  -11    5   16      1.89      0.00
  -11    5   15      3.09      0.00
  -11    5   14      1.68      0.00
  -11    5   13      2.21      0.00
  -11    5   12     -2.60      0.00
  -11    5   11      3.86      0.00
  -11    5   10     -3.74      0.00
  -11    5    9      0.35      0.00
  -11    5    8     -0.18      0.00
  -11    5    7     -1.21      0.00
  -11    5    6      2.77      0.00
  -11    5    5     -0.22      0.00
  -11    5    4     -1.18      0.00
  -11    5    3      0.45      0.00
  -11    5    2     -0.95      0.00
  -11    5    1     -0.15      0.00
   11    5    0      0.93      0.00
   11    5    1     -0.15      0.00
   11    5    2      1.50      0.00
   11    5    3      2.54      0.00
   11    5    4     -0.67      0.00
   11    5    5      2.04      0.00
   11    5    6      0.10      0.00
   11    5    7      0.53      0.00
   11    5    8      1.55      0.00
   11    5    9      0.62      0.00
   11    5   10     -0.39      0.00
   11    5   11     -0.46      0.00
   11    5   12     -0.46      0.00
   11    5   13     -0.47      0.00
   11    5   14      1.52      0.00
  -11    6   19      0.13      0.00
  -11    6   18      2.10      0.00
  -11    6   17     -2.13      0.00
  -11    6   16     -2.58      0.00
  -11    6   15     -3.22      0.00
  -11    6   14     -2.52      0.00
  -11    6   13     -0.37      0.00
  -11    6   12     -1.28      0.00
  -11    6   11      1.62      0.00
  -11    6   10     -2.25      0.00
  -11    6    9      3.04      0.00
  -11    6    8     -1.82      0.00
  -11    6    7     -0.54      0.00
  -11    6    6      0.76      0.00
  -11    6    5     -0.18      0.00
  -11    6    4      0.44      0.00
  -11    6    3      0.96      0.00
  -11    6    2     -0.36      0.00
  -11    6    1     -1.12      0.00
   11    6    0      0.80      0.00
   11    6    1     -0.70      0.00
   11    6    2     -1.85      0.00
   11    6    3      0.00      0.00
   11    6    4     -3.20      0.00
   11    6    5     -0.30      0.00
   11    6    6     -1.23      0.00
   11    6    7     -1.22      0.00
   11    6    8     -0.84      0.00
   11    6    9     -1.13      0.00
   11    6   10     -0.70      0.00
   11    6   11     -0.11      0.00
   11    6   12      1.53      0.00
   11    6   13     -0.26      0.00
  -11    7   18      3.19      0.00
  -11    7   17      0.46      0.00
  -11    7   16      5.00      0.00
  -11    7   15      2.39      0.00
  -11    7   14      0.66      0.00
  -11    7   13      0.64      0.00
  -11    7   12      0.25      0.00
  -11    7   11      1.19      0.00
  -11    7   10     -1.18      0.00
  -11    7    9      2.27      0.00
  -11    7    8     -1.93      0.00
  -11    7    7      1.02      0.00
  -11    7    6     -0.25      0.00
  -11    7    5     -1.45      0.00
  -11    7    4     -0.55      0.00
  -11    7    3      0.11      0.00
  -11    7    2      0.90      0.00
  -11    7    1      1.45      0.00
   11    7    0      0.58      0.00
   11    7    1      0.14      0.00
   11    7    2     -1.17      0.00
   11    7    3      2.32      0.00
   11    7    4      0.53      0.00
   11    7    5      2.49      0.00
   11    7    6      1.28      0.00
   11    7    7      0.77      0.00
   11    7    8      1.39      0.00
   11    7    9      0.30      0.00
   11    7   10      1.26      0.00
   11    7   11     -0.45      0.00
   11    7   12     -0.17      0.00
  -11    8   17     -4.55      0.00
  -11    8   16      0.48      0.00
  -11    8   15     -2.43      0.00
  -11    8   14      0.25      0.00
  -11    8   13     -0.36      0.00
  -11    8   12     -1.40      0.00
  -11    8   11     -0.71      0.00
  -11    8   10     -0.74      0.00
  -11    8    9      1.97      0.00
  -11    8    8     -1.90      0.00
  -11    8    7      1.52      0.00
  -11    8    6      0.52      0.00
  -11    8    5      0.37      0.00
  -11    8    4      0.90      0.00
  -11    8    3     -0.95      0.00
  -11    8    2     -0.72      0.00
  -11    8    1     -1.93      0.00
   11    8    0      0.31      0.00
   11    8    1      1.84      0.00
   11    8    2     -0.32      0.00
   11    8    3      1.16      0.00
   11    8    4     -1.23      0.00
   11    8    5     -0.83      0.00
   11    8    6     -1.77      0.00
   11    8    7     -1.73      0.00
   11    8    8      0.66      0.00
   11    8    9     -1.49      0.00
   11    8   10      0.38      0.00
   11    8   11     -0.08      0.00
  -11    9   15     -1.48      0.00
  -11    9   14      1.88      0.00
  -11    9   13      0.77      0.00
  -11    9   12      0.65      0.00
  -11    9   11      0.21      0.00
  -11    9   10     -0.73      0.00
  -11    9    9      0.41      0.00
  -11    9    8     -1.60      0.00
  -11    9    7      1.87      0.00
  -11    9    6     -0.64      0.00
  -11    9    5     -1.27      0.00
  -11    9    4     -0.24      0.00
  -11    9    3      0.76      0.00
  -11    9    2      2.15      0.00
  -11    9    1     -0.85      0.00
   11    9    0      0.46      0.00
   11    9    1      1.13      0.00
   11    9    2     -1.47      0.00
   11    9    3     -0.55      0.00
   11    9    4     -1.10      0.00
   11    9    5      0.72      0.00
   11    9    6      1.02      0.00
   11    9    7     -0.37      0.00
   11    9    8      2.14      0.00
   11    9    9     -1.18      0.00
  -11   10   13     -0.58      0.00
  -11   10   12     -0.50      0.00
  -11   10   11      0.99      0.00
  -11   10   10      0.48      0.00
  -11   10    9     -0.49      0.00
  -11   10    8     -1.95      0.00
  -11   10    7      1.01      0.00
  -11   10    6      0.05      0.00
  -11   10    5      0.62      0.00
  -11   10    4      0.56      0.00
  -11   10    3     -0.18      0.00
  -11   10    2     -0.90      0.00
  -11   10    1     -0.36      0.00
   11   10    0     -2.18      0.00
   11   10    1     -0.35      0.00
   11   10    2     -1.08      0.00
   11   10    3      0.13      0.00
   11   10    4      0.13      0.00
   11   10    5      0.81      0.00
   11   10    6      0.78      0.00
   11   10    7     -1.62      0.00
  -11   11   11      1.49      0.00
  -11   11   10     -0.15      0.00
  -11   11    9      0.51      0.00
  -11   11    8      0.94      0.00
  -11   11    7      0.68      0.00
  -11   11    6     -1.96      0.00
  -11   11    5     -1.05      0.00
  -11   11    4      0.52      0.00
  -11   11    3     -0.08      0.00
  -11   11    2     -0.70      0.00
  -11   11    1     -0.10      0.00
   11   11    0     -1.12      0.00
   11   11    1      0.94      0.00
   11   11    2      0.97      0.00
   11   11    3      1.30      0.00
   11   11    4      0.60      0.00
  -11   12    6      0.13      0.00
  -11   12    5      1.13      0.00
  -11   12    4      0.66      0.00
  -11   12    3     -0.63      0.00
  -11   12    2      1.28      0.00
  -11   12    1      1.06      0.00
  -12    0   20      3.57      0.00
  -12    0   18      1.52      0.00
  -12    0   16     -2.61      0.00
  -12    0   14     -4.38      0.00
  -12    0   12     -5.07      0.00
  -12    0   10     -5.09      0.00
  -12    0    8      3.00      0.00
  -12    0    6      4.02      0.00
  -12    0    4     -1.88      0.00
   12    0    0     -0.17      0.00
   12    0    2      3.76      0.00
   12    0    4      0.52      0.00
   12    0    6      0.25      0.00
   12    0    8     -0.17      0.00
   12    0   10     -3.13      0.00
   12    0   12     -2.03      0.00
   12    0   14     -0.85      0.00
  -12    1   21     -2.55      0.00
  -12    1   20     -0.68      0.00
  -12    1   19     -1.89      0.00
  -12    1   18      1.50      0.00
  -12    1   17      0.46      0.00
  -12    1   16      2.25      0.00
  -12    1   15      4.08      0.00
  -12    1   14      0.65      0.00
  -12    1   13      3.89      0.00
  -12    1   12     -0.01      0.00
  -12    1   11      4.26      0.00
  -12    1   10     -2.00      0.00
  -12    1    9     -0.15      0.00
  -12    1    8     -2.87      0.00
  -12    1    7     -3.33      0.00
  -12    1    6      0.58      0.00
  -12    1    5      0.90      0.00
  -12    1    4      1.72      0.00
  -12    1    3      3.20      0.00
  -12    1    2      0.53      0.00
  -12    1    1      0.90      0.00
   12    1    0      1.77      0.00
   12    1    1     -2.06      0.00
   12    1    2     -0.47      0.00
   12    1    3     -1.87      0.00
   12    1    4     -1.01      0.00
   12    1    5     -0.21      0.00
   12    1    6      1.18      0.00
   12    1    7      0.08      0.00
   12    1    8     -0.23      0.00
   12    1    9      2.67      0.00
   12    1   10     -0.98      0.00
   12    1   11      1.88      0.00
   12    1   12     -0.12      0.00
   12    1   13      0.69      0.00
   12    1   14      0.97      0.00
  -12    2   21      2.05      0.00
  -12    2   20      0.15      0.00
  -12    2   19     -0.94      0.00
  -12    2   18      0.44      0.00
  -12    2   17     -3.05      0.00
  -12    2   16     -2.16      0.00
  -12    2   15     -2.65      0.00
  -12    2   14     -2.55      0.00
  -12    2   13      1.73      0.00
  -12    2   12     -3.65      0.00
  -12    2   11      2.08      0.00
  -12    2   10      0.40      0.00
  -12    2    9      2.40      0.00
  -12    2    8      2.26      0.00
  -12    2    7     -1.39      0.00
  -12    2    6     -0.97      0.00
  -12    2    5     -1.54      0.00
  -12    2    4     -3.47      0.00
  -12    2    3      0.60      0.00
  -12    2    2     -0.59      0.00
  -12    2    1      1.52      0.00
   12    2    0      0.61      0.00
   12    2    1      0.10      0.00
   12    2    2      1.05      0.00
   12    2    3      1.77      0.00
   12    2    4      1.62      0.00
   12    2    5     -0.07      0.00
   12    2    6     -0.45      0.00
   12    2    7     -0.24      0.00
   12    2    8     -2.71      0.00
   12    2    9      0.29      0.00
   12    2   10     -2.09      0.00
   12    2   11     -0.48      0.00
   12    2   12      0.76      0.00
   12    2   13      0.11      0.00
   12    2   14     -0.36      0.00
  -12    3   20     -0.25      0.00
  -12    3   19      0.32      0.00
  -12    3   18      1.27      0.00
  -12    3   17      0.59      0.00
  -12    3   16      3.78      0.00
  -12    3   15      0.21      0.00
  -12    3   14      0.28      0.00
  -12    3   13      2.01      0.00
  -12    3   12     -3.23      0.00
  -12    3   11      3.14      0.00
  -12    3   10     -3.96      0.00
  -12    3    9     -1.73      0.00
  -12    3    8      2.77      0.00
  -12    3    7     -1.16      0.00
  -12    3    6      3.75      0.00
  -12    3    5      0.90      0.00
  -12    3    4     -0.94      0.00
  -12    3    3      1.55      0.00
  -12    3    2     -1.86      0.00
  -12    3    1      1.00      0.00
   12    3    0      0.17      0.00
   12    3    1      0.48      0.00
   12    3    2     -0.84      0.00
   12    3    3     -1.71      0.00
   12    3    4     -1.22      0.00
   12    3    5     -0.50      0.00
   12    3    6     -1.52      0.00
   12    3    7      1.81      0.00
   12    3    8      0.29      0.00
   12    3    9      1.59      0.00
   12    3   10      1.96      0.00
   12    3   11      0.56      0.00
   12    3   12     -0.58      0.00
   12    3   13     -0.12      0.00
  -12    4   20     -0.79      0.00
  -12    4   19      0.90      0.00
  -12    4   18      0.18      0.00
  -12    4   17     -2.70      0.00
  -12    4   16     -0.73      0.00
  -12    4   15     -2.18      0.00
  -12    4   14      1.46      0.00
  -12    4   13     -0.67      0.00
  -12    4   12     -2.36      0.00
  -12    4   11      5.59      0.00
  -12    4   10     -1.72      0.00
  -12    4    9      2.37      0.00
  -12    4    8     -0.10      0.00
  -12    4    7     -4.49      0.00
  -12    4    6      2.56      0.00
  -12    4    5     -2.28      0.00
  -12    4    4     -0.04      0.00
  -12    4    3      0.13      0.00
  -12    4    2     -1.15      0.00
  -12    4    1      0.02      0.00
   12    4    0     -1.42      0.00
   12    4    1     -0.62      0.00
   12    4    2      0.37      0.00
   12    4    3      0.34      0.00
   12    4    4     -0.05      0.00
   12    4    5      2.20      0.00
   12    4    6     -0.53      0.00
   12    4    7      1.27      0.00
   12    4    8      0.52      0.00
   12    4    9     -1.06      0.00
   12    4   10     -1.34      0.00
   12    4   11     -0.17      0.00
   12    4   12     -1.31      0.00
   12    4   13      0.97      0.00
  -12    5   19     -0.64      0.00
  -12    5   18      1.24      0.00
  -12    5   17      1.37      0.00
  -12    5   16      2.50      0.00
  -12    5   15     -0.89      0.00
  -12    5   14      1.37      0.00
  -12    5   13     -1.80      0.00
  -12    5   12     -1.07      0.00
  -12    5   11     -0.74      0.00
  -12    5   10     -5.43      0.00
  -12    5    9      3.08      0.00
  -12    5    8     -0.33      0.00
  -12    5    7      0.05      0.00
  -12    5    6      2.94      0.00
  -12    5    5     -1.41      0.00
  -12    5    4      2.26      0.00
  -12    5    3      0.32      0.00
  -12    5    2      1.41      0.00
  -12    5    1      0.04      0.00
   12    5    0      0.09      0.00
   12    5    1      0.07      0.00
   12    5    2      0.55      0.00
   12    5    3      0.45      0.00
   12    5    4     -0.76      0.00
   12    5    5      1.51      0.00
   12    5    6     -1.23      0.00
   12    5    7     -0.64      0.00
   12    5    8     -1.12      0.00
   12    5    9     -0.56      0.00
   12    5   10     -1.30      0.00
   12    5   11      1.87      0.00
   12    5   12      0.27      0.00
  -12    6   18     -0.49      0.00
  -12    6   17     -3.05      0.00
  -12    6   16      0.55      0.00
  -12    6   15      0.37      0.00
  -12    6   14      2.24      0.00
  -12    6   13     -0.31      0.00
  -12    6   12      3.74      0.00
  -12    6   11      2.01      0.00
  -12    6   10      0.12      0.00
  -12    6    9      2.12      0.00
  -12    6    8     -3.50      0.00
  -12    6    7      0.33      0.00
  -12    6    6     -0.18      0.00
  -12    6    5     -2.34      0.00
  -12    6    4     -0.35      0.00
  -12    6    3     -1.73      0.00
  -12    6    2      0.03      0.00
  -12    6    1     -0.81      0.00
   12    6    0      0.86      0.00
   12    6    1     -0.50      0.00
   12    6    2      0.08      0.00
   12    6    3      0.15      0.00
   12    6    4     -1.08      0.00
   12    6    5      0.77      0.00
   12    6    6     -1.61      0.00
   12    6    7      0.85      0.00
   12    6    8      0.34      0.00
   12    6    9      2.25      0.00
   12    6   10      0.12      0.00
   12    6   11      0.57      0.00
  -12    7   17     -1.51      0.00
  -12    7   16      0.63      0.00
  -12    7   15     -2.49      0.00
  -12    7   14     -0.52      0.00
  -12    7   13     -2.22      0.00
  -12    7   12     -0.25      0.00
  -12    7   11     -3.79      0.00
  -12    7   10     -0.05      0.00
  -12    7    9      1.71      0.00
  -12    7    8     -1.59      0.00
  -12    7    7      2.35      0.00
  -12    7    6     -0.07      0.00
  -12    7    5      0.67      0.00
  -12    7    4      1.96      0.00
  -12    7    3      0.80      0.00
  -12    7    2      0.84      0.00
  -12    7    1     -0.71      0.00
   12    7    0      0.85      0.00
   12    7    1     -0.11      0.00
   12    7    2      0.59      0.00
   12    7    3      0.60      0.00
   12    7    4     -0.58      0.00
   12    7    5      1.57      0.00
   12    7    6     -1.38      0.00
   12    7    7      1.30      0.00
   12    7    8     -0.79      0.00
   12    7    9     -0.30      0.00
   12    7   10     -1.17      0.00
  -12    8   16      2.51      0.00
  -12    8   15     -1.13      0.00
  -12    8   14      1.45      0.00
  -12    8   13      0.76      0.00
  -12    8   12      3.25      0.00
  -12    8   11     -0.28      0.00
  -12    8   10      1.98      0.00
  -12    8    9     -1.03      0.00
  -12    8    8     -1.97      0.00
  -12    8    7      2.50      0.00
  -12    8    6     -1.22      0.00
  -12    8    5     -0.50      0.00
  -12    8    4     -1.66      0.00
  -12    8    3     -1.29      0.00
  -12    8    2      0.36      0.00
  -12    8    1      0.11      0.00
   12    8    0      0.28      0.00
   12    8    1     -0.92      0.00
   12    8    2     -1.14      0.00
   12    8    3     -1.13      0.00
   12    8    4     -1.76      0.00
   12    8    5      1.33      0.00
   12    8    6     -1.63      0.00
   12    8    7      1.07      0.00
   12    8    8     -0.08      0.00
   12    8    9     -0.08      0.00
  -12    9   14      0.18      0.00
  -12    9   13     -2.40      0.00
  -12    9   12     -1.45      0.00
  -12    9   11     -1.56      0.00
  -12    9   10      2.77      0.00
  -12    9    9     -0.84      0.00
  -12    9    8     -1.30      0.00
  -12    9    7      0.08      0.00
  -12    9    6     -1.92      0.00
  -12    9    5      1.78      0.00
  -12    9    4      1.05      0.00
  -12    9    3      2.16      0.00
  -12    9    2     -0.13      0.00
  -12    9    1     -0.30      0.00
   12    9    0     -0.62      0.00
   12    9    1      0.20      0.00
   12    9    2      1.03      0.00
   12    9    3      1.54      0.00
   12    9    4      0.71      0.00
   12    9    5      2.94      0.00
   12    9    6     -0.84      0.00
   12    9    7      0.09      0.00
  -12   10   12     -0.08      0.00
  -12   10   11     -0.54      0.00
  -12   10   10      0.48      0.00
  -12   10    9     -0.64      0.00
  -12   10    8      2.89      0.00
  -12   10    7      2.76      0.00
  -12   10    6     -0.96      0.00
  -12   10    5     -1.64      0.00
  -12   10    4     -2.17      0.00
  -12   10    3     -0.13      0.00
  -12   10    2     -2.35      0.00
  -12   10    1      0.67      0.00
   12   10    0     -0.76      0.00
   12   10    1      0.31      0.00
   12   10    2      0.40      0.00
   12   10    3     -0.22      0.00
   12   10    4     -1.95      0.00
   12   10    5     -0.68      0.00
  -12   11    8     -1.17      0.00
  -12   11    7     -0.59      0.00
  -12   11    6      0.18      0.00
  -12   11    5      1.97      0.00
  -12   11    4      2.30      0.00
  -12   11    3      0.50      0.00
  -12   11    2     -0.13      0.00
  -12   11    1      2.58      0.00
   12   11    0      1.33      0.00
   12   11    1      1.10      0.00
  -13    0   19     -2.07      0.00
  -13    0   17     -2.65      0.00
  -13    0   15     -0.66      0.00
  -13    0   13      0.62      0.00
  -13    0   11      5.01      0.00
  -13    0    9      3.28      0.00
  -13    0    7     -5.11      0.00
  -13    0    5     -5.64      0.00
  -13    0    1      5.01      0.00
   13    0    1      1.40      0.00
   13    0    3     -2.11      0.00
   13    0    5     -1.81      0.00
   13    0    7     -0.77      0.00
   13    0    9      1.55      0.00
   13    0   11      1.57      0.00
   13    0   13      2.35      0.00
  -13    1   20      1.11      0.00
  -13    1   19      1.75      0.00
  -13    1   18      2.22      0.00
  -13    1   17      0.70      0.00
  -13    1   16      1.62      0.00
  -13    1   15     -0.82      0.00
  -13    1   14     -0.17      0.00
  -13    1   13     -0.74      0.00
  -13    1   12     -3.00      0.00
  -13    1   11     -1.06      0.00
  -13    1   10     -3.82      0.00
  -13    1    9      2.83      0.00
  -13    1    8      1.53      0.00
  -13    1    7      2.72      0.00
  -13    1    6      4.54      0.00
  -13    1    5     -1.73      0.00
  -13    1    4      0.60      0.00
  -13    1    3     -3.21      0.00
  -13    1    2     -3.16      0.00
  -13    1    1     -0.67      0.00
   13    1    0     -2.34      0.00
   13    1    1     -0.94      0.00
   13    1    2      0.81      0.00
   13    1    3     -0.04      0.00
   13    1    4      2.21      0.00
   13    1    5     -0.14      0.00
   13    1    6      1.32      0.00
   13    1    7     -0.56      0.00
   13    1    8     -0.88      0.00
   13    1    9     -0.37      0.00
   13    1   10     -2.44      0.00
   13    1   11      0.26      0.00
   13    1   12     -0.72      0.00
   13    1   13     -0.30      0.00
  -13    2   20     -2.28      0.00
  -13    2   19     -0.47      0.00
  -13    2   18     -2.92      0.00
  -13    2   17     -1.48      0.00
  -13    2   16      0.67      0.00
  -13    2   15     -0.57      0.00
  -13    2   14      1.67      0.00
  -13    2   13      1.29      0.00
  -13    2   12      0.82      0.00
  -13    2   11      4.19      0.00
  -13    2   10     -2.00      0.00
  -13    2    9     -0.82      0.00
  -13    2    8     -3.06      0.00
  -13    2    7     -1.70      0.00
  -13    2    6      0.86      0.00
  -13    2    5     -0.36      0.00
  -13    2    4      2.78      0.00
  -13    2    3      0.94      0.00
  -13    2    2      1.57      0.00
  -13    2    1      0.78      0.00
   13    2    0      0.30      0.00
   13    2    1      0.39      0.00
   13    2    2      0.23      0.00
   13    2    3     -1.96      0.00
   13    2    4     -0.25      0.00
   13    2    5     -2.22      0.00
   13    2    6     -0.03      0.00
   13    2    7      0.54      0.00
   13    2    8      0.34      0.00
   13    2    9      2.92      0.00
   13    2   10      1.46      0.00
   13    2   11      0.84      0.00
   13    2   12      0.23      0.00
  -13    3   19      2.75      0.00
  -13    3   18      0.90      0.00
  -13    3   17      2.05      0.00
  -13    3   16     -0.56      0.00
  -13    3   15     -1.60      0.00
  -13    3   14      1.55      0.00
  -13    3   13     -2.78      0.00
  -13    3   12     -3.71      0.00
  -13    3   11      1.10      0.00
  -13    3   10     -2.30      0.00
  -13    3    9      3.94      0.00
  -13    3    8      0.89      0.00
  -13    3    7     -0.81      0.00
  -13    3    6      1.22      0.00
  -13    3    5     -1.41      0.00
  -13    3    4      0.67      0.00
  -13    3    3     -1.29      0.00
  -13    3    2      0.36      0.00
  -13    3    1     -1.04      0.00
   13    3    0     -0.55      0.00
   13    3    1     -0.25      0.00
   13    3    2      0.39      0.00
   13    3    3     -0.59      0.00
   13    3    4      2.22      0.00
   13    3    5      1.18      0.00
   13    3    6      0.57      0.00
   13    3    7      1.32      0.00
   13    3    8     -1.64      0.00
   13    3    9     -2.12      0.00
   13    3   10     -1.78      0.00
   13    3   11     -2.23      0.00
   13    3   12     -0.27      0.00
  -13    4   19     -1.85      0.00
  -13    4   18     -2.69      0.00
  -13    4   17      0.41      0.00
  -13    4   16     -0.45      0.00
  -13    4   15      0.32      0.00
  -13    4   14      2.43      0.00
  -13    4   13      0.49      0.00
  -13    4   12      3.90      0.00
  -13    4   11      2.33      0.00
  -13    4   10     -4.89      0.00
  -13    4    9      0.89      0.00
  -13    4    8     -2.72      0.00
  -13    4    7     -0.81      0.00
  -13    4    6      0.26      0.00
  -13    4    5     -2.07      0.00
  -13    4    4      1.21      0.00
  -13    4    3     -0.58      0.00
  -13    4    2      2.67      0.00
  -13    4    1     -0.89      0.00
   13    4    0     -1.59      0.00
   13    4    1     -0.33      0.00
   13    4    2      1.01      0.00
   13    4    3     -0.26      0.00
   13    4    4      0.72      0.00
   13    4    5      0.17      0.00
   13    4    6     -2.00      0.00
   13    4    7     -0.19      0.00
   13    4    8     -0.16      0.00
   13    4    9      0.14      0.00
   13    4   10      2.43      0.00
   13    4   11      2.53      0.00
  -13    5   18      1.71      0.00
  -13    5   17      0.02      0.00
  -13    5   16     -1.28      0.00
  -13    5   15     -0.05      0.00
  -13    5   14     -1.05      0.00
  -13    5   13     -4.02      0.00
  -13    5   12      0.13      0.00
  -13    5   11      0.76      0.00
  -13    5   10      1.64      0.00
  -13    5    9      4.81      0.00
  -13    5    8     -0.91      0.00
  -13    5    7      2.37      0.00
  -13    5    6      0.94      0.00
  -13    5    5     -0.26      0.00
  -13    5    4     -0.57      0.00
  -13    5    3     -2.31      0.00
  -13    5    2      0.47      0.00
  -13    5    1     -3.16      0.00
   13    5    0      1.96      0.00
   13    5    1      1.51      0.00
   13    5    2      1.16      0.00
   13    5    3     -0.91      0.00
   13    5    4     -0.99      0.00
   13    5    5     -0.92      0.00
   13    5    6     -1.82      0.00
   13    5    7      0.45      0.00
   13    5    8      0.97      0.00
   13    5    9      0.36      0.00
   13    5   10     -1.30      0.00
   13    5   11      0.34      0.00
  -13    6   17     -0.01      0.00
  -13    6   16      0.70      0.00
  -13    6   15      0.37      0.00
  -13    6   14      0.53      0.00
  -13    6   13      0.43      0.00
  -13    6   12      1.01      0.00
  -13    6   11     -3.84      0.00
  -13    6   10     -2.51      0.00
  -13    6    9     -0.84      0.00
  -13    6    8     -2.67      0.00
  -13    6    7      0.76      0.00
  -13    6    6     -1.18      0.00
  -13    6    5      1.19      0.00
  -13    6    4      1.22      0.00
  -13    6    3      1.97      0.00
  -13    6    2      1.83      0.00
  -13    6    1     -0.55      0.00
   13    6    0     -1.89      0.00
   13    6    1     -2.04      0.00
   13    6    2     -0.99      0.00
   13    6    3     -1.36      0.00
   13    6    4      0.75      0.00
   13    6    5      1.84      0.00
   13    6    6      1.17      0.00
   13    6    7      2.13      0.00
   13    6    8      0.13      0.00
   13    6    9      0.35      0.00
   13    6   10     -1.87      0.00
  -13    7   16      1.35      0.00
  -13    7   15      0.15      0.00
  -13    7   14     -0.55      0.00
  -13    7   13     -0.38      0.00
  -13    7   12      2.07      0.00
  -13    7   11      0.67      0.00
  -13    7   10      3.64      0.00
  -13    7    9      0.53      0.00
  -13    7    8     -0.93      0.00
  -13    7    7      1.93      0.00
  -13    7    6     -1.28      0.00
  -13    7    5     -0.23      0.00
  -13    7    4     -2.23      0.00
  -13    7    3     -1.36      0.00
  -13    7    2     -1.32      0.00
  -13    7    1     -0.30      0.00
   13    7    0      0.09      0.00
   13    7    1      0.21      0.00
   13    7    2      0.85      0.00
   13    7    3     -0.33      0.00
   13    7    4      0.51      0.00
   13    7    5     -0.30      0.00
   13    7    6     -2.19      0.00
   13    7    7     -0.54      0.00
   13    7    8     -2.23      0.00
   13    7    9      0.59      0.00
  -13    8   15     -0.64      0.00
  -13    8   14      0.93      0.00
  -13    8   13      0.38      0.00
  -13    8   12     -1.63      0.00
  -13    8   11     -3.55      0.00
  -13    8   10      1.47      0.00
  -13    8    9     -1.38      0.00
  -13    8    8      0.25      0.00
  -13    8    7      1.13      0.00
  -13    8    6     -2.05      0.00
  -13    8    5      1.67      0.00
  -13    8    4      0.46      0.00
  -13    8    3      1.85      0.00
  -13    8    2      0.64      0.00
  -13    8    1      0.48      0.00
   13    8    0     -0.13      0.00
   13    8    1      1.33      0.00
   13    8    2      1.18      0.00
   13    8    3      0.17      0.00
   13    8    4      1.68      0.00
   13    8    5      1.64      0.00
   13    8    6     -0.68      0.00
   13    8    7      2.18      0.00
  -13    9   13      1.24      0.00
  -13    9   12      0.94      0.00
  -13    9   11      0.91      0.00
  -13    9   10      0.93      0.00
  -13    9    9     -3.56      0.00
  -13    9    8      1.42      0.00
  -13    9    7      1.91      0.00
  -13    9    6      0.18      0.00
  -13    9    5      1.13      0.00
  -13    9    4     -2.12      0.00
  -13    9    3      0.11      0.00
  -13    9    2     -1.95      0.00
  -13    9    1     -0.94      0.00
   13    9    0     -1.54      0.00
   13    9    1      0.48      0.00
   13    9    2     -0.65      0.00
   13    9    3     -2.11      0.00
   13    9    4     -2.25      0.00
   13    9    5     -0.98      0.00
  -13   10   10      1.39      0.00
  -13   10    9     -1.17      0.00
  -13   10    8     -0.12      0.00
  -13   10    7     -2.67      0.00
  -13   10    6     -1.73      0.00
  -13   10    5      0.44      0.00
  -13   10    4      1.02      0.00
  -13   10    3      2.09      0.00
  -13   10    2     -0.03      0.00
  -13   10    1      3.46      0.00
   13   10    0     -0.85      0.00
   13   10    1      1.37      0.00
   13   10    2     -0.26      0.00
  -14    0   18     -1.72      0.00
  -14    0   16     -0.86      0.00
  -14    0   14      1.84      0.00
  -14    0   12      1.23      0.00
  -14    0   10     -5.05      0.00
  -14    0    8     -4.12      0.00
  -14    0    6      3.90      0.00
  -14    0    2      0.43      0.00
   14    0    0     -1.20      0.00
   14    0    2     -1.66      0.00
   14    0    4     -0.62      0.00
   14    0    6     -0.03      0.00
   14    0    8     -1.45      0.00
   14    0   10     -2.21      0.00
  -14    1   19      2.14      0.00
  -14    1   18     -1.69      0.00
  -14    1   17      0.54      0.00
  -14    1   16     -1.90      0.00
  -14    1   15     -0.39      0.00
  -14    1   14     -1.56      0.00
  -14    1   13     -2.03      0.00
  -14    1   12      0.52      0.00
  -14    1   11      2.33      0.00
  -14    1   10      0.84      0.00
  -14    1    9      3.98      0.00
  -14    1    8     -3.51      0.00
  -14    1    7      0.88      0.00
  -14    1    6     -2.87      0.00
  -14    1    5     -3.87      0.00
  -14    1    4      1.15      0.00
  -14    1    3     -2.30      0.00
  -14    1    2      1.62      0.00
  -14    1    1      0.17      0.00
   14    1    0     -0.98      0.00
   14    1    1      1.00      0.00
   14    1    2     -1.24      0.00
   14    1    3      0.73      0.00
   14    1    4     -0.58      0.00
   14    1    5     -0.04      0.00
   14    1    6     -0.57      0.00
   14    1    7      0.27      0.00
   14    1    8     -0.01      0.00
   14    1    9      2.41      0.00
   14    1   10      0.85      0.00
   14    1   11      1.40      0.00
  -14    2   19      2.11      0.00
  -14    2   18     -0.51      0.00
  -14    2   17      3.91      0.00
  -14    2   16     -0.20      0.00
  -14    2   15      1.95      0.00
  -14    2   14      2.11      0.00
  -14    2   13      0.97      0.00
  -14    2   12     -0.76      0.00
  -14    2   11     -1.09      0.00
  -14    2   10     -2.92      0.00
  -14    2    9      1.93      0.00
  -14    2    8     -1.68      0.00
  -14    2    7      3.38      0.00
  -14    2    6     -1.31      0.00
  -14    2    5      1.31      0.00
  -14    2    4      1.30      0.00
  -14    2    3     -0.88      0.00
  -14    2    2      1.31      0.00
  -14    2    1     -1.02      0.00
   14    2    0     -0.19      0.00
   14    2    1      1.71      0.00
   14    2    2     -0.47      0.00
   14    2    3      1.71      0.00
   14    2    4      0.98      0.00
   14    2    5      1.24      0.00
   14    2    6      0.68      0.00
   14    2    7      0.98      0.00
   14    2    8     -1.26      0.00
   14    2    9     -0.54      0.00
   14    2   10     -2.81      0.00
   14    2   11     -1.79      0.00
  -14    3   18     -3.88      0.00
  -14    3   17      0.72      0.00
  -14    3   16     -3.39      0.00
  -14    3   15     -0.27      0.00
  -14    3   14     -2.19      0.00
  -14    3   13     -2.49      0.00
  -14    3   12      1.80      0.00
  -14    3   11      3.51      0.00
  -14    3   10     -0.63      0.00
  -14    3    9      2.38      0.00
  -14    3    8     -1.59      0.00
  -14    3    7      2.52      0.00
  -14    3    6     -1.97      0.00
  -14    3    5      0.10      0.00
  -14    3    4     -2.26      0.00
  -14    3    3     -1.33      0.00
  -14    3    2      0.41      0.00
  -14    3    1     -0.91      0.00
   14    3    0     -1.85      0.00
   14    3    1      0.49      0.00
   14    3    2     -1.10      0.00
   14    3    3     -0.40      0.00
   14    3    4     -1.04      0.00
   14    3    5     -1.89      0.00
   14    3    6     -2.37      0.00
   14    3    7     -0.29      0.00
   14    3    8     -1.42      0.00
   14    3    9      1.80      0.00
   14    3   10      2.86      0.00
  -14    4   18      1.82      0.00
  -14    4   17      2.37      0.00
  -14    4   16     -1.31      0.00
  -14    4   15      4.55      0.00
  -14    4   14      1.69      0.00
  -14    4   13     -0.62      0.00
  -14    4   12     -1.49      0.00
  -14    4   11     -2.81      0.00
  -14    4   10     -2.71      0.00
  -14    4    9      1.61      0.00
  -14    4    8     -2.67      0.00
  -14    4    7      1.79      0.00
  -14    4    6      0.10      0.00
  -14    4    5      4.04      0.00
  -14    4    4      0.61      0.00
  -14    4    3      1.47      0.00
  -14    4    2      0.25      0.00
  -14    4    1     -2.05      0.00
   14    4    0      1.33      0.00
   14    4    1      2.24      0.00
   14    4    2      0.58      0.00
   14    4    3     -0.19      0.00
   14    4    4      0.35      0.00
   14    4    5      0.58      0.00
   14    4    6      0.46      0.00
   14    4    7      3.20      0.00
   14    4    8      0.74      0.00
   14    4    9     -0.46      0.00
   14    4   10     -0.85      0.00
  -14    5   17     -1.05      0.00
  -14    5   16     -1.99      0.00
  -14    5   15     -0.73      0.00
  -14    5   14     -3.15      0.00
  -14    5   13      1.46      0.00
  -14    5   12      3.02      0.00
  -14    5   11      1.60      0.00
  -14    5   10     -0.21      0.00
  -14    5    9      1.15      0.00
  -14    5    8     -1.75      0.00
  -14    5    7     -0.04      0.00
  -14    5    6     -4.10      0.00
  -14    5    5     -0.87      0.00
  -14    5    4     -2.71      0.00
  -14    5    3      1.91      0.00
  -14    5    2      0.13      0.00
  -14    5    1     -0.07      0.00
   14    5    0     -2.31      0.00
   14    5    1     -2.52      0.00
   14    5    2     -2.28      0.00
   14    5    3     -1.70      0.00
   14    5    4      0.46      0.00
   14    5    5      1.07      0.00
   14    5    6     -0.44      0.00
   14    5    7      0.58      0.00
   14    5    8     -1.14      0.00
   14    5    9     -1.63      0.00
  -14    6   16      2.00      0.00
  -14    6   15      2.56      0.00
  -14    6   14      0.45      0.00
  -14    6   13     -0.35      0.00
  -14    6   12     -1.75      0.00
  -14    6   11     -0.40      0.00
  -14    6   10      0.14      0.00
  -14    6    9      1.37      0.00
  -14    6    8      0.04      0.00
  -14    6    7      3.14      0.00
  -14    6    6      1.45      0.00
  -14    6    5      2.45      0.00
  -14    6    4     -1.84      0.00
  -14    6    3      0.28      0.00
  -14    6    2     -2.52      0.00
  -14    6    1      0.27      0.00
   14    6    0      0.36      0.00
   14    6    1      1.46      0.00
   14    6    2      2.48      0.00
   14    6    3      2.03      0.00
   14    6    4      1.64      0.00
   14    6    5      0.21      0.00
   14    6    6     -1.64      0.00
   14    6    7     -1.07      0.00
   14    6    8     -0.33      0.00
  -14    7   15     -2.90      0.00
  -14    7   14     -0.88      0.00
  -14    7   13      1.23      0.00
  -14    7   12      0.82      0.00
  -14    7   11     -0.87      0.00
  -14    7   10     -0.52      0.00
  -14    7    9     -0.83      0.00
  -14    7    8     -2.14      0.00
  -14    7    7     -0.41      0.00
  -14    7    6     -2.63      0.00
  -14    7    5      1.05      0.00
  -14    7    4      0.45      0.00
  -14    7    3      2.35      0.00
  -14    7    2      0.12      0.00
  -14    7    1      0.81      0.00
   14    7    0      1.09      0.00
   14    7    1      0.69      0.00
   14    7    2     -0.90      0.00
   14    7    3     -1.14      0.00
   14    7    4     -0.67      0.00
   14    7    5     -1.21      0.00
   14    7    6      0.07      0.00
   14    7    7      0.96      0.00
  -14    8   13     -0.47      0.00
  -14    8   12     -0.38      0.00
  -14    8   11      1.01      0.00
  -14    8   10      2.72      0.00
  -14    8    9     -0.88      0.00
  -14    8    8      0.85      0.00
  -14    8    7      1.71      0.00
  -14    8    6     -1.37      0.00
  -14    8    5      1.07      0.00
  -14    8    4     -2.54      0.00
  -14    8    3     -0.30      0.00
  -14    8    2      0.00      0.00
  -14    8    1      0.07      0.00
   14    8    0     -0.80      0.00
   14    8    1      0.42      0.00
   14    8    2     -1.53      0.00
   14    8    3     -1.05      0.00
   14    8    4      0.44      0.00
   14    8    5     -0.84      0.00
  -14    9   10      0.08      0.00
  -14    9    9     -1.36      0.00
  -14    9    8      2.21      0.00
  -14    9    7     -0.65      0.00
  -14    9    6     -0.99      0.00
  -14    9    5      1.79      0.00
  -14    9    4     -1.10      0.00
  -14    9    3      1.37      0.00
  -14    9    2     -0.86      0.00
  -14    9    1      0.30      0.00
   14    9    0     -1.69      0.00
   14    9    1      1.29      0.00
   14    9    2     -0.53      0.00
  -15    0   17      4.46      0.00
  -15    0   15      5.05      0.00
  -15    0   13     -1.68      0.00
  -15    0   11     -1.45      0.00
  -15    0    9      3.84      0.00
  -15    0    7      4.89      0.00
  -15    0    3     -1.75      0.00
  -15    0    1     -1.17      0.00
   15    0    1     -2.02      0.00
   15    0    3      0.22      0.00
   15    0    5      0.27      0.00
   15    0    7      0.90      0.00
   15    0    9      3.02      0.00
  -15    1   18     -2.79      0.00
  -15    1   17      0.42      0.00
  -15    1   16     -4.47      0.00
  -15    1   15      1.71      0.00
  -15    1   14     -1.98      0.00
  -15    1   13      1.74      0.00
  -15    1   12      1.95      0.00
  -15    1   11     -1.55      0.00
  -15    1   10     -0.66      0.00
  -15    1    9     -0.61      0.00
  -15    1    8     -3.71      0.00
  -15    1    7      2.91      0.00
  -15    1    6     -3.00      0.00
  -15    1    5      1.68      0.00
  -15    1    4      1.25      0.00
  -15    1    3     -0.05      0.00
  -15    1    2      0.92      0.00
  -15    1    1      1.37      0.00
   15    1    0      1.58      0.00
   15    1    1      0.20      0.00
   15    1    2      0.69      0.00
   15    1    3      1.26      0.00
   15    1    4     -0.26      0.00
   15    1    5      1.10      0.00
   15    1    6     -0.59      0.00
   15    1    7      1.89      0.00
   15    1    8     -1.14      0.00
   15    1    9      0.72      0.00
  -15    2   17      1.91      0.00
  -15    2   16     -1.17      0.00
  -15    2   15      3.64      0.00
  -15    2   14     -2.37      0.00
  -15    2   13     -0.74      0.00
  -15    2   12     -0.92      0.00
  -15    2   11     -0.05      0.00
  -15    2   10      1.43      0.00
  -15    2    9     -0.06      0.00
  -15    2    8     -0.97      0.00
  -15    2    7      3.60      0.00
  -15    2    6     -2.56      0.00
  -15    2    5      2.76      0.00
  -15    2    4     -1.55      0.00
  -15    2    3     -0.77      0.00
  -15    2    2     -1.68      0.00
  -15    2    1     -1.06      0.00
   15    2    0      1.48      0.00
   15    2    1      0.19      0.00
   15    2    2     -1.03      0.00
   15    2    3      0.18      0.00
   15    2    4     -2.10      0.00
   15    2    5      0.01      0.00
   15    2    6     -2.27      0.00
   15    2    7     -0.01      0.00
   15    2    8     -2.56      0.00
   15    2    9      1.76      0.00
  -15    3   17      0.95      0.00
  -15    3   16     -4.04      0.00
  -15    3   15      1.34      0.00
  -15    3   14     -0.26      0.00
  -15    3   13      2.92      0.00
  -15    3   12      1.22      0.00
  -15    3   11     -0.23      0.00
  -15    3   10     -0.36      0.00
  -15    3    9     -0.12      0.00
  -15    3    8     -1.48      0.00
  -15    3    7     -0.51      0.00
  -15    3    6     -3.83      0.00
  -15    3    5      2.55      0.00
  -15    3    4     -0.83      0.00
  -15    3    3      2.97      0.00
  -15    3    2      0.70      0.00
  -15    3    1      1.24      0.00
   15    3    0      0.08      0.00
   15    3    1      0.05      0.00
   15    3    2     -1.56      0.00
   15    3    3      0.55      0.00
   15    3    4     -0.37      0.00
   15    3    5      1.82      0.00
   15    3    6      1.04      0.00
   15    3    7      3.39      0.00
   15    3    8     -0.22      0.00
  -15    4   16      0.95      0.00
  -15    4   15      1.95      0.00
  -15    4   14     -4.54      0.00
  -15    4   13     -2.21      0.00
  -15    4   12     -0.75      0.00
  -15    4   11      0.44      0.00
  -15    4   10      0.04      0.00
  -15    4    9      1.45      0.00
  -15    4    8      1.49      0.00
  -15    4    7      3.07      0.00
  -15    4    6     -0.79      0.00
  -15    4    5      0.48      0.00
  -15    4    4     -3.72      0.00
  -15    4    3      0.88      0.00
  -15    4    2     -1.99      0.00
  -15    4    1      0.58      0.00
   15    4    0     -0.65      0.00
   15    4    1     -0.33      0.00
   15    4    2     -0.79      0.00
   15    4    3      1.04      0.00
   15    4    4      0.92      0.00
   15    4    5      0.24      0.00
   15    4    6     -1.77      0.00
   15    4    7     -0.22      0.00
   15    4    8     -4.52      0.00
  -15    5   16     -0.55      0.00
  -15    5   15      2.00      0.00
  -15    5   14      2.55      0.00
  -15    5   13      2.99      0.00
  -15    5   12      0.20      0.00
  -15    5   11     -0.17      0.00
  -15    5   10     -1.40      0.00
  -15    5    9     -0.80      0.00
  -15    5    8     -3.00      0.00
  -15    5    7     -0.29      0.00
  -15    5    6     -0.07      0.00
  -15    5    5      3.08      0.00
  -15    5    4     -0.22      0.00
  -15    5    3      1.70      0.00
  -15    5    2     -2.69      0.00
  -15    5    1      0.96      0.00
   15    5    0     -0.49      0.00
   15    5    1      1.08      0.00
   15    5    2      1.57      0.00
   15    5    3      0.72      0.00
   15    5    4      0.32      0.00
   15    5    5     -0.69      0.00
   15    5    6     -1.86      0.00
   15    5    7      2.05      0.00
  -15    6   14     -2.84      0.00
  -15    6   13     -2.37      0.00
  -15    6   12      0.52      0.00
  -15    6   11      0.66      0.00
  -15    6   10      0.60      0.00
  -15    6    9      2.76      0.00
  -15    6    8      0.26      0.00
  -15    6    7      0.60      0.00
  -15    6    6     -3.06      0.00
  -15    6    5     -0.46      0.00
  -15    6    4     -1.07      0.00
  -15    6    3      2.30      0.00
  -15    6    2      0.14      0.00
  -15    6    1      2.15      0.00
   15    6    0      1.63      0.00
   15    6    1     -0.10      0.00
   15    6    2     -0.69      0.00
   15    6    3     -1.61      0.00
   15    6    4     -1.37      0.00
   15    6    5     -0.19      0.00
   15    6    6     -0.51      0.00
  -15    7   13     -0.34      0.00
  -15    7   12      0.35      0.00
  -15    7   11     -2.38      0.00
  -15    7   10     -0.20      0.00
  -15    7    9     -0.82      0.00
  -15    7    8     -0.34      0.00
  -15    7    7      2.90      0.00
  -15    7    6      0.12      0.00
  -15    7    5      2.26      0.00
  -15    7    4     -2.64      0.00
  -15    7    3     -1.31      0.00
  -15    7    2     -1.40      0.00
  -15    7    1      0.49      0.00
   15    7    0     -0.35      0.00
   15    7    1     -1.17      0.00
   15    7    2     -1.23      0.00
   15    7    3      0.74      0.00
   15    7    4      0.69      0.00
  -15    8   10      1.34      0.00
  -15    8    9     -2.72      0.00
  -15    8    8      0.01      0.00
  -15    8    7     -1.30      0.00
  -15    8    6     -2.07      0.00
  -15    8    5      3.19      0.00
  -15    8    4     -0.43      0.00
  -15    8    3      2.94      0.00
  -15    8    2      0.30      0.00
  -15    8    1     -0.96      0.00
   15    8    0     -0.25      0.00
   15    8    1      1.25      0.00
   15    8    2     -0.65      0.00
  -16    0   16     -4.90      0.00
  -16    0   14     -4.77      0.00
  -16    0   12      1.96      0.00
  -16    0   10      2.05      0.00
  -16    0    8     -1.29      0.00
  -16    0    4      1.00      0.00
  -16    0    2     -0.43      0.00
   16    0    0      1.84      0.00
   16    0    2      1.96      0.00
   16    0    4      0.26      0.00
   16    0    6      0.42      0.00
  -16    1   16     -0.28      0.00
  -16    1   15      5.62      0.00
  -16    1   14     -2.03      0.00
  -16    1   13      1.95      0.00
  -16    1   12     -0.68      0.00
  -16    1   11     -1.57      0.00
  -16    1   10      2.51      0.00
  -16    1    9     -1.27      0.00
  -16    1    8      0.79      0.00
  -16    1    7      2.01      0.00
  -16    1    6     -1.36      0.00
  -16    1    5      0.97      0.00
  -16    1    4      0.15      0.00
  -16    1    3     -0.74      0.00
  -16    1    2     -0.58      0.00
  -16    1    1     -0.72      0.00
   16    1    0      2.42      0.00
   16    1    1     -1.86      0.00
   16    1    2      0.40      0.00
   16    1    3     -0.72      0.00
   16    1    4      0.16      0.00
   16    1    5      0.14      0.00
   16    1    6     -0.35      0.00
   16    1    7     -0.25      0.00
  -16    2   16     -2.10      0.00
  -16    2   15     -0.01      0.00
  -16    2   14     -4.75      0.00
  -16    2   13      2.22      0.00
  -16    2   12     -1.48      0.00
  -16    2   11     -0.90      0.00
  -16    2   10      0.78      0.00
  -16    2    9     -2.40      0.00
  -16    2    8      1.58      0.00
  -16    2    7      0.12      0.00
  -16    2    6     -2.23      0.00
  -16    2    5      1.37      0.00
  -16    2    4     -0.31      0.00
  -16    2    3      0.56      0.00
  -16    2    2      1.73      0.00
  -16    2    1      2.28      0.00
   16    2    0      1.30      0.00
   16    2    1     -2.24      0.00
   16    2    2     -0.23      0.00
   16    2    3     -0.48      0.00
   16    2    4     -0.30      0.00
   16    2    5      0.24      0.00
   16    2    6     -0.58      0.00
   16    2    7      0.49      0.00
  -16    3   15      4.77      0.00
  -16    3   14      0.08      0.00
  -16    3   13      2.01      0.00
  -16    3   12     -1.20      0.00
  -16    3   11      1.50      0.00
  -16    3   10      0.38      0.00
  -16    3    9     -1.83      0.00
  -16    3    8      1.01      0.00
  -16    3    7     -0.02      0.00
  -16    3    6     -0.07      0.00
  -16    3    5      1.15      0.00
  -16    3    4     -2.26      0.00
  -16    3    3     -0.61      0.00
  -16    3    2     -1.95      0.00
  -16    3    1     -1.55      0.00
   16    3    0      0.97      0.00
   16    3    1     -0.33      0.00
   16    3    2      1.20      0.00
   16    3    3      1.90      0.00
   16    3    4      0.87      0.00
   16    3    5      0.74      0.00
   16    3    6      0.33      0.00
  -16    4   15     -2.94      0.00
  -16    4   14     -1.83      0.00
  -16    4   13      1.28      0.00
  -16    4   12     -0.15      0.00
  -16    4   11      0.76      0.00
  -16    4   10      0.28      0.00
  -16    4    9      1.03      0.00
  -16    4    8      0.26      0.00
  -16    4    7     -0.98      0.00
  -16    4    6     -0.46      0.00
  -16    4    5      1.52      0.00
  -16    4    4      0.71      0.00
  -16    4    3      2.35      0.00
  -16    4    2     -0.98      0.00
  -16    4    1      1.21      0.00
   16    4    0      0.42      0.00
   16    4    1      0.81      0.00
   16    4    2      0.04      0.00
   16    4    3     -0.64      0.00
   16    4    4     -1.76      0.00
   16    4    5     -2.29      0.00
  -16    5   13     -2.02      0.00
  -16    5   12     -0.69      0.00
  -16    5   11     -1.28      0.00
  -16    5   10     -1.50      0.00
  -16    5    9      0.15      0.00
  -16    5    8      0.51      0.00
  -16    5    7      1.47      0.00
  -16    5    6     -1.32      0.00
  -16    5    5     -0.84      0.00
  -16    5    4     -1.54      0.00
  -16    5    3      0.60      0.00
  -16    5    2     -0.58      0.00
  -16    5    1      2.50      0.00
   16    5    0      0.76      0.00
   16    5    1     -0.21      0.00
   16    5    2     -1.13      0.00
   16    5    3     -0.73      0.00
   16    5    4      0.95      0.00
  -16    6   12      3.14      0.00
  -16    6   11     -0.34      0.00
  -16    6   10      0.70      0.00
  -16    6    9     -1.09      0.00
  -16    6    8     -1.61      0.00
  -16    6    7      0.46      0.00
  -16    6    6     -0.01      0.00
  -16    6    5      3.01      0.00
  -16    6    4     -0.80      0.00
  -16    6    3     -0.61      0.00
  -16    6    2     -2.07      0.00
  -16    6    1      0.03      0.00
   16    6    0     -1.43      0.00
   16    6    1     -1.22      0.00
   16    6    2      0.12      0.00
   16    6    3      0.55      0.00
  -16    7   10      2.91      0.00
  -16    7    9      0.03      0.00
  -16    7    8      1.39      0.00
  -16    7    7     -1.13      0.00
  -16    7    6     -2.55      0.00
  -16    7    5      1.06      0.00
  -16    7    4     -1.39      0.00
  -16    7    3      3.02      0.00
  -16    7    2      1.05      0.00
  -16    7    1      0.45      0.00
   16    7    0      0.85      0.00
  -17    0   13      2.59      0.00
  -17    0   11     -1.62      0.00
  -17    0    9     -2.25      0.00
  -17    0    5     -0.09      0.00
  -17    0    3     -0.90      0.00
  -17    0    1     -0.52      0.00
   17    0    1     -3.49      0.00
   17    0    3     -1.79      0.00
  -17    1   14     -4.39      0.00
  -17    1   13      2.73      0.00
  -17    1   12     -0.89      0.00
  -17    1   11      0.68      0.00
  -17    1   10      1.27      0.00
  -17    1    9     -1.78      0.00
  -17    1    8      1.14      0.00
  -17    1    7     -0.71      0.00
  -17    1    6     -1.02      0.00
  -17    1    5      0.11      0.00
  -17    1    4      0.72      0.00
  -17    1    3     -0.87      0.00
  -17    1    2      1.14      0.00
  -17    1    1      1.16      0.00
   17    1    0      2.40      0.00
   17    1    1     -1.69      0.00
   17    1    2      2.38      0.00
   17    1    3      0.09      0.00
   17    1    4      0.82      0.00
  -17    2   14     -1.45      0.00
  -17    2   13      3.11      0.00
  -17    2   12     -2.90      0.00
  -17    2   11      2.23      0.00
  -17    2   10      1.32      0.00
  -17    2    9     -0.29      0.00
  -17    2    8      2.45      0.00
  -17    2    7      0.00      0.00
  -17    2    6     -0.01      0.00
  -17    2    5      0.90      0.00
  -17    2    4     -0.76      0.00
  -17    2    3     -1.34      0.00
  -17    2    2     -0.62      0.00
  -17    2    1     -3.01      0.00
   17    2    0      1.88      0.00
   17    2    1     -2.05      0.00
   17    2    2      1.24      0.00
   17    2    3     -0.67      0.00
   17    2    4      0.13      0.00
  -17    3   13      0.97      0.00
  -17    3   12     -3.01      0.00
  -17    3   11      0.31      0.00
  -17    3   10     -3.18      0.00
  -17    3    9     -1.36      0.00
  -17    3    8      0.51      0.00
  -17    3    7     -1.20      0.00
  -17    3    6      0.05      0.00
  -17    3    5      1.32      0.00
  -17    3    4      0.73      0.00
  -17    3    3      2.66      0.00
  -17    3    2      1.42      0.00
  -17    3    1      1.61      0.00
   17    3    0      2.71      0.00
   17    3    1     -0.34      0.00
   17    3    2      1.05      0.00
   17    3    3     -1.02      0.00
  -17    4   12      0.87      0.00
  -17    4   11      2.80      0.00
  -17    4   10     -0.10      0.00
  -17    4    9      0.89      0.00
  -17    4    8     -0.23      0.00
  -17    4    7     -0.11      0.00
  -17    4    6     -0.82      0.00
  -17    4    5     -1.94      0.00
  -17    4    4     -2.27      0.00
  -17    4    3     -1.28      0.00
  -17    4    2     -2.84      0.00
  -17    4    1      0.56      0.00
   17    4    0      1.08      0.00
   17    4    1     -1.97      0.00
   17    4    2     -0.71      0.00
  -17    5   10      0.20      0.00
  -17    5    9      0.86      0.00
  -17    5    8     -0.21      0.00
  -17    5    7      1.06      0.00
  -17    5    6      0.56      0.00
  -17    5    5      2.81      0.00
  -17    5    4      2.41      0.00
  -17    5    3      0.87      0.00
  -17    5    2     -0.43      0.00
  -17    5    1      1.72      0.00
   17    5    0     -1.33      0.00
   17    5    1     -0.78      0.00
  -17    6    8      0.55      0.00
  -17    6    7     -0.59      0.00
  -17    6    6     -2.55      0.00
  -17    6    5     -0.84      0.00
  -17    6    4     -2.10      0.00
  -17    6    3     -0.07      0.00
  -17    6    2      0.67      0.00
  -18    0   10      0.62      0.00
  -18    0    6     -0.11      0.00
  -18    0    4     -0.16      0.00
  -18    0    2     -1.06      0.00
   18    0    0      0.90      0.00
  -18    1   11      0.37      0.00
  -18    1   10     -1.02      0.00
  -18    1    9     -0.82      0.00
  -18    1    8      0.41      0.00
  -18    1    6      0.33      0.00
  -18    1    5      0.94      0.00
  -18    1    4      0.52      0.00
  -18    1    3      0.45      0.00
  -18    1    2      0.61      0.00
  -18    1    1     -0.27      0.00
   18    1    0      1.72      0.00
   18    1    1     -2.40      0.00
  -18    2   10     -1.21      0.00
  -18    2    9     -0.57      0.00
  -18    2    8     -0.40      0.00
  -18    2    7     -1.29      0.00
  -18    2    6     -1.44      0.00
  -18    2    5     -0.11      0.00
  -18    2    4     -1.20      0.00
  -18    2    3      0.22      0.00
  -18    2    2      0.50      0.00
  -18    2    1      1.05      0.00
   18    2    0      2.29      0.00
  -18    3    9      2.36      0.00
  -18    3    8      1.46      0.00
  -18    3    7      1.26      0.00
  -18    3    6      0.98      0.00
  -18    3    5      0.63      0.00
  -18    3    4     -0.87      0.00
  -18    3    3     -0.04      0.00
  -18    3    2     -2.38      0.00
  -18    3    1     -0.82      0.00
  -18    4    7     -0.50      0.00
  -18    4    6     -0.92      0.00
  -18    4    5      0.53      0.00
  -18    4    4      2.04      0.00
   18    3    0      1.02      0.00
   18    4    0     -0.26      0.00
   18    5    0      1.95      0.00
   17    6    0      1.32      0.00
   18    6    0     -0.05      0.00
   17    7    0      0.53      0.00
   18    7    0      0.46      0.00
   16    8    0      0.40      0.00
   17    8    0      0.93      0.00
   18    8    0      0.56      0.00
   15    9    0     -0.13      0.00
   16    9    0     -0.64      0.00
   17    9    0      0.28      0.00
   18    9    0      0.45      0.00
   14   10    0     -2.23      0.00
   15   10    0     -0.17      0.00
   16   10    0     -0.91      0.00
   17   10    0     -0.33      0.00
   13   11    0     -3.74      0.00
   14   11    0     -0.69      0.00
   15   11    0     -1.68      0.00
   16   11    0     -0.38      0.00
   11   12    0      0.27      0.00
   12   12    0     -1.76      0.00
   13   12    0     -0.68      0.00
   14   12    0     -2.09      0.00
   15   12    0     -0.54      0.00
   10   13    0     -0.10      0.00
   11   13    0     -0.62      0.00
   12   13    0     -0.44      0.00
   13   13    0      0.10      0.00
   14   13    0     -0.87      0.00
    0   14    0      2.84      0.00
    1   14    0     -0.76      0.00
    7   14    0      0.60      0.00
    8   14    0      0.78      0.00
    9   14    0      0.47      0.00
   10   14    0      0.07      0.00
   11   14    0     -1.24      0.00
   12   14    0      0.94      0.00
   13   14    0     -0.75      0.00
   18    2    1     -1.65      0.00
   18    3    1     -1.79      0.00
  -18    4    1      2.52      0.00
   18    4    1     -0.60      0.00
  -18    5    1      0.51      0.00
   18    5    1      0.02      0.00
  -18    6    1     -0.24      0.00
  -17    6    1      1.02      0.00
   17    6    1      0.36      0.00
   18    6    1     -1.10      0.00
  -18    7    1     -0.04      0.00
  -17    7    1      0.15      0.00
   16    7    1      0.45      0.00
   17    7    1     -0.92      0.00
   18    7    1     -0.96      0.00
  -18    8    1      0.59      0.00
  -17    8    1     -0.20      0.00
  -16    8    1      0.25      0.00
   16    8    1      0.87      0.00
   17    8    1     -0.45      0.00
   18    8    1     -0.63      0.00
  -18    9    1     -0.67      0.00
  -17    9    1      0.84      0.00
  -16    9    1      0.57      0.00
  -15    9    1      0.17      0.00
   15    9    1      1.74      0.00
   16    9    1      0.85      0.00
   17    9    1      0.43      0.00
   18    9    1     -0.37      0.00
  -17   10    1     -0.16      0.00
  -16   10    1      0.36      0.00
  -15   10    1      0.93      0.00
  -14   10    1      0.10      0.00
   14   10    1      1.75      0.00
   15   10    1      1.00      0.00
   16   10    1      0.71      0.00
   17   10    1      0.12      0.00
  -16   11    1      0.32      0.00
  -15   11    1      0.27      0.00
  -14   11    1      2.18      0.00
  -13   11    1     -0.70      0.00
   13   11    1     -0.09      0.00
   14   11    1      2.96      0.00
   15   11    1      0.14      0.00
   16   11    1      0.95      0.00
  -15   12    1      0.26      0.00
  -14   12    1     -1.84      0.00
  -13   12    1      1.30      0.00
  -12   12    1     -0.49      0.00
   11   12    1      1.32      0.00
   12   12    1     -1.96      0.00
   13   12    1      2.26      0.00
   14   12    1      0.53      0.00
   15   12    1      1.42      0.00
  -14   13    1      0.19      0.00
  -13   13    1     -2.05      0.00
  -12   13    1     -0.89      0.00
  -11   13    1     -1.66      0.00
  -10   13    1      0.11      0.00
    9   13    1     -0.23      0.00
   10   13    1      0.48      0.00
   11   13    1     -0.73      0.00
   12   13    1      0.61      0.00
   13   13    1     -0.06      0.00
   14   13    1      0.61      0.00
  -13   14    1     -0.48      0.00
  -12   14    1     -1.22      0.00
  -11   14    1     -0.52      0.00
  -10   14    1     -1.22      0.00
   -9   14    1     -1.22      0.00
   -8   14    1      0.67      0.00
   -7   14    1      0.56      0.00
   -6   14    1      1.03      0.00
   -5   14    1      1.06      0.00
   -4   14    1      0.72      0.00
   -3   14    1      2.23      0.00
    7   14    1      0.72      0.00
    8   14    1     -0.06      0.00
    9   14    1     -0.82      0.00
   10   14    1     -0.64      0.00
   11   14    1      0.18      0.00
   12   14    1      0.20      0.00
  -12    0    2     -3.68      0.00
   18    0    2      3.53      0.00
   18    1    2      0.98      0.00
   18    2    2      1.05      0.00
   18    3    2      0.56      0.00
  -18    4    2      0.21      0.00
   18    4    2      1.72      0.00
  -18    5    2     -0.32      0.00
   17    5    2      1.16      0.00
   18    5    2      0.43      0.00
  -18    6    2      0.97      0.00
   17    6    2      0.56      0.00
   18    6    2      0.34      0.00
  -18    7    2      0.10      0.00
  -17    7    2     -1.18      0.00
   16    7    2      0.14      0.00
   17    7    2     -0.03      0.00
   18    7    2      0.04      0.00
  -18    8    2     -0.19      0.00
  -17    8    2     -0.83      0.00
  -16    8    2     -1.71      0.00
   16    8    2     -1.43      0.00
   17    8    2     -0.89      0.00
   18    8    2      0.79      0.00
  -18    9    2     -0.31      0.00
  -17    9    2     -0.24      0.00
  -16    9    2     -1.22      0.00
  -15    9    2     -0.92      0.00
   15    9    2     -0.43      0.00
   16    9    2     -1.51      0.00
   17    9    2     -0.23      0.00
   18    9    2     -0.12      0.00
  -17   10    2     -0.61      0.00
  -16   10    2     -1.03      0.00
  -15   10    2     -1.70      0.00
  -14   10    2     -1.10      0.00
   14   10    2     -0.47      0.00
   15   10    2     -1.31      0.00
   16   10    2     -0.55      0.00
   17   10    2     -0.66      0.00
  -17   11    2     -0.13      0.00
  -16   11    2     -0.04      0.00
  -15   11    2      0.31      0.00
  -14   11    2      0.29      0.00
  -13   11    2     -1.83      0.00
   12   11    2      0.31      0.00
   13   11    2     -0.98      0.00
   14   11    2     -1.66      0.00
   15   11    2     -1.56      0.00
   16   11    2     -0.42      0.00
  -16   12    2     -0.19      0.00
  -15   12    2      0.47      0.00
  -14   12    2     -0.13      0.00
  -13   12    2      2.78      0.00
  -12   12    2      0.30      0.00
   11   12    2      0.27      0.00
   12   12    2     -0.78      0.00
   13   12    2      1.04      0.00
   14   12    2     -1.81      0.00
   15   12    2     -0.01      0.00
  -14   13    2      0.59      0.00
  -13   13    2     -0.10      0.00
  -12   13    2      1.88      0.00
  -11   13    2      0.46      0.00
  -10   13    2      1.76      0.00
    9   13    2      3.17      0.00
   10   13    2      0.55      0.00
   11   13    2     -1.24      0.00
   12   13    2      1.77      0.00
   13   13    2     -0.43      0.00
   14   13    2     -0.04      0.00
  -13   14    2     -0.12      0.00
  -12   14    2      0.19      0.00
  -11   14    2      1.32      0.00
  -10   14    2     -0.02      0.00
   -9   14    2     -0.05      0.00
   -8   14    2      2.76      0.00
   -7   14    2     -1.67      0.00
   -6   14    2     -0.85      0.00
   -5   14    2     -0.73      0.00
    6   14    2      0.57      0.00
    7   14    2     -0.30      0.00
    8   14    2      1.96      0.00
    9   14    2      0.23      0.00
   10   14    2     -0.32      0.00
   11   14    2      0.65      0.00
   12   14    2     -0.10      0.00
  -13    0    3      1.97      0.00
   18    1    3     -2.30      0.00
   18    2    3     -0.55      0.00
   18    3    3     -0.49      0.00
  -18    4    3      1.42      0.00
   17    4    3     -0.41      0.00
   18    4    3     -0.25      0.00
  -18    5    3     -2.57      0.00
   17    5    3      0.95      0.00
   18    5    3     -0.96      0.00
  -18    6    3      0.46      0.00
   17    6    3     -0.34      0.00
   18    6    3     -0.07      0.00
  -18    7    3      0.28      0.00
  -17    7    3      0.46      0.00
   16    7    3      1.24      0.00
   17    7    3      0.15      0.00
   18    7    3     -0.55      0.00
  -18    8    3     -0.02      0.00
  -17    8    3      1.64      0.00
  -16    8    3      0.67      0.00
   15    8    3      1.05      0.00
   16    8    3      0.49      0.00
   17    8    3      0.35      0.00
   18    8    3      0.61      0.00
  -18    9    3      0.08      0.00
  -17    9    3      0.66      0.00
  -16    9    3      2.83      0.00
  -15    9    3      1.35      0.00
   14    9    3      0.22      0.00
   15    9    3      0.08      0.00
   16    9    3      0.17      0.00
   17    9    3      0.94      0.00
  -18   10    3      0.64      0.00
  -17   10    3      0.15      0.00
  -16   10    3      0.45      0.00
  -15   10    3      1.11      0.00
  -14   10    3      1.24      0.00
   13   10    3      0.53      0.00
   14   10    3      1.49      0.00
   15   10    3     -0.13      0.00
   16   10    3      1.01      0.00
   17   10    3     -0.09      0.00
  -17   11    3      0.43      0.00
  -16   11    3      0.01      0.00
  -15   11    3      0.68      0.00
  -14   11    3     -0.87      0.00
  -13   11    3     -1.95      0.00
   12   11    3     -0.63      0.00
   13   11    3      0.30      0.00
   14   11    3      0.40      0.00
   15   11    3      1.55      0.00
   16   11    3      0.55      0.00
  -16   12    3      0.33      0.00
  -15   12    3     -0.24      0.00
  -14   12    3      0.07      0.00
  -13   12    3     -0.03      0.00
  -12   12    3     -1.84      0.00
   11   12    3     -0.71      0.00
   12   12    3     -0.85      0.00
   13   12    3     -0.29      0.00
   14   12    3      0.57      0.00
   15   12    3      0.72      0.00
  -14   13    3      1.15      0.00
  -13   13    3     -0.11      0.00
  -12   13    3     -0.01      0.00
  -11   13    3     -1.17      0.00
  -10   13    3      0.69      0.00
    9   13    3      1.83      0.00
   10   13    3     -1.40      0.00
   11   13    3     -0.35      0.00
   12   13    3      0.48      0.00
   13   13    3     -1.15      0.00
  -13   14    3      0.92      0.00
  -12   14    3      0.33      0.00
  -11   14    3      0.63      0.00
  -10   14    3     -0.76      0.00
   -9   14    3     -0.63      0.00
   -8   14    3      1.02      0.00
   -7   14    3     -3.20      0.00
    6   14    3      0.46      0.00
    7   14    3     -0.36      0.00
    8   14    3      1.30      0.00
    9   14    3     -2.30      0.00
   10   14    3     -0.42      0.00
   11   14    3      0.88      0.00
   12   14    3     -0.67      0.00
  -14    0    4      5.76      0.00
   18    0    4      2.30      0.00
   18    1    4     -0.54      0.00
   18    2    4      1.32      0.00
   17    3    4     -0.53      0.00
   18    3    4      0.74      0.00
   17    4    4      0.82      0.00
   18    4    4      0.32      0.00
  -18    5    4     -1.34      0.00
   17    5    4      0.53      0.00
   18    5    4     -0.18      0.00
  -18    6    4      0.86      0.00
   16    6    4      0.74      0.00
   17    6    4     -0.28      0.00
   18    6    4      0.49      0.00
  -18    7    4     -1.21      0.00
  -17    7    4     -1.05      0.00
   16    7    4     -0.15      0.00
   17    7    4     -0.42      0.00
   18    7    4      0.18      0.00
  -18    8    4     -0.11      0.00
  -17    8    4     -0.30      0.00
  -16    8    4     -3.58      0.00
   15    8    4      1.19      0.00
   16    8    4     -0.71      0.00
   17    8    4      0.06      0.00
   18    8    4      0.66      0.00
  -18    9    4      0.34      0.00
  -17    9    4     -0.35      0.00
  -16    9    4     -0.08      0.00
  -15    9    4     -3.77      0.00
   14    9    4      1.45      0.00
   15    9    4     -0.14      0.00
   16    9    4      0.31      0.00
   17    9    4      0.21      0.00
  -18   10    4      0.03      0.00
  -17   10    4      0.41      0.00
  -16   10    4     -1.01      0.00
  -15   10    4      0.07      0.00
  -14   10    4     -0.39      0.00
   13   10    4      0.82      0.00
   14   10    4     -0.96      0.00
   15   10    4     -1.33      0.00
   16   10    4     -0.17      0.00
  -17   11    4      0.11      0.00
  -16   11    4      0.58      0.00
  -15   11    4      0.10      0.00
  -14   11    4     -0.53      0.00
  -13   11    4     -0.25      0.00
   12   11    4     -0.09      0.00
   13   11    4      0.23      0.00
   14   11    4     -1.44      0.00
   15   11    4      0.00      0.00
  -16   12    4      0.07      0.00
  -15   12    4     -0.86      0.00
  -14   12    4     -0.21      0.00
  -13   12    4     -0.02      0.00
  -12   12    4     -0.35      0.00
   10   12    4      2.67      0.00
   11   12    4     -1.66      0.00
   12   12    4      0.63      0.00
   13   12    4      0.78      0.00
   14   12    4      0.85      0.00
  -14   13    4     -1.20      0.00
  -13   13    4     -1.45      0.00
  -12   13    4     -0.54      0.00
  -11   13    4     -0.71      0.00
  -10   13    4      1.07      0.00
    8   13    4      0.56      0.00
    9   13    4      3.45      0.00
   10   13    4     -1.66      0.00
   11   13    4      0.18      0.00
   12   13    4      0.37      0.00
   13   13    4      0.54      0.00
  -13   14    4     -1.19      0.00
  -12   14    4     -0.83      0.00
  -11   14    4     -0.10      0.00
  -10   14    4     -1.06      0.00
   -9   14    4      0.39      0.00
   -8   14    4      2.05      0.00
   -7   14    4     -1.30      0.00
    6   14    4     -1.19      0.00
    7   14    4      0.50      0.00
    8   14    4      1.53      0.00
    9   14    4     -1.65      0.00
   10   14    4      0.91      0.00
   11   14    4      0.09      0.00
  -15    0    5     -1.15      0.00
   17    0    5     -0.02      0.00
   17    1    5     -0.31      0.00
   18    1    5     -1.48      0.00
   17    2    5      0.10      0.00
   18    2    5      0.56      0.00
   17    3    5     -0.65      0.00
   18    3    5     -0.76      0.00
   17    4    5      0.66      0.00
   18    4    5     -0.60      0.00
  -18    5    5     -0.74      0.00
   16    5    5      0.81      0.00
   17    5    5     -1.09      0.00
   18    5    5     -0.45      0.00
  -18    6    5      2.83      0.00
   16    6    5      0.06      0.00
   17    6    5     -0.61      0.00
   18    6    5     -0.19      0.00
  -18    7    5     -0.78      0.00
  -17    7    5      1.90      0.00
   15    7    5      0.88      0.00
   16    7    5     -0.48      0.00
   17    7    5     -0.28      0.00
   18    7    5     -0.45      0.00
  -18    8    5     -0.27      0.00
  -17    8    5     -0.64      0.00
  -16    8    5      1.09      0.00
   15    8    5     -0.58      0.00
   16    8    5     -1.23      0.00
   17    8    5      0.12      0.00
  -18    9    5     -0.11      0.00
  -17    9    5     -1.42      0.00
  -16    9    5      0.74      0.00
  -15    9    5     -0.18      0.00
   14    9    5      2.13      0.00
   15    9    5     -0.79      0.00
   16    9    5      0.60      0.00
   17    9    5     -0.16      0.00
  -18   10    5     -0.60      0.00
  -17   10    5     -0.56      0.00
  -16   10    5     -2.37      0.00
  -15   10    5      1.30      0.00
  -14   10    5      0.30      0.00
   13   10    5      2.93      0.00
   14   10    5     -0.26      0.00
   15   10    5      0.89      0.00
   16   10    5      0.35      0.00
  -17   11    5     -0.57      0.00
  -16   11    5      0.16      0.00
  -15   11    5     -1.08      0.00
  -14   11    5      0.26      0.00
  -13   11    5     -0.32      0.00
   11   11    5      0.27      0.00
   12   11    5      0.80      0.00
   13   11    5     -1.48      0.00
   14   11    5     -0.35      0.00
   15   11    5      0.71      0.00
  -16   12    5     -0.43      0.00
  -15   12    5      0.10      0.00
  -14   12    5      1.25      0.00
  -13   12    5      1.48      0.00
  -12   12    5     -0.14      0.00
   10   12    5      0.93      0.00
   11   12    5     -1.02      0.00
   12   12    5      0.15      0.00
   13   12    5     -0.89      0.00
   14   12    5     -0.04      0.00
  -14   13    5      0.28      0.00
  -13   13    5      1.23      0.00
  -12   13    5      1.12      0.00
  -11   13    5      0.21      0.00
  -10   13    5      1.49      0.00
    8   13    5      0.93      0.00
    9   13    5      0.09      0.00
   10   13    5     -3.13      0.00
   11   13    5      1.01      0.00
   12   13    5     -0.01      0.00
   13   13    5     -0.37      0.00
  -13   14    5      0.28      0.00
  -12   14    5      0.49      0.00
  -11   14    5      0.68      0.00
  -10   14    5     -0.53      0.00
   -9   14    5      0.89      0.00
   -8   14    5     -0.79      0.00
   -7   14    5     -2.52      0.00
    5   14    5      1.13      0.00
    6   14    5     -2.44      0.00
    7   14    5      1.68      0.00
    8   14    5     -0.62      0.00
    9   14    5     -2.78      0.00
   10   14    5      1.03      0.00
   11   14    5     -0.11      0.00
  -16    0    6     -2.26      0.00
   18    0    6      0.53      0.00
   17    1    6     -0.82      0.00
   18    1    6     -0.35      0.00
   17    2    6      0.71      0.00
   18    2    6      0.50      0.00
   17    3    6     -0.22      0.00
   18    3    6      0.08      0.00
   16    4    6     -0.67      0.00
   17    4    6      1.83      0.00
   18    4    6      0.29      0.00
  -18    5    6     -1.76      0.00
   16    5    6      1.61      0.00
   17    5    6     -0.56      0.00
   18    5    6      0.65      0.00
  -18    6    6      0.28      0.00
   16    6    6     -0.76      0.00
   17    6    6      0.50      0.00
   18    6    6      0.59      0.00
  -18    7    6     -0.97      0.00
  -17    7    6      1.98      0.00
   15    7    6      1.05      0.00
   16    7    6     -0.08      0.00
   17    7    6      0.67      0.00
   18    7    6      0.28      0.00
  -18    8    6      1.30      0.00
  -17    8    6      0.51      0.00
  -16    8    6      1.48      0.00
   14    8    6     -0.41      0.00
   15    8    6     -0.11      0.00
   16    8    6      0.51      0.00
   17    8    6      0.63      0.00
  -18    9    6      0.59      0.00
  -17    9    6      1.83      0.00
  -16    9    6      1.81      0.00
  -15    9    6     -0.47      0.00
   13    9    6     -3.11      0.00
   14    9    6      0.31      0.00
   15    9    6     -1.20      0.00
   16    9    6      0.54      0.00
  -18   10    6     -0.23      0.00
  -17   10    6      1.21      0.00
  -16   10    6      1.15      0.00
  -15   10    6      2.48      0.00
  -14   10    6      0.37      0.00
   12   10    6     -1.63      0.00
   13   10    6      2.00      0.00
   14   10    6     -1.96      0.00
   15   10    6      0.13      0.00
   16   10    6     -0.61      0.00
  -17   11    6     -0.28      0.00
  -16   11    6      1.78      0.00
  -15   11    6     -0.50      0.00
  -14   11    6     -0.08      0.00
  -13   11    6     -0.32      0.00
   11   11    6      0.30      0.00
   12   11    6      1.41      0.00
   13   11    6     -0.88      0.00
   14   11    6      1.25      0.00
   15   11    6      0.34      0.00
  -16   12    6     -0.24      0.00
  -15   12    6      1.11      0.00
  -14   12    6     -0.31      0.00
  -13   12    6     -0.55      0.00
  -12   12    6     -1.62      0.00
    9   12    6      3.31      0.00
   10   12    6      2.35      0.00
   11   12    6      0.19      0.00
   12   12    6     -0.22      0.00
   13   12    6      1.17      0.00
   14   12    6      0.63      0.00
  -14   13    6      0.46      0.00
  -13   13    6     -0.09      0.00
  -12   13    6      0.00      0.00
  -11   13    6     -0.71      0.00
  -10   13    6      0.71      0.00
   -9   13    6     -1.77      0.00
    7   13    6     -1.57      0.00
    8   13    6      3.33      0.00
    9   13    6      1.73      0.00
   10   13    6     -0.20      0.00
   11   13    6      1.60      0.00
   12   13    6     -0.25      0.00
  -13   14    6      0.26      0.00
  -12   14    6      0.21      0.00
  -11   14    6      0.70      0.00
  -10   14    6     -0.74      0.00
   -9   14    6      1.05      0.00
   -8   14    6     -1.02      0.00
   -7   14    6      0.13      0.00
   -6   14    6      2.13      0.00
    4   14    6     -0.27      0.00
    5   14    6      1.72      0.00
    6   14    6     -0.89      0.00
    7   14    6      2.40      0.00
    8   14    6     -0.65      0.00
    9   14    6     -0.44      0.00
   10   14    6      2.35      0.00
   11   14    6     -0.41      0.00
  -17    0    7      0.09      0.00
   17    0    7      0.44      0.00
  -18    1    7     -0.08      0.00
   17    1    7     -0.23      0.00
   18    1    7      0.38      0.00
   17    2    7      0.57      0.00
   18    2    7     -0.34      0.00
   16    3    7     -0.31      0.00
   17    3    7     -1.69      0.00
   18    3    7     -0.26      0.00
   16    4    7      0.49      0.00
   17    4    7      0.41      0.00
   18    4    7     -0.64      0.00
  -18    5    7      1.55      0.00
   16    5    7      1.99      0.00
   17    5    7     -1.38      0.00
   18    5    7      0.15      0.00
  -18    6    7      0.28      0.00
   15    6    7      1.42      0.00
   16    6    7     -0.73      0.00
   17    6    7      0.43      0.00
   18    6    7     -0.47      0.00
  -18    7    7     -1.29      0.00
  -17    7    7     -0.10      0.00
   15    7    7     -0.05      0.00
   16    7    7     -0.55      0.00
   17    7    7     -0.41      0.00
  -18    8    7      0.51      0.00
  -17    8    7     -2.75      0.00
  -16    8    7     -0.21      0.00
   14    8    7      0.61      0.00
   15    8    7     -0.45      0.00
   16    8    7      0.25      0.00
   17    8    7     -0.46      0.00
  -18    9    7     -0.31      0.00
  -17    9    7     -0.51      0.00
  -16    9    7     -3.67      0.00
  -15    9    7     -1.46      0.00
   13    9    7     -0.01      0.00
   14    9    7      1.62      0.00
   15    9    7      0.60      0.00
   16    9    7      0.41      0.00
  -18   10    7      0.29      0.00
  -17   10    7     -0.19      0.00
  -16   10    7     -1.46      0.00
  -15   10    7     -1.30      0.00
  -14   10    7     -0.67      0.00
   12   10    7     -1.23      0.00
   13   10    7      1.38      0.00
   14   10    7     -1.57      0.00
   15   10    7      0.54      0.00
  -17   11    7      0.43      0.00
  -16   11    7      0.18      0.00
  -15   11    7     -1.69      0.00
  -14   11    7     -0.71      0.00
  -13   11    7      1.31      0.00
   10   11    7     -1.09      0.00
   11   11    7     -2.05      0.00
   12   11    7      0.58      0.00
   13   11    7     -2.48      0.00
   14   11    7      0.22      0.00
  -16   12    7     -0.20      0.00
  -15   12    7      0.41      0.00
  -14   12    7     -0.62      0.00
  -13   12    7     -0.64      0.00
  -12   12    7     -0.44      0.00
  -11   12    7      0.41      0.00
    9   12    7      0.47      0.00
   10   12    7     -2.62      0.00
   11   12    7     -1.18      0.00
   12   12    7     -1.05      0.00
   13   12    7      0.62      0.00
  -14   13    7     -0.04      0.00
  -13   13    7     -0.30      0.00
  -12   13    7     -0.54      0.00
  -11   13    7     -0.68      0.00
  -10   13    7      0.20      0.00
   -9   13    7     -0.79      0.00
    7   13    7     -1.20      0.00
    8   13    7      1.79      0.00
    9   13    7     -1.86      0.00
   10   13    7     -2.03      0.00
   11   13    7     -0.19      0.00
   12   13    7      0.18      0.00
  -13   14    7     -0.38      0.00
  -12   14    7     -0.22      0.00
  -11   14    7      0.06      0.00
  -10   14    7     -0.63      0.00
   -9   14    7      1.08      0.00
   -8   14    7     -1.71      0.00
   -7   14    7      1.54      0.00
   -6   14    7      2.10      0.00
    3   14    7      0.97      0.00
    4   14    7      1.32      0.00
    5   14    7      0.76      0.00
    6   14    7     -1.44      0.00
    7   14    7      1.45      0.00
    8   14    7     -1.15      0.00
    9   14    7     -0.51      0.00
   10   14    7      1.14      0.00
  -18    0    8      1.49      0.00
   16    0    8      0.23      0.00
   18    0    8     -0.53      0.00
   16    1    8     -1.26      0.00
   17    1    8      0.49      0.00
   18    1    8     -0.01      0.00
   16    2    8      0.86      0.00
   17    2    8      1.07      0.00
   18    2    8      0.26      0.00
   16    3    8     -1.74      0.00
   17    3    8      0.03      0.00
   18    3    8      0.85      0.00
  -18    4    8     -2.10      0.00
   16    4    8     -0.39      0.00
   17    4    8      0.49      0.00
   18    4    8     -0.16      0.00
  -18    5    8      0.49      0.00
   15    5    8      0.38      0.00
   16    5    8     -1.17      0.00
   17    5    8     -0.82      0.00
   18    5    8      0.45      0.00
  -18    6    8     -0.26      0.00
   15    6    8      0.17      0.00
   16    6    8     -1.00      0.00
   17    6    8      1.09      0.00
  -18    7    8      0.21      0.00
  -17    7    8      1.04      0.00
   14    7    8      0.97      0.00
   15    7    8     -0.36      0.00
   16    7    8      0.60      0.00
   17    7    8      0.22      0.00
  -18    8    8      0.37      0.00
  -17    8    8      0.53      0.00
  -16    8    8      3.19      0.00
   13    8    8     -0.20      0.00
   14    8    8     -1.42      0.00
   15    8    8     -0.97      0.00
   16    8    8      0.23      0.00
  -18    9    8     -1.21      0.00
  -17    9    8      0.75      0.00
  -16    9    8      0.80      0.00
  -15    9    8      3.23      0.00
   12    9    8      0.42      0.00
   13    9    8     -0.66      0.00
   14    9    8     -0.14      0.00
   15    9    8     -0.19      0.00
   16    9    8     -0.58      0.00
  -18   10    8     -0.37      0.00
  -17   10    8     -1.47      0.00
  -16   10    8      1.20      0.00
  -15   10    8      1.38      0.00
  -14   10    8      1.23      0.00
   11   10    8      1.57      0.00
   12   10    8      0.71      0.00
   13   10    8      1.53      0.00
   14   10    8     -0.47      0.00
   15   10    8      0.18      0.00
  -17   11    8     -0.73      0.00
  -16   11    8     -0.91      0.00
  -15   11    8     -0.19      0.00
  -14   11    8      0.24      0.00
  -13   11    8      2.83      0.00
   10   11    8      2.55      0.00
   11   11    8      0.89      0.00
   12   11    8      1.37      0.00
   13   11    8     -1.01      0.00
   14   11    8      1.30      0.00
  -15   12    8      0.04      0.00
  -14   12    8     -0.10      0.00
  -13   12    8     -0.67      0.00
  -12   12    8      1.61      0.00
  -11   12    8      0.30      0.00
    8   12    8     -0.80      0.00
    9   12    8      2.22      0.00
   10   12    8     -0.23      0.00
   11   12    8      1.49      0.00
   12   12    8     -0.87      0.00
   13   12    8      0.99      0.00
  -14   13    8      0.08      0.00
  -13   13    8      0.18      0.00
  -12   13    8     -0.35      0.00
  -11   13    8      0.13      0.00
  -10   13    8     -0.51      0.00
   -9   13    8      0.70      0.00
    6   13    8      0.42      0.00
    7   13    8     -0.26      0.00
    8   13    8      0.59      0.00
    9   13    8     -2.11      0.00
   10   13    8      0.25      0.00
   11   13    8      0.33      0.00
  -12   14    8      0.59      0.00
  -11   14    8     -0.15      0.00
  -10   14    8     -0.60      0.00
   -9   14    8     -0.52      0.00
   -8   14    8     -2.02      0.00
   -7   14    8      1.77      0.00
   -6   14    8     -1.66      0.00
   -5   14    8     -3.11      0.00
   -4   14    8      1.53      0.00
    1   14    8     -0.41      0.00
    2   14    8      0.00      0.00
    3   14    8     -0.76      0.00
    4   14    8     -1.33      0.00
    5   14    8     -0.77      0.00
    6   14    8     -0.40      0.00
    7   14    8      0.69      0.00
    8   14    8     -1.76      0.00
    9   14    8     -0.10      0.00
   10   14    8      0.53      0.00
   17    0    9     -0.59      0.00
   16    1    9     -0.04      0.00
   17    1    9     -0.15      0.00
   18    1    9     -0.51      0.00
   16    2    9      2.09      0.00
   17    2    9     -1.13      0.00
   18    2    9     -0.45      0.00
   15    3    9      2.76      0.00
   16    3    9      0.40      0.00
   17    3    9      0.11      0.00
   18    3    9     -0.16      0.00
  -18    4    9     -0.48      0.00
   15    4    9     -0.47      0.00
   16    4    9      2.98      0.00
   17    4    9      0.35      0.00
   18    4    9     -0.05      0.00
  -18    5    9      1.16      0.00
   15    5    9      2.28      0.00
   16    5    9     -0.41      0.00
   17    5    9      0.09      0.00
  -18    6    9     -0.76      0.00
  -17    6    9     -0.60      0.00
   14    6    9      0.21      0.00
   15    6    9     -0.83      0.00
   16    6    9     -0.03      0.00
   17    6    9      0.09      0.00
  -18    7    9      0.23      0.00
  -17    7    9     -1.27      0.00
   14    7    9      1.63      0.00
   15    7    9     -0.12      0.00
   16    7    9      0.58      0.00
  -18    8    9      0.65      0.00
  -17    8    9     -0.01      0.00
  -16    8    9     -2.23      0.00
   13    8    9      1.36      0.00
   14    8    9      0.27      0.00
   15    8    9      0.85      0.00
   16    8    9      0.56      0.00
  -18    9    9      0.26      0.00
  -17    9    9      1.27      0.00
  -16    9    9     -1.72      0.00
  -15    9    9     -0.74      0.00
   12    9    9     -0.65      0.00
   13    9    9     -0.26      0.00
   14    9    9      0.51      0.00
   15    9    9      0.70      0.00
  -17   10    9      1.03      0.00
  -16   10    9      1.86      0.00
  -15   10    9     -0.45      0.00
  -14   10    9     -1.51      0.00
   11   10    9     -0.82      0.00
   12   10    9     -0.23      0.00
   13   10    9      0.16      0.00
   14   10    9     -0.80      0.00
  -16   11    9      0.44      0.00
  -15   11    9      0.77      0.00
  -14   11    9      1.04      0.00
  -13   11    9      0.93      0.00
  -12   11    9     -2.81      0.00
    9   11    9      1.07      0.00
   10   11    9      0.60      0.00
   11   11    9     -0.63      0.00
   12   11    9      0.39      0.00
   13   11    9     -0.80      0.00
  -15   12    9      0.36      0.00
  -14   12    9      0.71      0.00
  -13   12    9     -0.18      0.00
  -12   12    9      1.58      0.00
  -11   12    9     -0.10      0.00
    5   12    9      3.99      0.00
    7   12    9      0.07      0.00
    8   12    9      0.75      0.00
    9   12    9      1.99      0.00
   10   12    9     -0.77      0.00
   11   12    9      0.36      0.00
   12   12    9     -0.50      0.00
  -14   13    9      0.73      0.00
  -13   13    9      1.04      0.00
  -12   13    9     -0.07      0.00
  -11   13    9      1.02      0.00
  -10   13    9      0.85      0.00
   -9   13    9      2.78      0.00
   -8   13    9     -1.03      0.00
    5   13    9      0.51      0.00
    6   13    9      1.36      0.00
    7   13    9     -0.33      0.00
    8   13    9      0.85      0.00
    9   13    9     -0.59      0.00
   10   13    9      1.30      0.00
   11   13    9     -0.13      0.00
  -12   14    9      0.91      0.00
  -11   14    9      0.00      0.00
  -10   14    9      0.60      0.00
   -9   14    9     -0.01      0.00
   -8   14    9      0.40      0.00
   -7   14    9      2.83      0.00
   -6   14    9     -0.03      0.00
   -5   14    9      1.46      0.00
   -4   14    9      1.88      0.00
   -3   14    9      0.55      0.00
   -2   14    9     -1.67      0.00
   -1   14    9     -1.34      0.00
    0   14    9      2.14      0.00
    1   14    9      0.84      0.00
    2   14    9     -2.12      0.00
    3   14    9     -0.44      0.00
    4   14    9      0.93      0.00
    5   14    9      0.90      0.00
    6   14    9     -0.66      0.00
    7   14    9     -0.41      0.00
    8   14    9     -0.74      0.00
    9   14    9      1.07      0.00
   16    0   10     -1.72      0.00
   18    0   10      0.24      0.00
   15    1   10     -3.30      0.00
   16    1   10     -0.56      0.00
   17    1   10      0.50      0.00
   18    1   10      0.48      0.00
   15    2   10     -0.57      0.00
   16    2   10     -1.21      0.00
   17    2   10     -0.53      0.00
   18    2   10      0.59      0.00
  -18    3   10     -0.36      0.00
   15    3   10     -1.85      0.00
   16    3   10     -2.44      0.00
   17    3   10     -0.31      0.00
   18    3   10     -0.19      0.00
  -18    4   10     -2.72      0.00
   15    4   10     -0.40      0.00
   16    4   10     -0.17      0.00
   17    4   10     -0.59      0.00
  -18    5   10      1.01      0.00
   14    5   10      0.29      0.00
   15    5   10      1.46      0.00
   16    5   10     -1.56      0.00
   17    5   10      0.32      0.00
  -18    6   10     -0.03      0.00
  -17    6   10     -0.02      0.00
   14    6   10     -0.24      0.00
   15    6   10     -1.25      0.00
   16    6   10      0.54      0.00
  -18    7   10      0.00      0.00
  -17    7   10      0.60      0.00
   13    7   10     -0.86      0.00
   14    7   10     -0.90      0.00
   15    7   10     -0.79      0.00
   16    7   10     -0.19      0.00
  -18    8   10     -0.20      0.00
  -17    8   10      0.20      0.00
  -16    8   10      0.47      0.00
   12    8   10      0.38      0.00
   13    8   10     -0.18      0.00
   14    8   10     -1.51      0.00
   15    8   10     -0.39      0.00
  -18    9   10     -0.51      0.00
  -17    9   10     -1.48      0.00
  -16    9   10     -0.80      0.00
  -15    9   10      1.72      0.00
   11    9   10     -0.09      0.00
   12    9   10      0.11      0.00
   13    9   10     -0.27      0.00
   14    9   10      0.18      0.00
   15    9   10      0.02      0.00
  -17   10   10     -0.88      0.00
  -16   10   10     -0.48      0.00
  -15   10   10     -1.88      0.00
  -14   10   10     -1.83      0.00
    3   10   10     -4.75      0.00
   10   10   10     -1.02      0.00
   11   10   10      0.00      0.00
   12   10   10     -0.11      0.00
   13   10   10     -0.11      0.00
   14   10   10     -0.14      0.00
  -16   11   10     -0.85      0.00
  -15   11   10     -0.35      0.00
  -14   11   10     -0.36      0.00
  -13   11   10     -1.55      0.00
  -12   11   10     -1.20      0.00
    9   11   10      0.38      0.00
   10   11   10     -0.64      0.00
   11   11   10      0.00      0.00
   12   11   10     -0.47      0.00
   13   11   10     -0.84      0.00
  -15   12   10     -0.35      0.00
  -14   12   10     -1.04      0.00
  -13   12   10     -1.56      0.00
  -12   12   10     -0.12      0.00
  -11   12   10     -1.78      0.00
  -10   12   10     -2.56      0.00
    7   12   10      0.91      0.00
    8   12   10      1.76      0.00
    9   12   10     -0.45      0.00
   10   12   10     -1.03      0.00
   11   12   10      0.02      0.00
   12   12   10     -0.56      0.00
  -14   13   10     -0.29      0.00
  -13   13   10     -0.70      0.00
  -12   13   10     -1.24      0.00
  -11   13   10     -0.92      0.00
  -10   13   10     -0.95      0.00
   -9   13   10      0.20      0.00
   -8   13   10     -3.87      0.00
   -7   13   10      0.10      0.00
    4   13   10      0.78      0.00
    5   13   10     -2.36      0.00
    6   13   10      1.33      0.00
    7   13   10      0.57      0.00
    8   13   10      0.52      0.00
    9   13   10     -0.86      0.00
   10   13   10      0.40      0.00
  -12   14   10      0.41      0.00
  -11   14   10     -0.27      0.00
  -10   14   10     -0.57      0.00
   -9   14   10     -1.22      0.00
   -8   14   10      0.78      0.00
   -7   14   10      1.26      0.00
   -6   14   10     -2.52      0.00
   -5   14   10     -2.17      0.00
   -4   14   10     -1.99      0.00
   -3   14   10     -0.21      0.00
   -2   14   10     -1.79      0.00
   -1   14   10      0.18      0.00
    0   14   10     -1.92      0.00
    1   14   10     -0.75      0.00
    2   14   10     -1.63      0.00
    3   14   10      2.46      0.00
    4   14   10     -0.23      0.00
    5   14   10     -0.22      0.00
    6   14   10     -0.20      0.00
    7   14   10      0.94      0.00
    8   14   10      0.63      0.00
    7    0   11     -2.63      0.00
   15    0   11      2.24      0.00
   17    0   11      0.27      0.00
   15    1   11     -0.32      0.00
   16    1   11      2.15      0.00
   17    1   11     -0.12      0.00
  -18    2   11      2.67      0.00
   15    2   11      2.38      0.00
   16    2   11      1.05      0.00
   17    2   11      0.66      0.00
  -18    3   11      2.12      0.00
   14    3   11      1.23      0.00
   15    3   11     -1.28      0.00
   16    3   11      1.19      0.00
   17    3   11      0.60      0.00
  -18    4   11     -0.73      0.00
   14    4   11     -2.63      0.00
   15    4   11      0.72      0.00
   16    4   11      0.58      0.00
   17    4   11      0.32      0.00
  -18    5   11      0.78      0.00
  -17    5   11     -0.71      0.00
   14    5   11      1.89      0.00
   15    5   11      0.14      0.00
   16    5   11     -0.47      0.00
  -18    6   11     -0.70      0.00
  -17    6   11     -1.73      0.00
   13    6   11      1.05      0.00
   14    6   11      1.22      0.00
   15    6   11     -0.32      0.00
   16    6   11      1.00      0.00
  -18    7   11     -0.12      0.00
  -17    7   11     -0.02      0.00
  -16    7   11     -1.33      0.00
   12    7   11     -0.71      0.00
   13    7   11      0.78      0.00
   14    7   11      0.87      0.00
   15    7   11      1.01      0.00
  -18    8   11      0.47      0.00
  -17    8   11      0.99      0.00
  -16    8   11     -1.82      0.00
  -15    8   11     -0.62      0.00
   12    8   11      0.07      0.00
   13    8   11      0.25      0.00
   14    8   11      0.10      0.00
   15    8   11      0.72      0.00
  -18    9   11     -0.52      0.00
  -17    9   11      0.68      0.00
  -16    9   11      1.42      0.00
  -15    9   11      1.69      0.00
  -14    9   11     -0.61      0.00
   11    9   11     -0.13      0.00
   12    9   11      0.66      0.00
   13    9   11     -0.09      0.00
   14    9   11      0.47      0.00
  -17   10   11      0.28      0.00
  -16   10   11      0.95      0.00
  -15   10   11     -0.77      0.00
  -14   10   11      1.66      0.00
  -13   10   11      2.00      0.00
    9   10   11      0.44      0.00
   10   10   11      0.28      0.00
   11   10   11      0.86      0.00
   12   10   11      0.14      0.00
   13   10   11      0.44      0.00
  -16   11   11     -0.38      0.00
  -15   11   11      0.38      0.00
  -14   11   11      1.16      0.00
  -13   11   11      0.19      0.00
  -12   11   11      1.16      0.00
    8   11   11     -2.29      0.00
    9   11   11      0.20      0.00
   10   11   11      0.13      0.00
   11   11   11     -0.15      0.00
   12   11   11     -0.02      0.00
  -15   12   11     -0.61      0.00
  -14   12   11     -0.40      0.00
  -13   12   11      1.05      0.00
  -12   12   11      1.53      0.00
  -11   12   11      0.97      0.00
  -10   12   11      0.96      0.00
    6   12   11      0.20      0.00
    7   12   11     -0.06      0.00
    8   12   11     -0.49      0.00
    9   12   11     -1.42      0.00
   10   12   11     -0.12      0.00
   11   12   11     -0.47      0.00
  -13   13   11      0.05      0.00
  -12   13   11     -0.21      0.00
  -11   13   11      0.30      0.00
  -10   13   11      1.80      0.00
   -9   13   11      0.99      0.00
   -8   13   11     -2.33      0.00
   -7   13   11      2.57      0.00
   -6   13   11      1.31      0.00
    2   13   11      2.05      0.00
    3   13   11     -3.89      0.00
    4   13   11      0.91      0.00
    5   13   11      0.13      0.00
    6   13   11      1.65      0.00
    7   13   11     -1.12      0.00
    8   13   11     -1.56      0.00
    9   13   11     -0.71      0.00
  -11   14   11     -0.39      0.00
  -10   14   11     -0.74      0.00
   -9   14   11     -0.55      0.00
   -8   14   11      2.17      0.00
   -7   14   11     -0.36      0.00
   -6   14   11     -1.81      0.00
   -5   14   11      1.44      0.00
   -4   14   11      2.40      0.00
   -3   14   11      2.81      0.00
   -2   14   11     -1.05      0.00
   -1   14   11      0.35      0.00
    0   14   11      1.02      0.00
    1   14   11      4.17      0.00
    2   14   11     -1.45      0.00
    3   14   11      1.31      0.00
    4   14   11     -0.79      0.00
    5   14   11      1.11      0.00
    6   14   11     -0.24      0.00
    7   14   11     -0.09      0.00
    8   14   11     -0.46      0.00
  -18    0   12     -1.38      0.00
   14    0   12     -0.36      0.00
   16    0   12     -1.11      0.00
  -18    1   12     -2.11      0.00
   14    1   12     -0.11      0.00
   15    1   12     -0.79      0.00
   16    1   12     -0.24      0.00
   17    1   12     -0.64      0.00
  -18    2   12     -0.95      0.00
   14    2   12      0.35      0.00
   15    2   12      0.77      0.00
   16    2   12     -1.21      0.00
   17    2   12     -0.22      0.00
  -18    3   12     -1.77      0.00
   14    3   12      1.37      0.00
   15    3   12     -0.32      0.00
   16    3   12     -0.13      0.00
  -18    4   12     -0.11      0.00
   13    4   12     -0.50      0.00
   14    4   12     -1.79      0.00
   15    4   12      1.12      0.00
   16    4   12     -0.24      0.00
  -18    5   12      1.17      0.00
  -17    5   12      0.01      0.00
   13    5   12     -1.86      0.00
   14    5   12      0.22      0.00
   15    5   12     -0.75      0.00
   16    5   12     -0.31      0.00
  -18    6   12     -0.39      0.00
  -17    6   12      0.08      0.00
   12    6   12      0.29      0.00
   13    6   12      0.29      0.00
   14    6   12     -0.86      0.00
   15    6   12     -0.93      0.00
  -18    7   12     -0.41      0.00
  -17    7   12      0.81      0.00
  -16    7   12      0.94      0.00
   12    7   12      0.59      0.00
   13    7   12      0.36      0.00
   14    7   12     -0.79      0.00
   15    7   12      0.03      0.00
  -18    8   12     -0.02      0.00
  -17    8   12     -1.19      0.00
  -16    8   12     -1.28      0.00
  -15    8   12      1.49      0.00
   11    8   12      0.10      0.00
   12    8   12     -0.41      0.00
   13    8   12      0.07      0.00
   14    8   12     -0.26      0.00
  -18    9   12     -0.25      0.00
  -17    9   12     -0.97      0.00
  -16    9   12      0.49      0.00
  -15    9   12     -0.14      0.00
  -14    9   12     -2.38      0.00
   10    9   12     -0.11      0.00
   11    9   12     -0.88      0.00
   12    9   12      0.31      0.00
   13    9   12     -0.47      0.00
  -17   10   12      0.32      0.00
  -16   10   12     -0.12      0.00
  -15   10   12     -0.62      0.00
  -14   10   12      0.96      0.00
  -13   10   12     -1.13      0.00
    8   10   12      0.90      0.00
    9   10   12      1.84      0.00
   10   10   12     -0.39      0.00
   11   10   12      1.10      0.00
   12   10   12     -0.81      0.00
   13   10   12     -0.05      0.00
  -16   11   12      0.39      0.00
  -15   11   12      1.73      0.00
  -14   11   12      0.40      0.00
  -13   11   12     -1.10      0.00
  -12   11   12     -0.02      0.00
  -11   11   12     -0.88      0.00
    7   11   12     -1.36      0.00
    8   11   12      2.56      0.00
    9   11   12      1.56      0.00
   10   11   12      0.81      0.00
   11   11   12     -0.18      0.00
  -14   12   12      0.25      0.00
  -13   12   12      0.67      0.00
  -12   12   12      0.18      0.00
  -11   12   12     -0.97      0.00
  -10   12   12     -1.72      0.00
   -9   12   12      0.49      0.00
    4   12   12      1.05      0.00
    5   12   12     -1.66      0.00
    6   12   12     -1.42      0.00
    7   12   12      0.30      0.00
    8   12   12      1.16      0.00
    9   12   12      0.18      0.00
   10   12   12      0.07      0.00
  -13   13   12     -0.13      0.00
  -12   13   12      0.07      0.00
  -11   13   12      0.91      0.00
  -10   13   12      0.84      0.00
   -9   13   12     -1.14      0.00
   -8   13   12     -2.22      0.00
   -7   13   12      2.24      0.00
   -6   13   12     -0.48      0.00
   -5   13   12     -1.96      0.00
   -4   13   12     -3.57      0.00
   -3   13   12     -2.08      0.00
   -2   13   12      0.17      0.00
   -1   13   12      0.80      0.00
    0   13   12     -1.89      0.00
    1   13   12     -1.04      0.00
    2   13   12     -2.10      0.00
    3   13   12     -0.19      0.00
    4   13   12      0.54      0.00
    5   13   12     -0.83      0.00
    6   13   12     -0.18      0.00
    7   13   12     -1.21      0.00
    8   13   12      0.05      0.00
    9   13   12      0.50      0.00
  -11   14   12      0.14      0.00
  -10   14   12     -0.43      0.00
   -9   14   12      0.57      0.00
   -8   14   12      2.09      0.00
   -7   14   12     -2.21      0.00
   -6   14   12     -0.24      0.00
   -5   14   12      0.49      0.00
   -4   14   12     -0.64      0.00
   -3   14   12     -0.78      0.00
   -2   14   12     -1.77      0.00
   -1   14   12      1.85      0.00
    0   14   12      1.64      0.00
    1   14   12     -1.63      0.00
    2   14   12     -3.24      0.00
    3   14   12      1.83      0.00
    4   14   12     -1.01      0.00
    5   14   12     -0.11      0.00
    6   14   12     -1.57      0.00
    7   14   12      0.06      0.00
   15    0   13     -0.05      0.00
  -18    1   13      2.31      0.00
   14    1   13      0.29      0.00
   15    1   13      0.11      0.00
   16    1   13      0.19      0.00
  -18    2   13      1.91      0.00
   13    2   13     -0.08      0.00
   14    2   13     -0.20      0.00
   15    2   13     -0.61      0.00
   16    2   13      0.07      0.00
  -18    3   13     -0.51      0.00
   13    3   13      1.08      0.00
   14    3   13     -0.15      0.00
   15    3   13     -0.38      0.00
   16    3   13     -0.20      0.00
  -18    4   13     -0.21      0.00
  -17    4   13      1.08      0.00
   13    4   13      0.51      0.00
   14    4   13      0.65      0.00
   15    4   13      0.34      0.00
   16    4   13      0.17      0.00
  -18    5   13      0.18      0.00
  -17    5   13     -0.85      0.00
   12    5   13     -1.00      0.00
   13    5   13     -0.33      0.00
   14    5   13      0.86      0.00
   15    5   13     -0.06      0.00
  -18    6   13      0.37      0.00
  -17    6   13     -0.61      0.00
  -16    6   13      1.18      0.00
   12    6   13     -1.19      0.00
   13    6   13     -0.51      0.00
   14    6   13      0.05      0.00
   15    6   13     -0.01      0.00
  -18    7   13      0.59      0.00
  -17    7   13      2.24      0.00
  -16    7   13     -2.29      0.00
   11    7   13     -0.45      0.00
   12    7   13      0.38      0.00
   13    7   13     -0.41      0.00
   14    7   13     -0.32      0.00
  -18    8   13      0.60      0.00
  -17    8   13      0.26      0.00
  -16    8   13      0.43      0.00
  -15    8   13      0.49      0.00
   10    8   13     -0.27      0.00
   11    8   13      0.84      0.00
   12    8   13     -0.15      0.00
   13    8   13      0.05      0.00
   14    8   13      0.43      0.00
  -17    9   13      0.37      0.00
  -16    9   13      1.24      0.00
  -15    9   13     -1.47      0.00
  -14    9   13     -0.29      0.00
    9    9   13     -1.28      0.00
   10    9   13     -0.01      0.00
   11    9   13     -0.37      0.00
   12    9   13      0.97      0.00
   13    9   13     -0.02      0.00
  -16   10   13     -1.14      0.00
  -15   10   13     -1.43      0.00
  -14   10   13      0.16      0.00
  -13   10   13     -1.19      0.00
  -12   10   13      0.48      0.00
    8   10   13     -2.16      0.00
    9   10   13     -1.33      0.00
   10   10   13     -0.76      0.00
   11   10   13      0.49      0.00
   12   10   13     -0.79      0.00
  -15   11   13     -0.15      0.00
  -14   11   13     -1.36      0.00
  -13   11   13     -0.69      0.00
  -12   11   13      0.09      0.00
  -11   11   13     -0.17      0.00
  -10   11   13      0.51      0.00
    6   11   13      1.77      0.00
    7   11   13      0.58      0.00
    8   11   13      0.42      0.00
    9   11   13     -1.09      0.00
   10   11   13      0.20      0.00
   11   11   13     -0.95      0.00
  -14   12   13     -0.49      0.00
  -13   12   13      0.46      0.00
  -12   12   13     -0.76      0.00
  -11   12   13     -0.85      0.00
  -10   12   13      0.16      0.00
   -9   12   13      1.88      0.00
   -8   12   13     -0.80      0.00
    3   12   13     -2.26      0.00
    4   12   13     -0.06      0.00
    5   12   13     -0.06      0.00
    6   12   13      1.08      0.00
    7   12   13      2.19      0.00
    8   12   13     -0.10      0.00
    9   12   13     -0.55      0.00
  -12   13   13     -0.27      0.00
  -11   13   13      0.07      0.00
  -10   13   13     -0.25      0.00
   -9   13   13     -1.95      0.00
   -8   13   13     -0.14      0.00
   -7   13   13      2.75      0.00
   -6   13   13     -0.21      0.00
   -5   13   13     -0.22      0.00
   -4   13   13      1.36      0.00
   -3   13   13      3.49      0.00
   -2   13   13      1.69      0.00
   -1   13   13     -2.13      0.00
    0   13   13     -3.63      0.00
    1   13   13      3.98      0.00
    2   13   13      0.02      0.00
    3   13   13      0.17      0.00
    4   13   13     -0.23      0.00
    5   13   13      0.65      0.00
    6   13   13      1.11      0.00
    7   13   13      0.12      0.00
    8   13   13      0.19      0.00
  -10   14   13      0.02      0.00
   -9   14   13      0.37      0.00
   -8   14   13      0.68      0.00
   -7   14   13     -1.89      0.00
   -6   14   13      0.49      0.00
   -5   14   13     -0.07      0.00
   -4   14   13      0.49      0.00
   -3   14   13      0.94      0.00
   -2   14   13     -0.57      0.00
   -1   14   13     -1.02      0.00
    0   14   13     -1.21      0.00
    1   14   13     -1.60      0.00
    2   14   13      0.87      0.00
    3   14   13      1.19      0.00
    4   14   13     -0.66      0.00
    5   14   13      0.66      0.00
    6   14   13     -0.29      0.00
  -18    0   14     -3.10      0.00
   14    0   14     -1.93      0.00
   16    0   14      0.26      0.00
  -18    1   14     -0.55      0.00
   13    1   14     -1.64      0.00
   14    1   14      0.63      0.00
   15    1   14      0.12      0.00
   16    1   14     -0.11      0.00
  -18    2   14     -0.75      0.00
   13    2   14      0.77      0.00
   14    2   14     -0.40      0.00
   15    2   14      0.20      0.00
   16    2   14      0.40      0.00
  -18    3   14      0.66      0.00
  -17    3   14     -2.21      0.00
   12    3   14     -0.69      0.00
   13    3   14     -0.78      0.00
   14    3   14     -0.48      0.00
   15    3   14      0.16      0.00
  -18    4   14      0.19      0.00
  -17    4   14      1.76      0.00
   12    4   14      1.11      0.00
   13    4   14     -0.21      0.00
   14    4   14     -0.20      0.00
   15    4   14     -0.21      0.00
  -18    5   14     -0.16      0.00
  -17    5   14     -1.25      0.00
  -16    5   14     -0.48      0.00
   12    5   14      0.40      0.00
   13    5   14      1.11      0.00
   14    5   14      0.06      0.00
   15    5   14     -0.17      0.00
  -18    6   14     -0.88      0.00
  -17    6   14     -0.75      0.00
  -16    6   14      2.78      0.00
   11    6   14     -0.81      0.00
   12    6   14      0.50      0.00
   13    6   14      0.72      0.00
   14    6   14      0.09      0.00
  -18    7   14     -0.67      0.00
  -17    7   14      0.17      0.00
  -16    7   14     -2.67      0.00
  -15    7   14      3.51      0.00
   10    7   14     -0.37      0.00
   11    7   14     -0.49      0.00
   12    7   14     -0.22      0.00
   13    7   14     -0.15      0.00
   14    7   14     -0.50      0.00
  -18    8   14      0.09      0.00
  -17    8   14     -2.07      0.00
  -16    8   14      1.22      0.00
  -15    8   14      0.04      0.00
  -14    8   14      0.10      0.00
    9    8   14      0.18      0.00
   10    8   14     -0.29      0.00
   11    8   14      0.04      0.00
   12    8   14     -1.12      0.00
   13    8   14     -0.04      0.00
  -17    9   14      0.64      0.00
  -16    9   14      0.35      0.00
  -15    9   14      0.60      0.00
  -14    9   14      1.50      0.00
  -13    9   14      0.53      0.00
    8    9   14     -0.21      0.00
    9    9   14      1.28      0.00
   10    9   14      0.51      0.00
   11    9   14      0.02      0.00
   12    9   14      0.31      0.00
  -16   10   14     -0.54      0.00
  -15   10   14      1.08      0.00
  -14   10   14      1.37      0.00
  -13   10   14     -0.03      0.00
  -12   10   14      1.92      0.00
  -11   10   14      0.36      0.00
    7   10   14     -2.44      0.00
    8   10   14      0.62      0.00
    9   10   14      0.87      0.00
   10   10   14      0.71      0.00
   11   10   14      0.37      0.00
  -15   11   14      0.35      0.00
  -14   11   14     -0.37      0.00
  -13   11   14      0.20      0.00
  -12   11   14      0.53      0.00
  -11   11   14      0.07      0.00
  -10   11   14     -0.10      0.00
   -9   11   14      0.81      0.00
    4   11   14      1.01      0.00
    5   11   14     -0.07      0.00
    6   11   14     -0.70      0.00
    7   11   14     -1.82      0.00
    8   11   14     -0.26      0.00
    9   11   14      0.46      0.00
   10   11   14     -0.06      0.00
  -14   12   14      0.14      0.00
  -13   12   14      0.52      0.00
  -12   12   14     -0.50      0.00
  -11   12   14      0.79      0.00
  -10   12   14      0.76      0.00
   -9   12   14      1.37      0.00
   -8   12   14     -1.54      0.00
   -7   12   14     -0.16      0.00
   -6   12   14     -0.71      0.00
    1   12   14     -0.77      0.00
    2   12   14     -0.11      0.00
    3   12   14     -0.25      0.00
    4   12   14      0.51      0.00
    5   12   14      0.16      0.00
    6   12   14     -0.36      0.00
    7   12   14     -0.56      0.00
    8   12   14     -0.86      0.00
    9   12   14     -0.12      0.00
  -12   13   14      0.25      0.00
  -11   13   14      0.39      0.00
  -10   13   14     -0.13      0.00
   -9   13   14     -0.55      0.00
   -8   13   14      2.41      0.00
   -7   13   14      0.51      0.00
   -6   13   14     -0.59      0.00
   -5   13   14     -0.71      0.00
   -4   13   14     -0.51      0.00
   -3   13   14     -0.64      0.00
   -2   13   14     -1.83      0.00
   -1   13   14     -0.10      0.00
    0   13   14      2.03      0.00
    1   13   14      2.59      0.00
    2   13   14     -2.74      0.00
    3   13   14      0.19      0.00
    4   13   14     -0.13      0.00
    5   13   14     -0.06      0.00
    6   13   14      0.00      0.00
    7   13   14     -1.00      0.00
  -10   14   14     -0.21      0.00
   -9   14   14      0.54      0.00
   -8   14   14      1.04      0.00
   -7   14   14     -1.11      0.00
   -6   14   14      0.86      0.00
   -5   14   14      1.15      0.00
   -4   14   14      0.79      0.00
   -3   14   14     -0.07      0.00
   -2   14   14     -1.87      0.00
   -1   14   14      0.56      0.00
    0   14   14      2.43      0.00
    1   14   14     -0.44      0.00
    2   14   14      0.18      0.00
    3   14   14      0.12      0.00
    4   14   14     -0.40      0.00
    5   14   14      0.31      0.00
  -17    0   15      4.61      0.00
   -7    0   15      8.61      0.00
   13    0   15      0.70      0.00
   15    0   15      0.58      0.00
  -18    1   15      0.87      0.00
  -17    1   15      0.94      0.00
   12    1   15     -0.52      0.00
   13    1   15     -1.18      0.00
   14    1   15      1.31      0.00
   15    1   15     -0.29      0.00
  -18    2   15     -0.88      0.00
  -17    2   15      1.56      0.00
   12    2   15      0.21      0.00
   13    2   15      1.12      0.00
   14    2   15     -0.71      0.00
   15    2   15      0.16      0.00
  -18    3   15     -0.90      0.00
  -17    3   15     -1.80      0.00
   12    3   15     -0.03      0.00
   13    3   15     -0.51      0.00
   14    3   15      0.97      0.00
   15    3   15      0.07      0.00
  -18    4   15     -0.61      0.00
  -17    4   15      2.28      0.00
   11    4   15     -1.22      0.00
   12    4   15     -0.20      0.00
   13    4   15     -0.18      0.00
   14    4   15     -0.13      0.00
  -18    5   15      1.02      0.00
  -17    5   15     -2.25      0.00
  -16    5   15      1.51      0.00
   11    5   15      1.46      0.00
   12    5   15     -0.89      0.00
   13    5   15     -0.72      0.00
   14    5   15     -0.16      0.00
  -18    6   15     -0.13      0.00
  -17    6   15      1.76      0.00
  -16    6   15     -0.44      0.00
  -15    6   15     -3.58      0.00
   10    6   15      1.60      0.00
   11    6   15     -0.43      0.00
   12    6   15      1.05      0.00
   13    6   15     -0.10      0.00
   14    6   15      0.00      0.00
  -18    7   15      0.27      0.00
  -17    7   15      0.96      0.00
  -16    7   15     -1.86      0.00
  -15    7   15      1.95      0.00
    9    7   15      1.65      0.00
   10    7   15     -1.03      0.00
   11    7   15      1.07      0.00
   12    7   15      0.49      0.00
   13    7   15     -0.13      0.00
  -18    8   15     -0.32      0.00
  -17    8   15     -0.89      0.00
  -16    8   15      1.92      0.00
  -15    8   15     -3.39      0.00
  -14    8   15      0.19      0.00
    8    8   15      1.33      0.00
    9    8   15     -1.43      0.00
   10    8   15     -0.42      0.00
   11    8   15     -0.29      0.00
   12    8   15     -0.03      0.00
  -17    9   15      0.67      0.00
  -16    9   15     -0.88      0.00
  -15    9   15     -0.33      0.00
  -14    9   15     -1.04      0.00
  -13    9   15     -1.56      0.00
  -12    9   15     -1.69      0.00
    7    9   15      1.03      0.00
    8    9   15     -1.04      0.00
    9    9   15     -0.76      0.00
   10    9   15     -0.42      0.00
   11    9   15     -0.30      0.00
  -16   10   15      0.31      0.00
  -15   10   15      0.05      0.00
  -14   10   15      0.01      0.00
  -13   10   15     -0.19      0.00
  -12   10   15      0.42      0.00
  -11   10   15     -1.14      0.00
    5   10   15     -1.22      0.00
    6   10   15     -0.20      0.00
    7   10   15      0.67      0.00
    8   10   15      1.20      0.00
    9   10   15     -0.54      0.00
   10   10   15      0.05      0.00
  -14   11   15     -0.35      0.00
  -13   11   15      0.71      0.00
  -12   11   15     -0.29      0.00
  -11   11   15     -0.55      0.00
  -10   11   15     -0.55      0.00
   -9   11   15      0.55      0.00
   -8   11   15     -1.94      0.00
    3   11   15     -0.34      0.00
    4   11   15     -1.22      0.00
    5   11   15     -0.43      0.00
    6   11   15     -0.39      0.00
    7   11   15      1.50      0.00
    8   11   15      0.60      0.00
    9   11   15      0.05      0.00
  -13   12   15      0.43      0.00
  -12   12   15     -0.63      0.00
  -11   12   15      0.50      0.00
  -10   12   15     -0.10      0.00
   -9   12   15     -1.47      0.00
   -8   12   15     -2.18      0.00
   -7   12   15      0.40      0.00
   -6   12   15      0.42      0.00
   -5   12   15      0.28      0.00
   -4   12   15     -0.59      0.00
   -3   12   15      1.32      0.00
   -2   12   15      4.12      0.00
   -1   12   15      0.14      0.00
    0   12   15     -1.79      0.00
    1   12   15      0.12      0.00
    2   12   15      1.25      0.00
    3   12   15      0.26      0.00
    4   12   15      0.37      0.00
    5   12   15      0.06      0.00
    6   12   15     -0.10      0.00
    7   12   15      0.44      0.00
    8   12   15      0.18      0.00
  -11   13   15     -0.17      0.00
  -10   13   15      0.04      0.00
   -9   13   15     -0.82      0.00
   -8   13   15      0.09      0.00
   -7   13   15     -1.62      0.00
   -6   13   15     -0.42      0.00
   -5   13   15     -1.86      0.00
   -4   13   15     -0.69      0.00
   -3   13   15      1.16      0.00
   -2   13   15      0.77      0.00
   -1   13   15      0.45      0.00
    0   13   15     -1.13      0.00
    1   13   15     -0.25      0.00
    2   13   15     -0.22      0.00
    3   13   15      0.79      0.00
    4   13   15      0.31      0.00
    5   13   15      0.41      0.00
    6   13   15     -0.02      0.00
   -8   14   15     -1.28      0.00
   -7   14   15     -1.68      0.00
   -6   14   15      0.01      0.00
   -5   14   15     -0.49      0.00
   -4   14   15     -0.91      0.00
   -3   14   15     -0.92      0.00
   -2   14   15     -0.23      0.00
   -1   14   15      1.89      0.00
    0   14   15     -0.04      0.00
    1   14   15     -1.37      0.00
    2   14   15      0.97      0.00
    3   14   15      0.55      0.00
  -18    0   16      0.46      0.00
   12    0   16      1.43      0.00
   14    0   16     -0.75      0.00
  -18    1   16      0.65      0.00
  -17    1   16     -0.65      0.00
   11    1   16      1.19      0.00
   12    1   16     -0.81      0.00
   13    1   16      0.30      0.00
   14    1   16      0.59      0.00
  -18    2   16      2.22      0.00
  -17    2   16      0.01      0.00
   11    2   16     -1.70      0.00
   12    2   16      0.62      0.00
   13    2   16     -0.20      0.00
   14    2   16     -0.90      0.00
  -18    3   16     -0.14      0.00
  -17    3   16      1.00      0.00
  -16    3   16      1.93      0.00
   11    3   16      1.25      0.00
   12    3   16     -1.10      0.00
   13    3   16     -0.29      0.00
   14    3   16      0.16      0.00
  -18    4   16      0.49      0.00
  -17    4   16      1.80      0.00
  -16    4   16     -3.50      0.00
   10    4   16      1.17      0.00
   11    4   16     -1.44      0.00
   12    4   16      0.71      0.00
   13    4   16      0.69      0.00
   14    4   16     -0.08      0.00
  -18    5   16      0.22      0.00
  -17    5   16     -2.21      0.00
  -16    5   16      4.63      0.00
   10    5   16     -1.01      0.00
   11    5   16      0.30      0.00
   12    5   16     -0.82      0.00
   13    5   16      0.29      0.00
  -18    6   16     -0.58      0.00
  -17    6   16      1.84      0.00
  -16    6   16     -1.49      0.00
  -15    6   16      1.41      0.00
    9    6   16     -1.12      0.00
   10    6   16      1.41      0.00
   11    6   16     -1.27      0.00
   12    6   16      0.17      0.00
   13    6   16      0.09      0.00
  -18    7   16      0.63      0.00
  -17    7   16     -1.13      0.00
  -16    7   16      0.60      0.00
  -15    7   16      2.72      0.00
  -14    7   16     -0.95      0.00
    8    7   16     -1.56      0.00
    9    7   16      1.94      0.00
   10    7   16     -0.35      0.00
   11    7   16      1.15      0.00
   12    7   16     -0.76      0.00
  -17    8   16     -0.03      0.00
  -16    8   16      1.00      0.00
  -15    8   16     -0.93      0.00
  -14    8   16      3.05      0.00
  -13    8   16      0.77      0.00
    7    8   16      0.23      0.00
    8    8   16      1.13      0.00
    9    8   16     -0.79      0.00
   10    8   16      0.88      0.00
   11    8   16     -0.05      0.00
  -16    9   16     -1.04      0.00
  -15    9   16      1.27      0.00
  -14    9   16     -0.42      0.00
  -13    9   16     -0.39      0.00
  -12    9   16      1.14      0.00
  -11    9   16      1.75      0.00
    6    9   16      0.85      0.00
    7    9   16     -0.70      0.00
    8    9   16     -1.14      0.00
    9    9   16      0.35      0.00
   10    9   16      0.65      0.00
   11    9   16      0.37      0.00
  -15   10   16     -0.47      0.00
  -14   10   16     -0.17      0.00
  -13   10   16     -0.15      0.00
  -12   10   16      0.17      0.00
  -11   10   16      0.06      0.00
  -10   10   16     -0.44      0.00
   -9   10   16      1.44      0.00
    4   10   16      2.53      0.00
    5   10   16     -0.81      0.00
    6   10   16      0.54      0.00
    7   10   16     -0.92      0.00
    8   10   16     -0.37      0.00
    9   10   16      0.49      0.00
   10   10   16      0.10      0.00
  -14   11   16     -0.68      0.00
  -13   11   16      0.00      0.00
  -12   11   16     -0.55      0.00
  -11   11   16     -0.10      0.00
  -10   11   16      0.53      0.00
   -9   11   16      2.59      0.00
   -8   11   16     -0.79      0.00
   -7   11   16      1.75      0.00
   -6   11   16     -1.96      0.00
    0   11   16     -0.76      0.00
    1   11   16     -0.33      0.00
    2   11   16     -0.96      0.00
    3   11   16     -0.21      0.00
    4   11   16     -2.16      0.00
    5   11   16      1.07      0.00
    6   11   16     -0.01      0.00
    7   11   16      0.21      0.00
    8   11   16     -0.66      0.00
  -12   12   16     -0.21      0.00
  -11   12   16      0.72      0.00
  -10   12   16     -0.38      0.00
   -9   12   16     -0.66      0.00
   -8   12   16      2.54      0.00
   -7   12   16      0.50      0.00
   -6   12   16      1.23      0.00
   -5   12   16      0.34      0.00
   -4   12   16      0.57      0.00
   -3   12   16     -0.42      0.00
   -2   12   16      0.00      0.00
   -1   12   16     -1.90      0.00
    0   12   16      0.84      0.00
    1   12   16      0.39      0.00
    2   12   16     -0.91      0.00
    3   12   16     -1.37      0.00
    4   12   16      0.19      0.00
    5   12   16     -1.33      0.00
    6   12   16      0.56      0.00
    7   12   16     -0.49      0.00
  -10   13   16     -0.44      0.00
   -9   13   16     -0.24      0.00
   -8   13   16      1.70      0.00
   -7   13   16      0.79      0.00
   -6   13   16      0.46      0.00
   -5   13   16      0.29      0.00
   -4   13   16      1.52      0.00
   -3   13   16      2.33      0.00
   -2   13   16     -0.96      0.00
   -1   13   16     -0.63      0.00
    0   13   16      0.00      0.00
    1   13   16      0.99      0.00
    2   13   16     -0.88      0.00
    3   13   16     -0.03      0.00
    4   13   16     -0.61      0.00
    5   13   16     -0.08      0.00
   -7   14   16      0.69      0.00
   -6   14   16      0.70      0.00
   -5   14   16      0.56      0.00
   -4   14   16      0.54      0.00
   -3   14   16      0.04      0.00
   -2   14   16      0.33      0.00
   -1   14   16     -0.44      0.00
    0   14   16     -0.64      0.00
    1   14   16     -0.21      0.00
  -17    0   17     -0.37      0.00
   11    0   17      0.22      0.00
   13    0   17     -0.41      0.00
  -18    1   17     -1.81      0.00
  -17    1   17     -0.36      0.00
  -16    1   17      1.13      0.00
   10    1   17     -0.36      0.00
   11    1   17      0.65      0.00
   12    1   17     -0.04      0.00
   13    1   17      0.49      0.00
   14    1   17      0.56      0.00
  -18    2   17      0.06      0.00
  -17    2   17     -2.72      0.00
  -16    2   17      0.55      0.00
   10    2   17     -0.11      0.00
   11    2   17     -0.79      0.00
   12    2   17      1.85      0.00
   13    2   17     -0.11      0.00
  -18    3   17     -1.92      0.00
  -17    3   17      1.56      0.00
  -16    3   17     -0.61      0.00
   10    3   17     -1.44      0.00
   11    3   17      1.54      0.00
   12    3   17     -1.24      0.00
   13    3   17      0.57      0.00
  -18    4   17      1.50      0.00
  -17    4   17     -1.58      0.00
  -16    4   17     -2.21      0.00
  -15    4   17      1.35      0.00
    9    4   17     -0.74      0.00
   10    4   17      0.54      0.00
   11    4   17     -1.00      0.00
   12    4   17      1.14      0.00
   13    4   17     -0.74      0.00
  -18    5   17     -0.53      0.00
  -17    5   17     -0.74      0.00
  -16    5   17      1.43      0.00
  -15    5   17     -3.40      0.00
    9    5   17      0.22      0.00
   10    5   17     -1.44      0.00
   11    5   17      1.03      0.00
   12    5   17     -0.53      0.00
   13    5   17     -0.17      0.00
  -18    6   17     -0.13      0.00
  -17    6   17      1.49      0.00
  -16    6   17     -3.26      0.00
  -15    6   17     -0.05      0.00
  -14    6   17     -0.52      0.00
    8    6   17      0.78      0.00
    9    6   17     -1.01      0.00
   10    6   17     -0.12      0.00
   11    6   17     -0.80      0.00
   12    6   17      0.78      0.00
  -17    7   17     -1.02      0.00
  -16    7   17      1.57      0.00
  -15    7   17     -1.70      0.00
  -14    7   17     -1.99      0.00
  -13    7   17     -1.04      0.00
    7    7   17     -0.51      0.00
    8    7   17     -0.12      0.00
    9    7   17      1.25      0.00
   10    7   17     -1.07      0.00
   11    7   17      0.18      0.00
  -17    8   17      0.39      0.00
  -16    8   17     -0.25      0.00
  -15    8   17     -0.87      0.00
  -14    8   17      0.87      0.00
  -13    8   17     -0.89      0.00
  -12    8   17     -1.19      0.00
    6    8   17      0.82      0.00
    7    8   17     -0.29      0.00
    8    8   17      1.23      0.00
    9    8   17     -1.01      0.00
   10    8   17      0.11      0.00
   11    8   17     -0.85      0.00
  -16    9   17      0.27      0.00
  -15    9   17      0.73      0.00
  -14    9   17     -0.74      0.00
  -13    9   17     -0.01      0.00
  -12    9   17      0.34      0.00
  -11    9   17     -0.08      0.00
  -10    9   17     -0.32      0.00
    4    9   17     -1.73      0.00
    5    9   17      2.31      0.00
    6    9   17     -1.25      0.00
    7    9   17      0.04      0.00
    8    9   17     -0.49      0.00
    9    9   17      0.28      0.00
   10    9   17      0.05      0.00
  -15   10   17      0.23      0.00
  -14   10   17      0.24      0.00
  -13   10   17      1.16      0.00
  -12   10   17     -0.23      0.00
  -11   10   17      0.34      0.00
  -10   10   17     -1.73      0.00
   -9   10   17      0.31      0.00
   -8   10   17     -0.99      0.00
    2   10   17      1.32      0.00
    3   10   17      0.63      0.00
    4   10   17      2.94      0.00
    5   10   17     -1.90      0.00
    6   10   17     -0.01      0.00
    7   10   17     -0.13      0.00
    8   10   17      0.69      0.00
    9   10   17      0.24      0.00
  -13   11   17      0.04      0.00
  -12   11   17     -0.33      0.00
  -11   11   17     -0.05      0.00
  -10   11   17      1.53      0.00
   -9   11   17     -0.39      0.00
   -8   11   17     -3.12      0.00
   -7   11   17      0.92      0.00
   -6   11   17     -0.88      0.00
   -5   11   17      1.67      0.00
   -4   11   17     -1.51      0.00
   -3   11   17      0.82      0.00
   -2   11   17      0.59      0.00
   -1   11   17      1.14      0.00
    0   11   17     -1.47      0.00
    1   11   17      0.97      0.00
    2   11   17      0.77      0.00
    3   11   17      1.80      0.00
    4   11   17     -0.92      0.00
    5   11   17      2.43      0.00
    6   11   17     -0.95      0.00
    7   11   17      0.42      0.00
  -11   12   17      0.52      0.00
  -10   12   17     -0.05      0.00
   -9   12   17     -0.57      0.00
   -8   12   17      0.54      0.00
   -7   12   17     -2.38      0.00
   -6   12   17      1.94      0.00
   -5   12   17     -1.23      0.00
   -4   12   17     -0.51      0.00
   -3   12   17     -1.30      0.00
   -2   12   17      0.34      0.00
   -1   12   17     -0.54      0.00
    0   12   17      0.36      0.00
    1   12   17     -1.22      0.00
    2   12   17      0.61      0.00
    3   12   17     -0.53      0.00
    4   12   17      1.73      0.00
    5   12   17     -0.76      0.00
   -9   13   17      1.14      0.00
   -8   13   17     -0.11      0.00
   -7   13   17     -0.71      0.00
   -6   13   17     -0.79      0.00
   -5   13   17      0.31      0.00
   -4   13   17      0.07      0.00
   -3   13   17      0.15      0.00
   -2   13   17     -1.95      0.00
   -1   13   17      0.66      0.00
    0   13   17     -0.49      0.00
    1   13   17      0.08      0.00
    2   13   17     -0.68      0.00
    3   13   17      0.72      0.00
   -4   14   17      0.50      0.00
   -3   14   17     -0.59      0.00
   -2   14   17     -0.14      0.00
  -18    0   18      0.94      0.00
  -16    0   18     -0.70      0.00
   10    0   18     -0.03      0.00
   12    0   18     -1.20      0.00
  -18    1   18      0.46      0.00
  -17    1   18      0.97      0.00
  -16    1   18      0.47      0.00
    9    1   18      0.20      0.00
   10    1   18      1.21      0.00
   11    1   18     -0.64      0.00
   12    1   18     -0.18      0.00
   13    1   18     -0.44      0.00
  -18    2   18      0.52      0.00
  -17    2   18     -0.59      0.00
  -16    2   18      0.83      0.00
  -15    2   18     -1.17      0.00
    9    2   18      1.36      0.00
   10    2   18      0.52      0.00
   11    2   18      0.52      0.00
   12    2   18     -0.12      0.00
   13    2   18     -0.41      0.00
  -18    3   18     -0.98      0.00
  -17    3   18      2.74      0.00
  -16    3   18     -1.37      0.00
  -15    3   18      0.63      0.00
    9    3   18      0.10      0.00
   10    3   18      0.85      0.00
   11    3   18      0.74      0.00
   12    3   18     -0.78      0.00
  -18    4   18      1.01      0.00
  -17    4   18     -2.08      0.00
  -16    4   18      2.39      0.00
  -15    4   18      0.85      0.00
    8    4   18     -1.49      0.00
    9    4   18      0.03      0.00
   10    4   18      1.13      0.00
   11    4   18     -0.68      0.00
   12    4   18      1.01      0.00
  -18    5   18     -0.99      0.00
  -17    5   18      1.22      0.00
  -16    5   18      1.11      0.00
  -15    5   18      0.96      0.00
  -14    5   18     -0.48      0.00
    8    5   18     -1.60      0.00
    9    5   18      0.50      0.00
   10    5   18      0.13      0.00
   11    5   18      0.82      0.00
   12    5   18     -0.70      0.00
  -18    6   18      0.06      0.00
  -17    6   18     -0.25      0.00
  -16    6   18     -0.96      0.00
  -15    6   18      2.21      0.00
  -14    6   18      1.82      0.00
  -13    6   18     -0.12      0.00
    7    6   18     -0.08      0.00
    8    6   18     -0.25      0.00
    9    6   18     -1.03      0.00
   10    6   18      1.22      0.00
   11    6   18     -0.06      0.00
  -17    7   18     -0.65      0.00
  -16    7   18      1.07      0.00
  -15    7   18     -0.60      0.00
  -14    7   18      0.11      0.00
  -13    7   18      0.85      0.00
  -12    7   18      2.37      0.00
    6    7   18     -1.27      0.00
    7    7   18      1.00      0.00
    8    7   18     -0.64      0.00
    9    7   18      0.46      0.00
   10    7   18     -0.28      0.00
   11    7   18      0.25      0.00
  -16    8   18     -1.08      0.00
  -15    8   18      0.56      0.00
  -14    8   18      0.92      0.00
  -13    8   18     -0.69      0.00
  -12    8   18      0.49      0.00
  -11    8   18     -0.81      0.00
    5    8   18     -1.63      0.00
    6    8   18      1.53      0.00
    7    8   18      0.18      0.00
    8    8   18      0.86      0.00
    9    8   18     -1.18      0.00
   10    8   18      0.06      0.00
  -15    9   18     -0.13      0.00
  -14    9   18     -0.79      0.00
  -13    9   18     -0.41      0.00
  -12    9   18      0.05      0.00
  -11    9   18      0.90      0.00
  -10    9   18     -0.25      0.00
   -9    9   18      0.27      0.00
    2    9   18      1.34      0.00
    3    9   18     -2.84      0.00
    4    9   18     -0.88      0.00
    5    9   18      1.67      0.00
    6    9   18     -0.99      0.00
    7    9   18      0.84      0.00
    8    9   18     -0.95      0.00
    9    9   18      0.74      0.00
  -14   10   18      0.19      0.00
  -13   10   18      0.55      0.00
  -12   10   18     -0.80      0.00
  -11   10   18     -0.36      0.00
  -10   10   18     -1.96      0.00
   -9   10   18      2.57      0.00
   -8   10   18      0.36      0.00
   -7   10   18      0.73      0.00
   -6   10   18     -3.23      0.00
   -5   10   18      1.72      0.00
   -4   10   18     -1.31      0.00
   -3   10   18     -1.89      0.00
   -2   10   18     -1.14      0.00
   -1   10   18     -0.29      0.00
    0   10   18      0.90      0.00
    1   10   18     -0.17      0.00
    2   10   18     -1.13      0.00
    3   10   18     -0.29      0.00
    4   10   18     -0.10      0.00
    5   10   18     -2.47      0.00
    6   10   18      1.13      0.00
    7   10   18     -0.19      0.00
    8   10   18      0.39      0.00
  -12   11   18      0.29      0.00
  -11   11   18     -0.08      0.00
  -10   11   18      0.58      0.00
   -9   11   18     -1.45      0.00
   -8   11   18      1.04      0.00
   -7   11   18      0.45      0.00
   -6   11   18     -0.74      0.00
   -5   11   18     -0.44      0.00
   -4   11   18     -0.80      0.00
   -3   11   18     -0.17      0.00
   -2   11   18     -0.62      0.00
   -1   11   18      0.52      0.00
    0   11   18      0.11      0.00
    1   11   18      1.64      0.00
    2   11   18      0.11      0.00
    3   11   18     -0.02      0.00
    4   11   18     -1.49      0.00
    5   11   18      1.01      0.00
    6   11   18     -0.54      0.00
  -10   12   18     -1.35      0.00
   -9   12   18     -0.74      0.00
   -8   12   18      1.37      0.00
   -7   12   18     -0.04      0.00
   -6   12   18      1.26      0.00
   -5   12   18     -2.29      0.00
   -4   12   18     -0.62      0.00
   -3   12   18     -0.21      0.00
   -2   12   18      1.05      0.00
   -1   12   18      0.38      0.00
    0   12   18      1.16      0.00
    1   12   18      0.17      0.00
    2   12   18      0.81      0.00
    3   12   18     -0.30      0.00
    4   12   18      1.45      0.00
   -7   13   18      0.64      0.00
   -6   13   18     -0.75      0.00
   -5   13   18     -0.14      0.00
   -4   13   18     -0.87      0.00
   -3   13   18     -0.09      0.00
   -2   13   18     -0.32      0.00
   -1   13   18      0.52      0.00
    0   13   18     -0.59      0.00
    1   13   18      1.05      0.00
  -17    0   19     -0.32      0.00
  -15    0   19      2.61      0.00
    9    0   19     -0.45      0.00
   11    0   19     -0.60      0.00
  -18    1   19      0.16      0.00
  -17    1   19     -0.50      0.00
  -16    1   19      0.62      0.00
  -15    1   19     -0.57      0.00
    8    1   19      0.41      0.00
    9    1   19     -0.92      0.00
   10    1   19     -0.97      0.00
   11    1   19     -1.22      0.00
   12    1   19      0.63      0.00
  -18    2   19     -0.57      0.00
  -17    2   19     -0.17      0.00
  -16    2   19     -0.39      0.00
  -15    2   19      1.22      0.00
    8    2   19      1.07      0.00
    9    2   19      0.22      0.00
   10    2   19     -1.77      0.00
   11    2   19      0.04      0.00
   12    2   19     -0.71      0.00
  -18    3   19      0.56      0.00
  -17    3   19      0.42      0.00
  -16    3   19     -1.89      0.00
  -15    3   19     -0.13      0.00
  -14    3   19     -1.19      0.00
    8    3   19      1.69      0.00
    9    3   19     -0.24      0.00
   10    3   19      0.03      0.00
   11    3   19     -0.83      0.00
   12    3   19     -0.20      0.00
  -18    4   19      0.13      0.00
  -17    4   19     -1.82      0.00
  -16    4   19      0.77      0.00
  -15    4   19     -2.32      0.00
  -14    4   19      0.73      0.00
    7    4   19      0.22      0.00
    8    4   19      1.84      0.00
    9    4   19      0.92      0.00
   10    4   19     -0.99      0.00
   11    4   19     -0.23      0.00
  -18    5   19      0.05      0.00
  -17    5   19      1.46      0.00
  -16    5   19     -1.38      0.00
  -15    5   19     -0.79      0.00
  -14    5   19     -2.24      0.00
  -13    5   19      2.19      0.00
    7    5   19      0.00      0.00
    8    5   19      0.46      0.00
    9    5   19      0.28      0.00
   10    5   19     -0.92      0.00
   11    5   19      0.09      0.00
  -17    6   19     -0.14      0.00
  -16    6   19      0.37      0.00
  -15    6   19     -0.15      0.00
  -14    6   19      0.66      0.00
  -13    6   19     -2.32      0.00
  -12    6   19     -0.66      0.00
    6    6   19      0.85      0.00
    7    6   19     -1.80      0.00
    8    6   19      0.83      0.00
    9    6   19     -0.16      0.00
   10    6   19      0.56      0.00
  -16    7   19      0.70      0.00
  -15    7   19     -0.65      0.00
  -14    7   19     -0.95      0.00
  -13    7   19      1.34      0.00
  -12    7   19     -0.32      0.00
  -11    7   19     -1.40      0.00
    4    7   19      0.00      0.00
    5    7   19      0.76      0.00
    6    7   19     -0.58      0.00
    7    7   19      0.05      0.00
    8    7   19     -0.68      0.00
    9    7   19      1.36      0.00
   10    7   19     -0.17      0.00
  -15    8   19      0.65      0.00
  -14    8   19      0.54      0.00
  -13    8   19     -0.65      0.00
  -12    8   19      0.38      0.00
  -11    8   19     -1.60      0.00
  -10    8   19      2.24      0.00
   -9    8   19     -3.61      0.00
    3    8   19      2.31      0.00
    4    8   19     -1.11      0.00
    5    8   19     -0.25      0.00
    6    8   19      1.30      0.00
    7    8   19     -1.16      0.00
    8    8   19      0.25      0.00
    9    8   19     -0.90      0.00
  -14    9   19     -0.87      0.00
  -13    9   19      0.88      0.00
  -12    9   19      0.26      0.00
  -11    9   19      1.93      0.00
  -10    9   19     -1.06      0.00
   -9    9   19     -0.17      0.00
   -8    9   19     -2.02      0.00
   -7    9   19      2.16      0.00
   -6    9   19      0.52      0.00
   -1    9   19      1.05      0.00
    0    9   19     -0.34      0.00
    1    9   19     -1.51      0.00
    2    9   19      1.87      0.00
    3    9   19     -1.61      0.00
    4    9   19      1.53      0.00
    5    9   19      1.55      0.00
    6    9   19     -1.25      0.00
    7    9   19      0.36      0.00
    8    9   19     -1.14      0.00
  -13   10   19      0.16      0.00
  -12   10   19     -0.51      0.00
  -11   10   19     -0.19      0.00
  -10   10   19      0.93      0.00
   -9   10   19      1.34      0.00
   -8   10   19     -1.78      0.00
   -7   10   19      0.23      0.00
   -6   10   19     -0.96      0.00
   -5   10   19      3.14      0.00
   -4   10   19     -1.11      0.00
   -3   10   19      2.97      0.00
   -2   10   19      1.69      0.00
   -1   10   19      0.30      0.00
    0   10   19     -1.03      0.00
    1   10   19     -0.79      0.00
    2   10   19     -1.63      0.00
    3   10   19      1.40      0.00
    4   10   19      0.15      0.00
    5   10   19     -0.63      0.00
    6   10   19      0.89      0.00
  -11   11   19      0.21      0.00
  -10   11   19      1.37      0.00
   -9   11   19     -0.79      0.00
   -8   11   19     -0.09      0.00
   -7   11   19     -2.34      0.00
   -6   11   19      1.77      0.00
   -5   11   19      0.08      0.00
   -4   11   19      2.03      0.00
   -3   11   19      0.55      0.00
   -2   11   19      0.18      0.00
   -1   11   19     -0.26      0.00
    0   11   19     -1.04      0.00
    1   11   19     -0.55      0.00
    2   11   19     -0.46      0.00
    3   11   19     -1.13      0.00
    4   11   19     -0.41      0.00
    5   11   19      0.95      0.00
   -9   12   19      0.91      0.00
   -8   12   19      0.10      0.00
   -7   12   19     -1.09      0.00
   -6   12   19     -0.34      0.00
   -5   12   19     -0.06      0.00
   -4   12   19      1.02      0.00
   -3   12   19      1.39      0.00
   -2   12   19      0.47      0.00
   -1   12   19     -0.21      0.00
    0   12   19     -0.31      0.00
    1   12   19     -0.96      0.00
    2   12   19     -0.22      0.00
   -4   13   19      1.02      0.00
   -3   13   19      1.04      0.00
  -18    0   20      0.14      0.00
  -16    0   20      0.09      0.00
  -14    0   20     -1.98      0.00
    8    0   20      0.32      0.00
   10    0   20      2.05      0.00
  -18    1   20      0.45      0.00
  -17    1   20      0.22      0.00
  -16    1   20      0.69      0.00
  -15    1   20     -1.51      0.00
  -14    1   20     -0.53      0.00
    7    1   20      0.83      0.00
    8    1   20     -0.25      0.00
    9    1   20      0.38      0.00
   10    1   20      0.42      0.00
   11    1   20      1.33      0.00
  -18    2   20     -0.44      0.00
  -17    2   20      1.10      0.00
  -16    2   20     -0.19      0.00
  -15    2   20      1.72      0.00
  -14    2   20     -0.34      0.00
    7    2   20     -0.57      0.00
    8    2   20     -0.78      0.00
    9    2   20     -0.58      0.00
   10    2   20      0.27      0.00
   11    2   20      0.77      0.00
  -18    3   20      0.84      0.00
  -17    3   20     -0.01      0.00
  -16    3   20      1.02      0.00
  -15    3   20      0.91      0.00
  -14    3   20      0.38      0.00
  -13    3   20      0.78      0.00
    6    3   20     -0.03      0.00
    7    3   20     -0.36      0.00
    8    3   20     -2.34      0.00
    9    3   20     -1.01      0.00
   10    3   20      0.72      0.00
   11    3   20     -0.11      0.00
  -17    4   20     -0.03      0.00
  -16    4   20      1.13      0.00
  -15    4   20      0.54      0.00
  -14    4   20      1.34      0.00
  -13    4   20     -0.70      0.00
    6    4   20     -1.13      0.00
    7    4   20      0.61      0.00
    8    4   20     -0.57      0.00
    9    4   20      0.02      0.00
   10    4   20      0.07      0.00
  -17    5   20      0.15      0.00
  -16    5   20     -0.94      0.00
  -15    5   20      0.23      0.00
  -14    5   20      0.13      0.00
  -13    5   20      1.26      0.00
  -12    5   20     -1.03      0.00
    5    5   20     -1.56      0.00
    6    5   20      0.90      0.00
    7    5   20      1.28      0.00
    8    5   20     -0.29      0.00
    9    5   20     -0.83      0.00
   10    5   20      0.26      0.00
  -16    6   20     -0.05      0.00
  -15    6   20      0.07      0.00
  -14    6   20      0.33      0.00
  -13    6   20     -1.75      0.00
  -12    6   20      1.12      0.00
  -11    6   20      1.57      0.00
    4    6   20      1.43      0.00
    5    6   20     -0.78      0.00
    6    6   20     -0.45      0.00
    7    6   20      0.08      0.00
    8    6   20      0.39      0.00
    9    6   20     -0.90      0.00
  -16    7   20     -0.12      0.00
  -15    7   20     -0.46      0.00
  -14    7   20     -0.37      0.00
  -13    7   20      1.27      0.00
  -12    7   20     -0.48      0.00
  -11    7   20     -0.03      0.00
  -10    7   20      0.38      0.00
    2    7   20     -0.04      0.00
    3    7   20     -0.02      0.00
    4    7   20      0.36      0.00
    5    7   20      0.18      0.00
    6    7   20     -1.28      0.00
    7    7   20      1.29      0.00
    8    7   20     -0.15      0.00
    9    7   20      0.61      0.00
  -15    8   20      0.63      0.00
  -14    8   20      0.53      0.00
  -13    8   20     -1.49      0.00
  -12    8   20     -0.02      0.00
  -11    8   20     -1.09      0.00
  -10    8   20      1.60      0.00
   -9    8   20     -0.52      0.00
   -8    8   20      2.28      0.00
   -7    8   20     -1.84      0.00
    0    8   20      1.63      0.00
    1    8   20     -0.20      0.00
    2    8   20     -0.08      0.00
    3    8   20      0.25      0.00
    4    8   20     -0.50      0.00
    5    8   20     -0.55      0.00
    6    8   20      0.48      0.00
    7    8   20     -0.31      0.00
    8    8   20      0.85      0.00
  -13    9   20      1.05      0.00
  -12    9   20     -0.64      0.00
  -11    9   20      0.58      0.00
  -10    9   20     -2.94      0.00
   -9    9   20      1.10      0.00
   -8    9   20      0.27      0.00
   -7    9   20      2.95      0.00
   -6    9   20     -2.59      0.00
   -5    9   20      1.34      0.00
   -4    9   20     -0.09      0.00
   -3    9   20     -3.01      0.00
   -2    9   20     -2.55      0.00
   -1    9   20     -0.82      0.00
    0    9   20     -0.17      0.00
    1    9   20      1.09      0.00
    2    9   20      1.31      0.00
    3    9   20     -1.50      0.00
    4    9   20      0.49      0.00
    5    9   20      0.03      0.00
    6    9   20     -1.18      0.00
  -12   10   20     -0.10      0.00
  -11   10   20     -0.66      0.00
  -10   10   20     -0.07      0.00
   -9   10   20     -0.52      0.00
   -8   10   20      1.62      0.00
   -7   10   20      0.74      0.00
   -6   10   20     -0.36      0.00
   -5   10   20      0.78      0.00
   -4   10   20     -1.60      0.00
   -3   10   20      0.38      0.00
   -2   10   20     -1.76      0.00
   -1   10   20     -0.63      0.00
    0   10   20      0.31      0.00
    1   10   20      0.96      0.00
    2   10   20      0.05      0.00
    3   10   20      1.80      0.00
    4   10   20     -0.45      0.00
    5   10   20     -0.81      0.00
  -10   11   20     -0.38      0.00
   -9   11   20     -1.21      0.00
   -8   11   20      1.12      0.00
   -7   11   20      0.68      0.00
   -6   11   20      2.65      0.00
   -5   11   20     -1.27      0.00
   -4   11   20      0.57      0.00
   -3   11   20     -2.22      0.00
   -2   11   20     -0.73      0.00
   -1   11   20      0.19      0.00
    0   11   20      0.50      0.00
    1   11   20      0.63      0.00
    2   11   20      0.63      0.00
    3   11   20     -0.30      0.00
   -7   12   20      1.23      0.00
   -6   12   20      0.54      0.00
   -5   12   20      0.65      0.00
   -4   12   20     -0.96      0.00
   -3   12   20     -0.38      0.00
   -2   12   20     -0.34      0.00
   -1   12   20     -0.01      0.00
    0   12   20      0.04      0.00
  -17    0   21     -0.96      0.00
  -15    0   21      0.13      0.00
  -13    0   21     -1.05      0.00
    7    0   21     -1.59      0.00
    9    0   21     -0.14      0.00
  -18    1   21     -0.36      0.00
  -17    1   21     -0.30      0.00
  -16    1   21     -0.71      0.00
  -15    1   21     -1.00      0.00
  -14    1   21      0.51      0.00
  -13    1   21      1.97      0.00
    6    1   21      0.41      0.00
    7    1   21     -0.22      0.00
    8    1   21      0.03      0.00
    9    1   21      0.64      0.00
   10    1   21     -0.58      0.00
  -17    2   21     -0.39      0.00
  -16    2   21     -1.08      0.00
  -15    2   21     -0.02      0.00
  -14    2   21     -0.62      0.00
  -13    2   21     -1.85      0.00
    5    2   21      1.94      0.00
    6    2   21      0.65      0.00
    7    2   21      0.25      0.00
    8    2   21      1.61      0.00
    9    2   21      0.70      0.00
   10    2   21      0.25      0.00
  -17    3   21     -0.78      0.00
  -16    3   21      0.32      0.00
  -15    3   21     -1.06      0.00
  -14    3   21     -1.21      0.00
  -13    3   21      0.89      0.00
  -12    3   21      0.56      0.00
    5    3   21      1.47      0.00
    6    3   21      0.46      0.00
    7    3   21     -0.07      0.00
    8    3   21     -0.10      0.00
    9    3   21      0.94      0.00
   10    3   21     -0.04      0.00
  -17    4   21      0.55      0.00
  -16    4   21      0.09      0.00
  -15    4   21      0.21      0.00
  -14    4   21      0.01      0.00
  -13    4   21     -0.18      0.00
  -12    4   21      0.52      0.00
    4    4   21     -1.77      0.00
    5    4   21      0.49      0.00
    6    4   21     -1.22      0.00
    7    4   21     -1.29      0.00
    8    4   21      0.67      0.00
    9    4   21      0.28      0.00
  -16    5   21      0.09      0.00
  -15    5   21      0.48      0.00
  -14    5   21      1.10      0.00
  -13    5   21      0.06      0.00
  -12    5   21      0.20      0.00
  -11    5   21     -0.16      0.00
    3    5   21     -3.97      0.00
    4    5   21     -0.04      0.00
    5    5   21     -0.03      0.00
    6    5   21      1.22      0.00
    7    5   21     -1.09      0.00
    8    5   21     -0.36      0.00
    9    5   21      0.20      0.00
  -16    6   21      0.36      0.00
  -15    6   21      0.68      0.00
  -14    6   21     -0.57      0.00
  -13    6   21      0.09      0.00
  -12    6   21      0.44      0.00
  -11    6   21      0.49      0.00
  -10    6   21     -2.00      0.00
   -9    6   21     -0.87      0.00
    2    6   21     -1.35      0.00
    3    6   21      1.90      0.00
    4    6   21     -1.18      0.00
    5    6   21      0.26      0.00
    6    6   21      0.59      0.00
    7    6   21     -0.67      0.00
    8    6   21      0.14      0.00
  -15    7   21     -0.51      0.00
  -14    7   21      0.32      0.00
  -13    7   21      0.89      0.00
  -12    7   21     -0.11      0.00
  -11    7   21     -0.56      0.00
  -10    7   21      0.33      0.00
   -9    7   21     -1.20      0.00
   -8    7   21     -1.09      0.00
   -7    7   21     -2.03      0.00
   -1    7   21      1.66      0.00
    0    7   21     -0.18      0.00
    1    7   21     -0.53      0.00
    2    7   21      1.18      0.00
    3    7   21     -0.15      0.00
    4    7   21     -0.77      0.00
    5    7   21      0.59      0.00
    6    7   21      0.11      0.00
    7    7   21      0.62      0.00
  -14    8   21     -0.69      0.00
  -13    8   21     -0.90      0.00
  -12    8   21      0.77      0.00
  -11    8   21      0.55      0.00
  -10    8   21      1.52      0.00
   -9    8   21     -0.79      0.00
   -8    8   21     -2.19      0.00
   -7    8   21     -0.75      0.00
   -6    8   21      0.50      0.00
   -5    8   21     -2.61      0.00
   -4    8   21      0.60      0.00
   -3    8   21      1.05      0.00
   -2    8   21      1.99      0.00
   -1    8   21      1.98      0.00
    0    8   21      0.96      0.00
    1    8   21     -1.71      0.00
    2    8   21      0.26      0.00
    3    8   21      0.51      0.00
    4    8   21      0.35      0.00
    5    8   21     -0.23      0.00
    6    8   21      1.13      0.00
  -12    9   21     -0.55      0.00
  -11    9   21      0.78      0.00
  -10    9   21     -0.20      0.00
   -9    9   21      1.21      0.00
   -8    9   21     -1.77      0.00
   -7    9   21      0.00      0.00
   -6    9   21     -2.13      0.00
   -5    9   21      0.99      0.00
   -4    9   21     -2.57      0.00
   -3    9   21     -0.02      0.00
   -2    9   21      1.67      0.00
   -1    9   21      1.67      0.00
    0    9   21     -0.71      0.00
    1    9   21      0.10      0.00
    2    9   21     -0.78      0.00
    3    9   21     -0.72      0.00
    4    9   21      0.41      0.00
    5    9   21      0.48      0.00
  -11   10   21     -0.59      0.00
  -10   10   21      1.09      0.00
   -9   10   21      0.35      0.00
   -8   10   21     -0.06      0.00
   -7   10   21     -2.76      0.00
   -6   10   21     -0.08      0.00
   -5   10   21     -0.89      0.00
   -4   10   21     -0.13      0.00
   -3   10   21      0.99      0.00
   -2   10   21      0.07      0.00
   -1   10   21      0.14      0.00
    0   10   21     -0.15      0.00
    1   10   21     -0.32      0.00
    2   10   21     -0.59      0.00
    3   10   21      0.25      0.00
   -8   11   21     -0.05      0.00
   -7   11   21     -1.32      0.00
   -6   11   21     -0.25      0.00
   -5   11   21     -1.25      0.00
   -4   11   21      0.53      0.00
   -3   11   21     -0.55      0.00
   -2   11   21      0.90      0.00
   -1   11   21      0.29      0.00
    0   11   21     -0.11      0.00
    1   11   21      0.05      0.00
  -16    0   22      1.04      0.00
  -14    0   22     -0.68      0.00
  -12    0   22      1.61      0.00
    4    0   22     -0.75      0.00
    6    0   22     -0.63      0.00
    8    0   22      0.67      0.00
  -17    1   22      0.76      0.00
  -16    1   22     -0.12      0.00
  -15    1   22      0.35      0.00
  -14    1   22      0.52      0.00
  -13    1   22      1.04      0.00
  -12    1   22     -2.04      0.00
    4    1   22      1.35      0.00
    5    1   22     -2.60      0.00
    6    1   22     -0.35      0.00
    7    1   22      0.23      0.00
    8    1   22     -0.46      0.00
    9    1   22     -0.59      0.00
  -17    2   22     -0.16      0.00
  -16    2   22      0.11      0.00
  -15    2   22      0.56      0.00
  -14    2   22      0.60      0.00
  -13    2   22     -1.72      0.00
  -12    2   22      1.67      0.00
  -11    2   22     -2.49      0.00
    4    2   22     -1.20      0.00
    5    2   22     -0.13      0.00
    6    2   22     -1.41      0.00
    7    2   22      0.24      0.00
    8    2   22     -0.25      0.00
    9    2   22     -0.61      0.00
  -16    3   22      0.07      0.00
  -15    3   22     -1.00      0.00
  -14    3   22     -0.79      0.00
  -13    3   22      1.65      0.00
  -12    3   22     -2.13      0.00
  -11    3   22     -0.35      0.00
    3    3   22      0.58      0.00
    4    3   22      1.86      0.00
    5    3   22      0.01      0.00
    6    3   22      0.45      0.00
    7    3   22      0.82      0.00
    8    3   22     -0.42      0.00
    9    3   22      0.01      0.00
  -16    4   22     -0.59      0.00
  -15    4   22     -1.10      0.00
  -14    4   22     -0.41      0.00
  -13    4   22     -1.14      0.00
  -12    4   22     -0.33      0.00
  -11    4   22     -1.55      0.00
  -10    4   22     -1.05      0.00
    2    4   22     -0.69      0.00
    3    4   22      2.58      0.00
    4    4   22     -0.06      0.00
    5    4   22     -0.16      0.00
    6    4   22     -0.33      0.00
    7    4   22      1.34      0.00
    8    4   22      1.12      0.00
  -15    5   22     -0.24      0.00
  -14    5   22     -0.42      0.00
  -13    5   22     -0.87      0.00
  -12    5   22     -0.20      0.00
  -11    5   22     -0.47      0.00
  -10    5   22      0.80      0.00
   -9    5   22     -0.08      0.00
    1    5   22     -0.39      0.00
    2    5   22      0.54      0.00
    3    5   22     -2.91      0.00
    4    5   22      2.17      0.00
    5    5   22     -0.99      0.00
    6    5   22      0.20      0.00
    7    5   22      0.06      0.00
    8    5   22     -0.41      0.00
  -15    6   22      0.14      0.00
  -14    6   22     -1.06      0.00
  -13    6   22      0.51      0.00
  -12    6   22     -0.16      0.00
  -11    6   22      0.50      0.00
  -10    6   22     -1.05      0.00
   -9    6   22      1.79      0.00
   -8    6   22      1.79      0.00
   -7    6   22      2.00      0.00
   -6    6   22     -3.40      0.00
   -5    6   22      2.12      0.00
   -2    6   22     -2.30      0.00
   -1    6   22     -0.61      0.00
    0    6   22     -0.32      0.00
    1    6   22      1.29      0.00
    2    6   22     -2.69      0.00
    3    6   22      2.07      0.00
    4    6   22     -0.77      0.00
    5    6   22      0.14      0.00
    6    6   22     -1.39      0.00
    7    6   22     -0.22      0.00
  -14    7   22      1.27      0.00
  -13    7   22     -0.09      0.00
  -12    7   22     -0.30      0.00
  -11    7   22     -0.99      0.00
  -10    7   22      0.36      0.00
   -9    7   22      0.10      0.00
   -8    7   22      2.49      0.00
   -7    7   22     -0.66      0.00
   -6    7   22      2.70      0.00
   -5    7   22     -0.14      0.00
   -4    7   22      1.14      0.00
   -3    7   22      0.04      0.00
   -2    7   22     -0.65      0.00
   -1    7   22     -3.02      0.00
    0    7   22      0.61      0.00
    1    7   22      0.22      0.00
    2    7   22      0.94      0.00
    3    7   22     -2.14      0.00
    4    7   22      0.33      0.00
    5    7   22      0.42      0.00
    6    7   22     -0.96      0.00
  -13    8   22      0.35      0.00
  -12    8   22      0.34      0.00
  -11    8   22     -0.08      0.00
  -10    8   22     -0.77      0.00
   -9    8   22     -0.62      0.00
   -8    8   22      0.26      0.00
   -7    8   22      2.73      0.00
   -6    8   22     -0.88      0.00
   -5    8   22      1.65      0.00
   -4    8   22      2.39      0.00
   -3    8   22      1.01      0.00
   -2    8   22     -1.64      0.00
   -1    8   22     -0.43      0.00
    0    8   22     -0.42      0.00
    1    8   22      0.59      0.00
    2    8   22      0.23      0.00
    3    8   22      0.11      0.00
    4    8   22      0.00      0.00
    5    8   22     -0.56      0.00
  -11    9   22      0.54      0.00
  -10    9   22     -0.98      0.00
   -9    9   22     -0.60      0.00
   -8    9   22      0.65      0.00
   -7    9   22      1.11      0.00
   -6    9   22     -0.07      0.00
   -5    9   22      0.82      0.00
   -4    9   22     -0.17      0.00
   -3    9   22      1.18      0.00
   -2    9   22      0.72      0.00
   -1    9   22     -0.55      0.00
    0    9   22     -0.34      0.00
    1    9   22      0.78      0.00
    2    9   22      0.11      0.00
    3    9   22      0.03      0.00
   -9   10   22     -0.60      0.00
   -8   10   22      0.34      0.00
   -7   10   22      0.06      0.00
   -6   10   22      1.08      0.00
   -5   10   22     -0.75      0.00
   -4   10   22      1.24      0.00
   -3   10   22     -0.04      0.00
   -2   10   22     -0.86      0.00
   -1   10   22     -0.07      0.00
    0   10   22      0.14      0.00
    1   10   22     -0.08      0.00
   -5   11   22      0.19      0.00
   -4   11   22     -0.29      0.00
   -3   11   22     -1.04      0.00
  -15    0   23     -0.24      0.00
  -13    0   23      0.70      0.00
  -11    0   23      0.58      0.00
    3    0   23     -3.55      0.00
    5    0   23      1.23      0.00
    7    0   23     -0.63      0.00
  -16    1   23     -0.27      0.00
  -15    1   23      0.09      0.00
  -14    1   23      0.71      0.00
  -13    1   23      0.41      0.00
  -12    1   23     -0.60      0.00
  -11    1   23      0.94      0.00
  -10    1   23     -0.50      0.00
    2    1   23     -2.36      0.00
    3    1   23     -0.37      0.00
    4    1   23     -0.51      0.00
    5    1   23     -0.08      0.00
    6    1   23      1.40      0.00
    7    1   23      0.40      0.00
    8    1   23     -0.43      0.00
  -16    2   23      0.63      0.00
  -15    2   23      1.05      0.00
  -14    2   23      0.12      0.00
  -13    2   23     -0.79      0.00
  -12    2   23      2.06      0.00
  -11    2   23     -0.33      0.00
  -10    2   23      2.35      0.00
   -9    2   23     -1.45      0.00
    1    2   23     -0.94      0.00
    2    2   23      0.80      0.00
    3    2   23     -1.80      0.00
    4    2   23     -1.76      0.00
    5    2   23      0.95      0.00
    6    2   23     -0.14      0.00
    7    2   23      0.13      0.00
    8    2   23      0.04      0.00
  -15    3   23      0.71      0.00
  -14    3   23      0.82      0.00
  -13    3   23      1.92      0.00
  -12    3   23     -0.64      0.00
  -11    3   23      2.67      0.00
  -10    3   23     -1.06      0.00
   -9    3   23      0.16      0.00
   -8    3   23      0.17      0.00
    0    3   23     -0.01      0.00
    1    3   23      1.35      0.00
    2    3   23     -1.65      0.00
    3    3   23     -0.06      0.00
    4    3   23     -0.39      0.00
    5    3   23     -0.12      0.00
    6    3   23     -0.07      0.00
    7    3   23     -1.28      0.00
  -15    4   23      0.52      0.00
  -14    4   23      1.68      0.00
  -13    4   23     -0.37      0.00
  -12    4   23      1.34      0.00
  -11    4   23      0.04      0.00
  -10    4   23      1.61      0.00
   -9    4   23     -0.07      0.00
   -8    4   23     -0.79      0.00
   -7    4   23     -0.91      0.00
   -1    4   23      0.52      0.00
    0    4   23      0.21      0.00
    1    4   23     -1.19      0.00
    2    4   23      2.30      0.00
    3    4   23      0.28      0.00
    4    4   23     -0.68      0.00
    5    4   23     -0.13      0.00
    6    4   23      0.32      0.00
    7    4   23     -0.18      0.00
  -14    5   23     -0.06      0.00
  -13    5   23      0.28      0.00
  -12    5   23     -0.31      0.00
  -11    5   23      0.87      0.00
  -10    5   23      0.32      0.00
   -9    5   23     -0.99      0.00
   -8    5   23     -2.18      0.00
   -7    5   23      0.07      0.00
   -6    5   23      1.50      0.00
   -5    5   23     -1.62      0.00
   -4    5   23     -0.31      0.00
   -3    5   23     -0.80      0.00
   -2    5   23     -0.02      0.00
   -1    5   23     -0.08      0.00
    0    5   23     -0.23      0.00
    1    5   23     -0.35      0.00
    2    5   23      0.53      0.00
    3    5   23     -0.84      0.00
    4    5   23      0.84      0.00
    5    5   23      0.27      0.00
    6    5   23      1.74      0.00
  -14    6   23     -0.72      0.00
  -13    6   23      0.41      0.00
  -12    6   23     -0.09      0.00
  -11    6   23      0.07      0.00
  -10    6   23     -0.28      0.00
   -9    6   23      0.23      0.00
   -8    6   23     -1.08      0.00
   -7    6   23     -0.92      0.00
   -6    6   23     -1.93      0.00
   -5    6   23      1.33      0.00
   -4    6   23     -1.48      0.00
   -3    6   23     -0.51      0.00
   -2    6   23      0.00      0.00
   -1    6   23      1.99      0.00
    0    6   23     -0.75      0.00
    1    6   23     -0.93      0.00
    2    6   23     -0.51      0.00
    3    6   23      2.57      0.00
    4    6   23     -1.70      0.00
    5    6   23      0.50      0.00
    6    6   23     -0.01      0.00
  -13    7   23     -1.03      0.00
  -12    7   23     -0.09      0.00
  -11    7   23     -0.25      0.00
  -10    7   23      1.20      0.00
   -9    7   23      0.25      0.00
   -8    7   23     -0.57      0.00
   -7    7   23     -2.25      0.00
   -6    7   23      1.71      0.00
   -5    7   23     -2.29      0.00
   -4    7   23     -0.86      0.00
   -3    7   23     -1.10      0.00
   -2    7   23      0.67      0.00
   -1    7   23      0.10      0.00
    0    7   23      0.84      0.00
    1    7   23     -1.43      0.00
    2    7   23      0.78      0.00
    3    7   23     -1.18      0.00
    4    7   23      0.89      0.00
    5    7   23     -0.22      0.00
  -11    8   23     -0.03      0.00
  -10    8   23      0.34      0.00
   -9    8   23      0.73      0.00
   -8    8   23     -0.38      0.00
   -7    8   23      0.57      0.00
   -6    8   23     -1.25      0.00
   -5    8   23      1.75      0.00
   -4    8   23     -1.60      0.00
   -3    8   23     -1.06      0.00
   -2    8   23     -1.60      0.00
   -1    8   23      1.57      0.00
    0    8   23     -0.61      0.00
    1    8   23     -0.07      0.00
    2    8   23     -1.03      0.00
    3    8   23      0.88      0.00
   -9    9   23      0.72      0.00
   -8    9   23      0.39      0.00
   -7    9   23     -0.87      0.00
   -6    9   23      1.04      0.00
   -5    9   23     -0.05      0.00
   -4    9   23      0.03      0.00
   -3    9   23     -0.07      0.00
   -2    9   23      0.70      0.00
   -1    9   23     -0.72      0.00
    0    9   23      0.34      0.00
    1    9   23     -0.14      0.00
   -6   10   23      0.02      0.00
   -5   10   23      0.41      0.00
   -4   10   23      1.34      0.00
   -3   10   23      0.19      0.00
   -2   10   23     -0.13      0.00
  -14    0   24     -0.87      0.00
  -12    0   24     -0.24      0.00
  -10    0   24     -1.51      0.00
   -8    0   24     -1.10      0.00
   -6    0   24      1.53      0.00
   -2    0   24     -4.78      0.00
    0    0   24      2.58      0.00
    2    0   24      1.31      0.00
    4    0   24      1.70      0.00
    6    0   24     -1.21      0.00
  -15    1   24     -0.38      0.00
  -14    1   24      0.23      0.00
  -13    1   24     -0.91      0.00
  -12    1   24     -0.41      0.00
  -11    1   24     -0.84      0.00
  -10    1   24      0.04      0.00
   -9    1   24     -0.11      0.00
   -8    1   24     -0.68      0.00
   -7    1   24     -0.43      0.00
   -6    1   24     -0.21      0.00
   -5    1   24      2.25      0.00
   -4    1   24      2.27      0.00
   -3    1   24     -2.37      0.00
   -2    1   24     -2.37      0.00
   -1    1   24     -1.75      0.00
    0    1   24     -1.12      0.00
    1    1   24      0.53      0.00
    2    1   24     -0.21      0.00
    3    1   24      2.12      0.00
    4    1   24      0.21      0.00
    5    1   24     -0.40      0.00
    6    1   24     -0.60      0.00
    7    1   24     -0.12      0.00
  -15    2   24     -0.55      0.00
  -14    2   24     -1.39      0.00
  -13    2   24     -0.52      0.00
  -12    2   24      0.01      0.00
  -11    2   24     -0.75      0.00
  -10    2   24      0.42      0.00
   -9    2   24     -0.88      0.00
   -8    2   24      0.34      0.00
   -7    2   24     -1.19      0.00
   -6    2   24      0.48      0.00
   -5    2   24      1.04      0.00
   -4    2   24      2.21      0.00
   -3    2   24      1.15      0.00
   -2    2   24     -0.31      0.00
   -1    2   24     -4.00      0.00
    0    2   24     -0.86      0.00
    1    2   24      0.38      0.00
    2    2   24      0.24      0.00
    3    2   24     -0.38      0.00
    4    2   24      0.31      0.00
    5    2   24      0.73      0.00
    6    2   24     -0.39      0.00
  -14    3   24     -0.64      0.00
  -13    3   24      0.01      0.00
  -12    3   24     -1.04      0.00
  -11    3   24     -0.56      0.00
  -10    3   24     -2.16      0.00
   -9    3   24      1.06      0.00
   -8    3   24      0.80      0.00
   -7    3   24      0.52      0.00
   -6    3   24     -2.01      0.00
   -5    3   24      1.23      0.00
   -4    3   24      1.71      0.00
   -3    3   24      3.83      0.00
   -2    3   24     -0.78      0.00
   -1    3   24      0.23      0.00
    0    3   24     -1.01      0.00
    1    3   24      0.23      0.00
    2    3   24     -1.85      0.00
    3    3   24      0.56      0.00
    4    3   24      0.64      0.00
    5    3   24      0.05      0.00
    6    3   24     -0.01      0.00
  -14    4   24     -0.08      0.00
  -13    4   24     -0.76      0.00
  -12    4   24      0.53      0.00
  -11    4   24     -1.24      0.00
  -10    4   24      0.04      0.00
   -9    4   24     -0.07      0.00
   -8    4   24      0.96      0.00
   -7    4   24     -0.32      0.00
   -6    4   24      0.13      0.00
   -5    4   24     -0.42      0.00
   -4    4   24      1.25      0.00
   -3    4   24      0.58      0.00
   -2    4   24      2.90      0.00
   -1    4   24     -0.84      0.00
    0    4   24      0.95      0.00
    1    4   24     -0.29      0.00
    2    4   24      1.37      0.00
    3    4   24     -1.04      0.00
    4    4   24      0.25      0.00
    5    4   24     -1.29      0.00
    6    4   24     -0.52      0.00
  -13    5   24      0.46      0.00
  -12    5   24      0.03      0.00
  -11    5   24      0.71      0.00
  -10    5   24     -0.95      0.00
   -9    5   24     -0.45      0.00
   -8    5   24      0.38      0.00
   -7    5   24      2.07      0.00
   -6    5   24     -0.08      0.00
   -5    5   24     -1.10      0.00
   -4    5   24      0.36      0.00
   -3    5   24      0.89      0.00
   -2    5   24      0.05      0.00
   -1    5   24     -0.46      0.00
    0    5   24      0.48      0.00
    1    5   24      1.78      0.00
    2    5   24     -1.08      0.00
    3    5   24     -0.10      0.00
    4    5   24      0.46      0.00
    5    5   24      0.26      0.00
  -12    6   24      0.45      0.00
  -11    6   24     -0.20      0.00
  -10    6   24     -0.30      0.00
   -9    6   24     -0.28      0.00
   -8    6   24      0.85      0.00
   -7    6   24      0.63      0.00
   -6    6   24     -0.87      0.00
   -5    6   24      0.96      0.00
   -4    6   24     -0.16      0.00
   -3    6   24      0.33      0.00
   -2    6   24     -0.14      0.00
   -1    6   24     -0.38      0.00
    0    6   24     -0.36      0.00
    1    6   24      0.56      0.00
    2    6   24      0.64      0.00
    3    6   24      0.42      0.00
    4    6   24     -0.56      0.00
  -11    7   24     -0.05      0.00
  -10    7   24      0.20      0.00
   -9    7   24     -0.88      0.00
   -8    7   24     -0.35      0.00
   -7    7   24     -0.13      0.00
   -6    7   24      0.59      0.00
   -5    7   24     -1.49      0.00
   -4    7   24      1.12      0.00
   -3    7   24      0.93      0.00
   -2    7   24      0.63      0.00
   -1    7   24     -0.83      0.00
    0    7   24     -0.16      0.00
    1    7   24      0.80      0.00
    2    7   24      0.65      0.00
    3    7   24     -1.30      0.00
   -9    8   24     -0.42      0.00
   -8    8   24     -0.46      0.00
   -7    8   24      0.65      0.00
   -6    8   24     -1.47      0.00
   -5    8   24      0.16      0.00
   -4    8   24     -1.16      0.00
   -3    8   24      0.42      0.00
   -2    8   24      0.04      0.00
   -1    8   24      0.80      0.00
    0    8   24     -0.73      0.00
    1    8   24      0.62      0.00
   -7    9   24      0.18      0.00
   -6    9   24      0.56      0.00
   -5    9   24     -2.07      0.00
   -4    9   24     -0.05      0.00
   -3    9   24     -0.46      0.00
   -2    9   24      0.48      0.00
    0    0    0      0.00      0.00
# SQUEEZE RESULTS (Version =  30715)
# Note: Data are Listed for all Voids in the P1 Unit Cell
# i.e. Centre of Gravity, Solvent Accessible Volume,
# Recovered number of Electrons in the Void and
# Details about the Squeezed Material
loop_
  _platon_squeeze_void_nr
  _platon_squeeze_void_average_x
  _platon_squeeze_void_average_y
  _platon_squeeze_void_average_z
  _platon_squeeze_void_volume
  _platon_squeeze_void_count_electrons
  _platon_squeeze_void_content
   1  0.000  0.000  0.500       324        92 ' '
   2  0.500  0.500  0.000       324        92 ' '
_platon_squeeze_void_probe_radius                  1.20
_platon_squeeze_details
)
TITL mo_gs30_01_a.res in P2(1)/n
CELL   16.8700   13.4875   21.6035     90.00    103.00     90.00
SPGR P21/n
# Solvent Accessible Volume =     662.9
# Electrons Found in S.A.V. =     184.5
# Note: Atoms in Void as Cxxx and Qxxx all others
C101 0.258 0.425 0.116 !       5.27 eA-3
C102 0.381 0.437 0.091 !       5.15 eA-3
C103 0.068 0.954 0.456 !       4.22 eA-3
C104 0.311 0.454 0.081 !       4.20 eA-3
C105 0.065 0.860 0.363 !       3.16 eA-3
Q106 0.340 0.345 0.434 !       1.47 eA-3
Q107 0.840 0.158 0.925 !       1.47 eA-3
Q108 0.348 0.390 0.408 !       1.35 eA-3
C109 0.017 0.782 0.361 !       1.08 eA-3
C110 0.112 0.996 0.491 !       0.97 eA-3
Q111 0.029 0.637 0.248 !       0.94 eA-3
Q112 0.390 0.473 0.423 !       0.90 eA-3
Q113 0.180 0.938 0.156 !       0.87 eA-3
Q114 0.185 0.911 0.458 !       0.85 eA-3
Q115 0.372 0.345 0.085 !       0.85 eA-3
Q116 0.497 0.051 0.340 !       0.82 eA-3
Q117 0.742 0.982 0.089 !       0.80 eA-3
Q118 0.795 0.794 0.473 !       0.79 eA-3
Q119 0.778 0.200 0.190 !       0.77 eA-3
Q120 0.850 0.440 0.352 !       0.77 eA-3
Q121 0.970 0.561 0.119 !       0.76 eA-3
Q122 0.213 0.815 0.377 !       0.75 eA-3
Q123 0.129 0.832 0.321 !       0.75 eA-3
C124 0.159 0.411 0.080 !       0.74 eA-3
Q125 0.719 0.144 0.038 !       0.74 eA-3
Q126 0.194 0.743 0.085 !       0.73 eA-3
Q127 0.352 0.802 0.092 !       0.72 eA-3
Q128 0.833 0.268 0.211 !       0.69 eA-3
Q129 0.180 0.395 0.501 !       0.69 eA-3
Q130 0.230 0.307 0.045 !       0.68 eA-3
Q131 0.626 0.546 0.205 !       0.67 eA-3
C132 0.386 0.404 0.197 !       0.66 eA-3
Q133 0.170 0.049 0.478 !       0.66 eA-3
C134 0.302 0.500 0.136 !       0.66 eA-3
Q135 0.470 0.703 0.144 !       0.66 eA-3
Q136 0.900 0.781 0.175 !       0.66 eA-3
Q137 0.091 0.989 0.127 !       0.65 eA-3
Q138 0.022 0.049 0.163 !       0.65 eA-3
Q139 0.019 0.840 0.448 !       0.65 eA-3
Q140 0.307 0.111 0.017 !       0.64 eA-3
Q141 0.317 0.299 0.262 !       0.64 eA-3
C142 0.252 0.019 0.405 !       0.64 eA-3
Q143 0.635 0.329 0.383 !       0.64 eA-3
Q144 0.291 0.777 0.112 !       0.64 eA-3
Q145 0.913 0.312 0.030 !       0.63 eA-3
Q146 0.422 0.496 0.148 !       0.62 eA-3
Q147 0.171 0.334 0.057 !       0.62 eA-3
Q148 0.414 0.747 0.100 !       0.62 eA-3
C149 0.075 0.047 0.463 !       0.62 eA-3
Q150 0.140 0.971 0.015 !       0.61 eA-3
Q151 0.253 0.419 0.484 !       0.61 eA-3
Q152 0.632 0.839 0.485 !       0.60 eA-3
Q153 0.278 0.763 0.014 !       0.60 eA-3
Q154 0.296 0.233 0.345 !       0.60 eA-3
Q155 0.761 0.222 0.503 !       0.60 eA-3
C156 0.330 0.353 0.099 !       0.60 eA-3
Q157 0.261 0.276 0.273 !       0.59 eA-3
Q158 0.535 0.106 0.352 !       0.59 eA-3
Q159 0.685 0.174 0.015 !       0.59 eA-3
C160 0.436 0.441 0.233 !       0.58 eA-3
Q161 0.536 0.236 0.077 !       0.58 eA-3
Q162 0.346 0.283 0.484 !       0.58 eA-3
Q163 0.141 0.782 0.413 !       0.57 eA-3
Q164 0.975 0.921 0.342 !       0.57 eA-3
Q165 0.302 0.094 0.107 !       0.57 eA-3
Q166 0.125 0.078 0.406 !       0.57 eA-3
C167 0.458 0.341 0.210 !       0.57 eA-3
Q168 0.616 0.074 0.125 !       0.56 eA-3
Q169 0.521 0.641 0.173 !       0.56 eA-3
Q170 0.860 0.894 0.024 !       0.56 eA-3
Q171 0.833 0.093 0.342 !       0.56 eA-3
Q172 0.643 0.800 0.931 !       0.56 eA-3
Q173 0.357 0.200 0.069 !       0.56 eA-3
C174 0.549 0.373 0.114 !       0.55 eA-3
Q175 0.026 0.451 0.188 !       0.55 eA-3
C176 0.161 0.500 0.069 !       0.55 eA-3
C177 0.839 0.500 0.931 !       0.55 eA-3
C178 0.339 1.000 0.428 !       0.55 eA-3
Q179 0.399 0.733 0.133 !       0.55 eA-3
Q180 0.306 0.294 0.067 !       0.55 eA-3
Q181 0.550 0.675 0.118 !       0.54 eA-3
Q182 0.631 0.636 0.468 !       0.54 eA-3
Q183 0.065 0.484 0.374 !       0.54 eA-3
Q184 0.606 0.438 0.145 !       0.53 eA-3
Q185 0.868 0.910 0.227 !       0.53 eA-3
Q186 0.682 0.770 0.430 !       0.53 eA-3
C187 0.483 0.441 0.219 !       0.53 eA-3
Q188 0.514 0.419 0.343 !       0.53 eA-3
Q189 0.470 0.608 0.068 !       0.53 eA-3
Q190 0.924 0.794 0.062 !       0.53 eA-3
Q191 0.222 0.046 0.118 !       0.53 eA-3
Q192 0.597 0.949 0.462 !       0.53 eA-3
Q193 0.677 0.778 0.956 !       0.53 eA-3
Q194 0.112 0.716 0.400 !       0.53 eA-3
Q195 0.065 0.906 0.150 !       0.52 eA-3
Q196 0.394 0.337 0.313 !       0.52 eA-3
Q197 1.000 0.247 0.405 !       0.52 eA-3
Q198 0.812 0.546 0.008 !       0.52 eA-3
Q199 0.039 0.232 0.042 !       0.52 eA-3
)
;
_shelx_fab_checksum              7493
loop_
_space_group_symop_operation_xyz
'x, y, z'
'-x+1/2, y+1/2, -z+1/2'
'-x, -y, -z'
'x-1/2, -y-1/2, z-1/2'
loop_
_atom_site_label
_atom_site_type_symbol
_atom_site_fract_x
_atom_site_fract_y
_atom_site_fract_z
_atom_site_U_iso_or_equiv
_atom_site_adp_type
_atom_site_occupancy
_atom_site_site_symmetry_order
_atom_site_calc_flag
_atom_site_refinement_flags_posn
_atom_site_refinement_flags_adp
Mn01 Mn 0.34273(5) 0.36606(5) 0.41523(4) 0.0184(3) Uani 1 1 d . .
N1 N 0.3956(3) 0.4808(4) 0.3765(3) 0.0461(15) Uani 1 1 d . .
N2 N 0.2333(3) 0.4433(4) 0.3908(3) 0.0451(15) Uani 1 1 d . .
N3 N 0.2931(3) 0.2823(4) 0.4771(2) 0.0421(14) Uani 1 1 d . .
N4 N 0.1837(3) 0.7662(4) 0.1645(2) 0.0373(13) Uani 1 1 d . .
N5 N 0.4548(3) 0.3246(4) 0.4670(2) 0.0402(14) Uani 1 1 d . .
N6 N 0.5107(4) -0.0393(5) 0.6676(3) 0.0677(19) Uani 1 1 d . .
C1 C 0.2416(4) 0.6383(5) 0.2664(3) 0.0402(16) Uani 1 1 d . .
C2 C 0.3563(4) 0.5505(5) 0.3340(3) 0.0435(18) Uani 1 1 d . .
C3 C 0.4775(4) 0.4860(5) 0.3749(3) 0.0450(18) Uani 1 1 d . .
C4 C 0.0144(4) 0.2523(5) 0.4180(3) 0.0417(17) Uani 1 1 d . .
C5 C 0.2160(4) 0.5186(5) 0.3472(3) 0.0398(17) Uani 1 1 d . .
C6 C 0.3320(4) 0.2102(5) 0.5184(3) 0.0446(18) Uani 1 1 d . .
C7 C 0.1599(4) 0.4153(5) 0.4036(3) 0.0476(18) Uani 1 1 d . .
C8 C 0.5300(4) 0.3564(5) 0.4563(3) 0.0420(17) Uani 1 1 d . .
C9 C 0.2740(4) 0.5678(5) 0.3194(3) 0.0430(18) Uani 1 1 d . .
C10 C 0.2113(4) 0.2761(5) 0.4790(3) 0.0484(19) Uani 1 1 d . .
C11 C -0.0645(4) 0.2325(5) 0.4277(3) 0.0442(18) Uani 1 1 d . .
C12 C 0.4732(4) 0.2507(5) 0.5121(3) 0.0409(17) Uani 1 1 d . .
C13 C 0.4147(4) 0.6018(5) 0.3059(3) 0.0512(19) Uani 1 1 d . .
H13 H 0.4033 0.6536 0.2754 0.061 Uiso 1 1 calc R U
C14 C 0.1293(4) 0.5390(5) 0.3323(3) 0.0506(19) Uani 1 1 d . .
H14 H 0.1011 0.5876 0.3038 0.061 Uiso 1 1 calc R U
C15 C 0.4903(4) 0.5618(5) 0.3315(3) 0.055(2) Uani 1 1 d . .
H15 H 0.5407 0.5806 0.3222 0.066 Uiso 1 1 calc R U
C16 C 0.5613(4) 0.2373(5) 0.5295(3) 0.0518(19) Uani 1 1 d . .
H16 H 0.5901 0.1905 0.5591 0.062 Uiso 1 1 calc R U
C17 C 0.2736(4) 0.1584(5) 0.5457(3) 0.0514(19) Uani 1 1 d . .
H17 H 0.2850 0.1056 0.5755 0.062 Uiso 1 1 calc R U
C18 C 0.7195(5) 0.3799(6) 0.3324(4) 0.058(2) Uani 1 1 d . .
C19 C 0.6409(4) 0.3736(6) 0.3486(3) 0.0496(19) Uani 1 1 d . .
C20 C 0.6224(4) 0.4329(5) 0.3965(3) 0.0482(19) Uani 1 1 d . .
C21 C 0.5397(4) 0.4272(5) 0.4108(3) 0.0462(18) Uani 1 1 d . .
C22 C 0.1507(4) 0.3384(5) 0.4444(4) 0.052(2) Uani 1 1 d . .
C23 C 0.4171(5) 0.1964(5) 0.5357(3) 0.0504(19) Uani 1 1 d . .
C24 C 0.0385(5) 0.1959(5) 0.3675(4) 0.058(2) Uani 1 1 d . .
H24 H 0.0903 0.2071 0.3584 0.070 Uiso 1 1 calc R U
C25 C -0.0114(5) 0.1286(5) 0.3340(3) 0.055(2) Uani 1 1 d . .
H25 H 0.0059 0.0926 0.3016 0.066 Uiso 1 1 calc R U
C26 C 0.4489(4) 0.1139(5) 0.5808(3) 0.0461(18) Uani 1 1 d . .
C27 C 0.0976(5) 0.4746(6) 0.3673(3) 0.054(2) Uani 1 1 d . .
H27 H 0.0415 0.4696 0.3676 0.065 Uiso 1 1 calc R U
C28 C -0.1948(4) 0.1435(6) 0.4040(4) 0.051(2) Uani 1 1 d . .
C29 C 0.0654(5) 0.3210(5) 0.4539(4) 0.056(2) Uani 1 1 d . .
C30 C 0.2003(5) 0.1982(6) 0.5216(4) 0.062(2) Uani 1 1 d . .
H30 H 0.1502 0.1784 0.5310 0.074 Uiso 1 1 calc R U
C31 C 0.4360(5) 0.0150(5) 0.5640(4) 0.060(2) Uani 1 1 d . .
H31 H 0.4063 -0.0028 0.5228 0.072 Uiso 1 1 calc R U
C32 C 0.5943(5) 0.3036(6) 0.4959(4) 0.060(2) Uani 1 1 d . .
H32 H 0.6507 0.3131 0.4984 0.072 Uiso 1 1 calc R U
C33 C -0.0917(4) 0.2870(6) 0.4779(4) 0.060(2) Uani 1 1 d . .
C34 C 0.7764(5) 0.4456(7) 0.3669(4) 0.070(3) Uani 1 1 d . .
C35 C 0.4674(5) -0.0582(6) 0.6087(4) 0.074(3) Uani 1 1 d . .
H35 H 0.4574 -0.1255 0.5966 0.089 Uiso 1 1 calc R U
C36 C 0.4946(5) 0.1346(6) 0.6401(4) 0.058(2) Uani 1 1 d . .
H36 H 0.5058 0.2014 0.6531 0.070 Uiso 1 1 calc R U
C37 C -0.1151(5) 0.1633(5) 0.3917(4) 0.055(2) Uani 1 1 d . .
C38 C 0.2019(5) 0.7983(6) 0.2230(4) 0.073(3) Uani 1 1 d . .
H38 H 0.1938 0.8667 0.2302 0.088 Uiso 1 1 calc R U
C39 C -0.0908(5) 0.1089(6) 0.3456(4) 0.061(2) Uani 1 1 d . .
C40 C 0.6799(5) 0.4963(7) 0.4285(4) 0.084(3) Uani 1 1 d . .
H40 H 0.6675 0.5369 0.4609 0.101 Uiso 1 1 calc R U
C41 C -0.2205(5) 0.1979(6) 0.4525(4) 0.068(2) Uani 1 1 d . .
H41 H -0.2725 0.1849 0.4607 0.082 Uiso 1 1 calc R U
C42 C 0.1910(5) 0.6698(5) 0.1556(4) 0.064(2) Uani 1 1 d . .
H42 H 0.1762 0.6440 0.1137 0.077 Uiso 1 1 calc R U
C43 C 0.0341(5) 0.3708(6) 0.4987(4) 0.068(2) Uani 1 1 d . .
H43 H 0.0676 0.4202 0.5228 0.082 Uiso 1 1 calc R U
C44 C 0.2327(6) 0.7384(5) 0.2758(4) 0.074(3) Uani 1 1 d . .
H44 H 0.2471 0.7660 0.3173 0.089 Uiso 1 1 calc R U
C45 C 0.7361(6) 0.3212(7) 0.2837(4) 0.066(2) Uani 1 1 d . .
C46 C -0.1720(5) 0.2680(6) 0.4875(4) 0.069(2) Uani 1 1 d . .
H46 H -0.1915 0.3049 0.5185 0.083 Uiso 1 1 calc R U
C47 C 0.5247(5) 0.0566(6) 0.6819(4) 0.070(2) Uani 1 1 d . .
H47 H 0.5569 0.0728 0.7226 0.084 Uiso 1 1 calc R U
C48 C 0.2195(5) 0.6050(5) 0.2057(4) 0.061(2) Uani 1 1 d . .
H48 H 0.2236 0.5362 0.1973 0.073 Uiso 1 1 calc R U
C49 C 0.8580(5) 0.4512(8) 0.3495(5) 0.089(3) Uani 1 1 d . .
H49 H 0.8992 0.4950 0.3710 0.107 Uiso 1 1 calc R U
C50 C 0.8151(6) 0.3287(8) 0.2677(5) 0.081(3) Uani 1 1 d . .
C51 C -0.0385(5) 0.3564(6) 0.5115(4) 0.067(2) Uani 1 1 d . .
H51 H -0.0540 0.3941 0.5439 0.081 Uiso 1 1 calc R U
C52 C 0.5837(5) 0.3038(6) 0.3130(4) 0.067(2) Uani 1 1 d . .
H52 H 0.5314 0.2970 0.3220 0.081 Uiso 1 1 calc R U
C53 C 0.8699(6) 0.3938(8) 0.3040(5) 0.085(3) Uani 1 1 d . .
H53 H 0.9222 0.3971 0.2946 0.102 Uiso 1 1 calc R U
C54 C 0.7570(5) 0.5033(8) 0.4147(5) 0.098(3) Uani 1 1 d . .
H54 H 0.7962 0.5477 0.4382 0.117 Uiso 1 1 calc R U
C55 C 0.6793(7) 0.2545(7) 0.2485(5) 0.086(3) Uani 1 1 d . .
C56 C 0.6037(7) 0.2479(7) 0.2669(5) 0.092(3) Uani 1 1 d . .
H56 H 0.5649 0.2013 0.2454 0.111 Uiso 1 1 calc R U
C57 C -0.2449(6) 0.0750(7) 0.3662(5) 0.087(3) Uani 1 1 d . .
H57 H -0.2985 0.0641 0.3718 0.105 Uiso 1 1 calc R U
C58 C -0.1433(6) 0.0403(7) 0.3093(4) 0.093(3) Uani 1 1 d . .
H58 H -0.1267 0.0051 0.2762 0.111 Uiso 1 1 calc R U
C59 C 0.8299(8) 0.2698(9) 0.2187(5) 0.108(4) Uani 1 1 d . .
H59 H 0.8817 0.2731 0.2086 0.129 Uiso 1 1 calc R U
C60 C -0.2174(7) 0.0235(8) 0.3210(5) 0.109(4) Uani 1 1 d . .
H60 H -0.2514 -0.0257 0.2970 0.130 Uiso 1 1 calc R U
C61 C 0.7718(10) 0.2066(10) 0.1841(7) 0.149(6) Uani 1 1 d . .
H61 H 0.7831 0.1686 0.1501 0.179 Uiso 1 1 calc R U
C62 C 0.6972(9) 0.1997(9) 0.2001(6) 0.135(5) Uani 1 1 d . .
H62 H 0.6573 0.1558 0.1769 0.162 Uiso 1 1 calc R U
loop_
_atom_site_aniso_label
_atom_site_aniso_U_11
_atom_site_aniso_U_22
_atom_site_aniso_U_33
_atom_site_aniso_U_23
_atom_site_aniso_U_13
_atom_site_aniso_U_12
Mn01 0.0190(5) 0.0211(5) 0.0173(4) 0.0011(4) 0.0086(3) -0.0055(4)
N1 0.037(4) 0.049(3) 0.050(4) 0.004(3) 0.007(3) -0.005(3)
N2 0.046(4) 0.047(3) 0.042(3) 0.012(3) 0.010(3) -0.007(3)
N3 0.028(3) 0.060(4) 0.039(3) 0.004(3) 0.008(3) -0.003(3)
N4 0.036(3) 0.050(4) 0.031(3) 0.001(3) 0.018(3) 0.008(3)
N5 0.034(3) 0.050(3) 0.038(3) 0.003(3) 0.011(3) -0.008(3)
N6 0.071(5) 0.065(5) 0.069(5) 0.013(4) 0.021(4) -0.003(4)
C1 0.044(4) 0.043(4) 0.035(4) 0.003(4) 0.011(3) -0.003(3)
C2 0.041(4) 0.040(4) 0.052(4) 0.003(4) 0.017(4) -0.002(3)
C3 0.038(4) 0.050(4) 0.047(4) 0.006(4) 0.012(4) -0.005(3)
C4 0.040(4) 0.043(4) 0.042(4) 0.008(4) 0.008(3) -0.005(3)
C5 0.031(4) 0.053(4) 0.038(4) -0.005(4) 0.013(3) -0.007(3)
C6 0.038(4) 0.054(4) 0.046(4) 0.001(4) 0.020(4) -0.008(4)
C7 0.048(5) 0.050(4) 0.051(4) 0.011(4) 0.023(4) -0.008(4)
C8 0.037(4) 0.055(4) 0.037(4) 0.004(4) 0.014(3) 0.001(4)
C9 0.047(5) 0.040(4) 0.040(4) -0.004(4) 0.008(4) -0.005(3)
C10 0.043(5) 0.055(5) 0.048(4) 0.012(4) 0.014(4) -0.003(4)
C11 0.031(4) 0.050(4) 0.050(4) 0.015(4) 0.006(4) -0.004(3)
C12 0.036(4) 0.048(4) 0.045(4) 0.006(4) 0.024(3) -0.005(3)
C13 0.050(5) 0.055(4) 0.056(5) 0.008(4) 0.027(4) -0.009(4)
C14 0.045(5) 0.060(5) 0.048(5) 0.002(4) 0.012(4) 0.003(4)
C15 0.040(5) 0.061(5) 0.066(5) 0.018(4) 0.020(4) -0.008(4)
C16 0.033(4) 0.069(5) 0.059(5) 0.008(4) 0.024(4) 0.004(4)
C17 0.046(5) 0.054(5) 0.057(5) 0.015(4) 0.017(4) -0.009(4)
C18 0.048(5) 0.074(6) 0.050(5) 0.023(5) 0.007(4) 0.002(4)
C19 0.043(4) 0.066(5) 0.041(4) 0.016(4) 0.010(4) 0.006(4)
C20 0.039(4) 0.065(5) 0.041(4) 0.004(4) 0.011(4) -0.013(4)
C21 0.038(4) 0.057(5) 0.044(4) 0.005(4) 0.011(3) -0.010(4)
C22 0.041(4) 0.060(5) 0.058(5) 0.009(4) 0.020(4) -0.007(4)
C23 0.065(5) 0.038(4) 0.048(4) 0.003(4) 0.013(4) -0.001(4)
C24 0.059(5) 0.058(5) 0.058(5) -0.004(4) 0.012(4) -0.016(4)
C25 0.064(5) 0.062(5) 0.049(4) -0.005(4) 0.032(4) -0.013(4)
C26 0.044(4) 0.051(5) 0.043(4) 0.004(4) 0.009(4) -0.002(3)
C27 0.042(5) 0.071(5) 0.050(5) 0.007(4) 0.011(4) 0.003(4)
C28 0.025(4) 0.061(5) 0.070(5) 0.019(5) 0.015(4) -0.003(4)
C29 0.058(5) 0.060(5) 0.055(5) -0.003(4) 0.027(4) -0.002(4)
C30 0.043(5) 0.073(5) 0.070(5) 0.018(5) 0.014(4) -0.012(4)
C31 0.064(5) 0.049(5) 0.062(5) 0.013(5) 0.005(4) -0.007(4)
C32 0.056(5) 0.067(5) 0.057(5) 0.010(5) 0.013(4) 0.000(4)
C33 0.033(4) 0.070(5) 0.080(6) -0.005(5) 0.019(4) 0.010(4)
C34 0.039(5) 0.122(8) 0.050(5) -0.003(5) 0.016(4) -0.002(5)
C35 0.079(7) 0.054(5) 0.081(7) 0.005(5) 0.004(5) -0.005(4)
C36 0.072(6) 0.050(5) 0.051(5) 0.005(4) 0.011(4) 0.004(4)
C37 0.061(5) 0.048(5) 0.051(5) 0.014(4) 0.005(4) -0.001(4)
C38 0.125(8) 0.053(5) 0.045(5) -0.009(5) 0.026(5) 0.025(5)
C39 0.075(6) 0.067(5) 0.047(5) 0.000(4) 0.025(4) -0.004(5)
C40 0.066(6) 0.115(7) 0.073(6) -0.015(6) 0.021(5) -0.033(6)
C41 0.061(6) 0.060(5) 0.083(6) 0.004(5) 0.015(5) -0.003(4)
C42 0.097(7) 0.042(5) 0.048(5) -0.007(4) 0.003(5) -0.008(4)
C43 0.049(5) 0.081(6) 0.085(6) -0.017(5) 0.039(5) -0.014(4)
C44 0.137(8) 0.049(5) 0.033(4) 0.007(4) 0.013(5) 0.016(5)
C45 0.067(6) 0.074(6) 0.067(6) 0.018(5) 0.034(5) 0.019(5)
C46 0.056(6) 0.069(6) 0.080(6) -0.013(5) 0.014(5) 0.006(4)
C47 0.073(6) 0.070(6) 0.063(6) 0.004(5) 0.007(5) -0.001(5)
C48 0.101(7) 0.034(4) 0.045(5) 0.002(4) 0.011(4) -0.001(4)
C49 0.044(6) 0.157(10) 0.070(6) 0.004(7) 0.023(5) 0.003(6)
C50 0.072(7) 0.105(8) 0.079(7) 0.035(6) 0.043(6) 0.031(6)
C51 0.053(5) 0.077(6) 0.084(6) -0.032(5) 0.040(5) -0.018(4)
C52 0.085(7) 0.058(5) 0.066(6) 0.006(5) 0.030(5) -0.006(5)
C53 0.065(7) 0.129(9) 0.067(6) 0.014(7) 0.027(6) 0.004(6)
C54 0.048(6) 0.161(10) 0.085(7) -0.030(7) 0.013(5) -0.040(6)
C55 0.097(8) 0.083(7) 0.094(8) 0.009(6) 0.054(7) 0.004(6)
C56 0.117(9) 0.077(6) 0.107(8) -0.018(6) 0.076(7) -0.012(6)
C57 0.080(7) 0.093(7) 0.083(7) 0.018(6) 0.005(6) -0.031(6)
C58 0.071(7) 0.131(8) 0.088(7) -0.042(6) 0.042(5) -0.061(6)
C59 0.140(11) 0.116(9) 0.090(8) 0.028(7) 0.074(8) 0.054(8)
C60 0.122(10) 0.122(9) 0.095(8) -0.044(7) 0.051(7) -0.051(7)
C61 0.206(17) 0.127(11) 0.151(13) -0.049(10) 0.116(12) -0.044(11)
C62 0.205(15) 0.116(9) 0.124(10) -0.024(8) 0.121(10) -0.015(9)
loop_
_atom_type_symbol
_atom_type_description
_atom_type_scat_dispersion_real
_atom_type_scat_dispersion_imag
_atom_type_scat_source
C C 0.0033 0.0016 'International Tables Vol C Tables 4.2.6.8 and 6.1.1.4'
H H 0.0000 0.0000 'International Tables Vol C Tables 4.2.6.8 and 6.1.1.4'
N N 0.0061 0.0033 'International Tables Vol C Tables 4.2.6.8 and 6.1.1.4'
Mn Mn 0.3368 0.7283 'International Tables Vol C Tables 4.2.6.8 and 6.1.1.4'
loop_
_geom_angle_atom_site_label_1
_geom_angle_atom_site_label_2
_geom_angle_atom_site_label_3
_geom_angle
_geom_angle_site_symmetry_3
N5 Mn01 N1 89.8(2) .
N5 Mn01 N3 87.5(2) .
N1 Mn01 N3 162.0(2) .
N5 Mn01 N2 158.9(2) .
N1 Mn01 N2 87.8(2) .
N3 Mn01 N2 88.4(2) .
N5 Mn01 N4 105.4(2) 2_545
N1 Mn01 N4 100.2(2) 2_545
N3 Mn01 N4 97.7(2) 2_545
N2 Mn01 N4 95.6(2) 2_545
C2 N1 C3 106.4(5) .
C2 N1 Mn01 126.7(4) .
C3 N1 Mn01 124.9(4) .
C5 N2 C7 106.2(5) .
C5 N2 Mn01 125.7(4) .
C7 N2 Mn01 126.6(4) .
C6 N3 C10 105.6(5) .
C6 N3 Mn01 126.9(4) .
C10 N3 Mn01 126.9(4) .
C38 N4 C42 117.1(6) .
C38 N4 Mn01 121.9(5) 2
C42 N4 Mn01 120.5(5) 2
C12 N5 C8 105.6(5) .
C12 N5 Mn01 128.1(4) .
C8 N5 Mn01 125.7(4) .
C47 N6 C35 115.6(7) .
C48 C1 C44 116.9(6) .
C48 C1 C9 120.3(6) .
C44 C1 C9 122.8(6) .
C9 C2 N1 125.5(6) .
C9 C2 C13 124.9(7) .
N1 C2 C13 109.6(6) .
N1 C3 C21 125.6(6) .
N1 C3 C15 110.4(6) .
C21 C3 C15 124.0(6) .
C29 C4 C11 122.1(7) .
C29 C4 C24 121.8(7) .
C11 C4 C24 116.1(6) .
N2 C5 C9 125.2(6) .
N2 C5 C14 109.9(6) .
C9 C5 C14 124.8(6) .
N3 C6 C23 124.8(6) .
N3 C6 C17 109.7(6) .
C23 C6 C17 125.1(7) .
N2 C7 C22 124.2(6) .
N2 C7 C27 108.8(6) .
C22 C7 C27 126.9(7) .
C21 C8 N5 124.9(6) .
C21 C8 C32 124.9(7) .
N5 C8 C32 110.1(6) .
C2 C9 C5 125.4(6) .
C2 C9 C1 117.5(6) .
C5 C9 C1 117.0(6) .
N3 C10 C22 123.8(6) .
N3 C10 C30 109.5(6) .
C22 C10 C30 126.7(7) .
C37 C11 C4 121.7(7) .
C37 C11 C33 119.9(7) .
C4 C11 C33 118.4(6) .
N5 C12 C23 125.4(6) .
N5 C12 C16 109.0(6) .
C23 C12 C16 125.6(7) .
C15 C13 C2 107.5(6) .
C15 C13 H13 126.2 .
C2 C13 H13 126.2 .
C27 C14 C5 105.1(6) .
C27 C14 H14 127.4 .
C5 C14 H14 127.4 .
C13 C15 C3 106.1(6) .
C13 C15 H15 126.9 .
C3 C15 H15 126.9 .
C32 C16 C12 107.3(7) .
C32 C16 H16 126.3 .
C12 C16 H16 126.3 .
C30 C17 C6 107.6(7) .
C30 C17 H17 126.2 .
C6 C17 H17 126.2 .
C34 C18 C45 122.3(8) .
C34 C18 C19 117.7(8) .
C45 C18 C19 120.0(7) .
C20 C19 C52 122.4(7) .
C20 C19 C18 121.0(7) .
C52 C19 C18 116.6(7) .
C40 C20 C19 118.9(7) .
C40 C20 C21 121.3(7) .
C19 C20 C21 119.8(6) .
C3 C21 C8 125.5(6) .
C3 C21 C20 118.3(6) .
C8 C21 C20 116.0(6) .
C7 C22 C10 127.8(7) .
C7 C22 C29 116.4(6) .
C10 C22 C29 115.8(6) .
C12 C23 C6 124.9(6) .
C12 C23 C26 117.3(7) .
C6 C23 C26 117.7(6) .
C25 C24 C4 120.8(7) .
C25 C24 H24 119.6 .
C4 C24 H24 119.6 .
C24 C25 C39 121.8(7) .
C24 C25 H25 119.1 .
C39 C25 H25 119.1 .
C36 C26 C31 117.6(7) .
C36 C26 C23 120.2(6) .
C31 C26 C23 122.2(6) .
C14 C27 C7 109.9(7) .
C14 C27 H27 125.1 .
C7 C27 H27 125.1 .
C57 C28 C41 122.0(8) .
C57 C28 C37 118.8(8) .
C41 C28 C37 119.1(7) .
C43 C29 C4 115.7(7) .
C43 C29 C22 123.0(7) .
C4 C29 C22 121.3(7) .
C17 C30 C10 107.5(7) .
C17 C30 H30 126.2 .
C10 C30 H30 126.2 .
C26 C31 C35 119.1(7) .
C26 C31 H31 120.5 .
C35 C31 H31 120.5 .
C16 C32 C8 107.9(7) .
C16 C32 H32 126.0 .
C8 C32 H32 126.0 .
C51 C33 C46 124.5(8) .
C51 C33 C11 116.9(7) .
C46 C33 C11 118.6(7) .
C54 C34 C18 120.4(8) .
C54 C34 C49 122.5(9) .
C18 C34 C49 117.1(8) .
N6 C35 C31 124.2(7) .
N6 C35 H35 117.9 .
C31 C35 H35 117.9 .
C26 C36 C47 119.7(7) .
C26 C36 H36 120.2 .
C47 C36 H36 120.2 .
C39 C37 C11 121.5(8) .
C39 C37 C28 118.3(7) .
C11 C37 C28 120.1(8) .
N4 C38 C44 124.1(7) .
N4 C38 H38 117.9 .
C44 C38 H38 117.9 .
C37 C39 C58 120.5(8) .
C37 C39 C25 118.0(7) .
C58 C39 C25 121.5(8) .
C20 C40 C54 121.7(9) .
C20 C40 H40 119.2 .
C54 C40 H40 119.2 .
C46 C41 C28 121.5(8) .
C46 C41 H41 119.3 .
C28 C41 H41 119.3 .
N4 C42 C48 122.2(7) .
N4 C42 H42 118.9 .
C48 C42 H42 118.9 .
C51 C43 C29 126.3(8) .
C51 C43 H43 116.8 .
C29 C43 H43 116.8 .
C1 C44 C38 118.5(7) .
C1 C44 H44 120.7 .
C38 C44 H44 120.7 .
C18 C45 C55 122.9(9) .
C18 C45 C50 119.3(9) .
C55 C45 C50 117.7(9) .
C41 C46 C33 120.7(8) .
C41 C46 H46 119.6 .
C33 C46 H46 119.6 .
N6 C47 C36 123.8(8) .
N6 C47 H47 118.1 .
C36 C47 H47 118.1 .
C1 C48 C42 121.1(7) .
C1 C48 H48 119.5 .
C42 C48 H48 119.5 .
C53 C49 C34 117.5(9) .
C53 C49 H49 121.2 .
C34 C49 H49 121.2 .
C53 C50 C59 125.7(11) .
C53 C50 C45 116.2(10) .
C59 C50 C45 118.1(11) .
C43 C51 C33 120.6(8) .
C43 C51 H51 119.7 .
C33 C51 H51 119.7 .
C56 C52 C19 120.7(9) .
C56 C52 H52 119.7 .
C19 C52 H52 119.7 .
C49 C53 C50 127.5(10) .
C49 C53 H53 116.2 .
C50 C53 H53 116.2 .
C34 C54 C40 120.3(8) .
C34 C54 H54 119.8 .
C40 C54 H54 119.8 .
C62 C55 C45 121.2(11) .
C62 C55 C56 123.1(11) .
C45 C55 C56 115.7(9) .
C52 C56 C55 124.0(10) .
C52 C56 H56 118.0 .
C55 C56 H56 118.0 .
C60 C57 C28 120.1(10) .
C60 C57 H57 120.0 .
C28 C57 H57 120.0 .
C60 C58 C39 120.3(9) .
C60 C58 H58 119.8 .
C39 C58 H58 119.8 .
C61 C59 C50 122.5(12) .
C61 C59 H59 118.7 .
C50 C59 H59 118.7 .
C58 C60 C57 121.8(10) .
C58 C60 H60 119.1 .
C57 C60 H60 119.1 .
C62 C61 C59 118.7(13) .
C62 C61 H61 120.6 .
C59 C61 H61 120.6 .
C55 C62 C61 121.7(13) .
C55 C62 H62 119.2 .
C61 C62 H62 119.2 .
loop_
_geom_bond_atom_site_label_1
_geom_bond_atom_site_label_2
_geom_bond_distance
_geom_bond_site_symmetry_2
Mn01 N5 2.046(5) .
Mn01 N1 2.055(5) .
Mn01 N3 2.065(5) .
Mn01 N2 2.082(6) .
Mn01 N4 2.152(5) 2_545
N1 C2 1.376(8) .
N1 C3 1.392(8) .
N2 C5 1.370(8) .
N2 C7 1.381(8) .
N3 C6 1.381(8) .
N3 C10 1.393(8) .
N4 C38 1.307(8) .
N4 C42 1.324(8) .
N4 Mn01 2.152(5) 2
N5 C12 1.380(8) .
N5 C8 1.408(8) .
N6 C47 1.338(9) .
N6 C35 1.341(9) .
C1 C48 1.356(9) .
C1 C44 1.379(9) .
C1 C9 1.493(9) .
C2 C9 1.372(9) .
C2 C13 1.445(9) .
C3 C21 1.401(9) .
C3 C15 1.437(9) .
C4 C29 1.378(9) .
C4 C11 1.419(9) .
C4 C24 1.460(10) .
C5 C9 1.424(9) .
C5 C14 1.453(8) .
C6 C23 1.412(9) .
C6 C17 1.440(9) .
C7 C22 1.391(9) .
C7 C27 1.410(9) .
C8 C21 1.406(9) .
C8 C32 1.413(9) .
C10 C22 1.401(9) .
C10 C30 1.437(9) .
C11 C37 1.380(9) .
C11 C33 1.467(10) .
C12 C23 1.381(9) .
C12 C16 1.461(9) .
C13 C15 1.381(9) .
C13 H13 0.9500 .
C14 C27 1.340(9) .
C14 H14 0.9500 .
C15 H15 0.9500 .
C16 C32 1.349(9) .
C16 H16 0.9500 .
C17 C30 1.342(9) .
C17 H17 0.9500 .
C18 C34 1.393(10) .
C18 C45 1.393(11) .
C18 C19 1.449(10) .
C19 C20 1.397(10) .
C19 C52 1.440(10) .
C20 C40 1.359(10) .
C20 C21 1.498(9) .
C22 C29 1.517(10) .
C23 C26 1.496(9) .
C24 C25 1.335(9) .
C24 H24 0.9500 .
C25 C39 1.442(10) .
C25 H25 0.9500 .
C26 C36 1.368(9) .
C26 C31 1.387(9) .
C27 H27 0.9500 .
C28 C57 1.386(11) .
C28 C41 1.425(11) .
C28 C37 1.453(10) .
C29 C43 1.378(10) .
C30 H30 0.9500 .
C31 C35 1.399(10) .
C31 H31 0.9500 .
C32 H32 0.9500 .
C33 C51 1.384(10) .
C33 C46 1.439(10) .
C34 C54 1.389(12) .
C34 C49 1.509(11) .
C35 H35 0.9500 .
C36 C47 1.405(10) .
C36 H36 0.9500 .
C37 C39 1.372(10) .
C38 C44 1.399(10) .
C38 H38 0.9500 .
C39 C58 1.393(10) .
C40 C54 1.401(11) .
C40 H40 0.9500 .
C41 C46 1.362(10) .
C41 H41 0.9500 .
C42 C48 1.390(10) .
C42 H42 0.9500 .
C43 C51 1.328(9) .
C43 H43 0.9500 .
C44 H44 0.9500 .
C45 C55 1.406(12) .
C45 C50 1.455(11) .
C46 H46 0.9500 .
C47 H47 0.9500 .
C48 H48 0.9500 .
C49 C53 1.302(12) .
C49 H49 0.9500 .
C50 C53 1.383(13) .
C50 C59 1.390(13) .
C51 H51 0.9500 .
C52 C56 1.352(11) .
C52 H52 0.9500 .
C53 H53 0.9500 .
C54 H54 0.9500 .
C55 C62 1.369(13) .
C55 C56 1.420(12) .
C56 H56 0.9500 .
C57 C60 1.363(12) .
C57 H57 0.9500 .
C58 C60 1.350(12) .
C58 H58 0.9500 .
C59 C61 1.384(15) .
C59 H59 0.9500 .
C60 H60 0.9500 .
C61 C62 1.381(16) .
C61 H61 0.9500 .
C62 H62 0.9500 .
loop_
_platon_squeeze_void_nr
_platon_squeeze_void_average_x
_platon_squeeze_void_average_y
_platon_squeeze_void_average_z
_platon_squeeze_void_volume
_platon_squeeze_void_count_electrons
_platon_squeeze_void_content
1 0.000 0.000 0.500 324 92 'disordered DMF '
2 0.500 0.500 0.000 324 92 'disordered DMF '
