#------------------------------------------------------------------------------
#$Date: 2017-10-31 05:27:58 +0200 (Tue, 31 Oct 2017) $
#$Revision: 202440 $
#$URL: file:///home/coder/svn-repositories/cod/cif/7/22/94/7229428.cif $
#------------------------------------------------------------------------------
#
# This file is available in the Crystallography Open Database (COD),
# http://www.crystallography.net/
#
# All data on this site have been placed in the public domain by the
# contributors.
#
data_7229428
loop_
_publ_author_name
'Goswami, Soumyabrata'
'Tripuramallu, Bharat Kumar'
'Goldberg, Israel'
_publ_section_title
;
 New meso-substituted trans-A2B2 porphyrins: Synthesis and structure of
 their metal-mediated supramolecular assemblies&#x2020;
;
_journal_name_full               CrystEngComm
_journal_paper_doi               10.1039/C7CE01642E
_journal_year                    2017
_chemical_formula_moiety         'C58 H34 Co N6'
_chemical_formula_sum            'C58 H34 Co N6'
_chemical_formula_weight         873.84
_chemical_properties_physical    Air-sensitive,Moisture-sensitive
_space_group_crystal_system      monoclinic
_space_group_IT_number           14
_space_group_name_Hall           '-P 2ybc'
_space_group_name_H-M_alt        'P 1 21/c 1'
_symmetry_space_group_name_Hall  '-P 2ybc'
_symmetry_space_group_name_H-M   'P 1 21/c 1'
_atom_sites_solution_hydrogens   geom
_atom_sites_solution_primary     direct
_atom_sites_solution_secondary   difmap
_audit_creation_method           SHELXL-2014/7
_audit_update_record
;
2017-09-11 deposited with the CCDC.
2017-10-30 downloaded from the CCDC.
;
_cell_angle_alpha                90
_cell_angle_beta                 116.045(3)
_cell_angle_gamma                90
_cell_formula_units_Z            2
_cell_length_a                   13.3185(16)
_cell_length_b                   14.3273(18)
_cell_length_c                   14.2071(16)
_cell_measurement_reflns_used    2737
_cell_measurement_temperature    110(2)
_cell_measurement_theta_max      23.6
_cell_measurement_theta_min      2.14
_cell_volume                     2435.7(5)
_computing_cell_refinement       'Saint, Bruker-AXS'
_computing_data_collection       'Apex2, Bruker-AXS'
_computing_data_reduction        'Saint, Bruker-AXS'
_computing_structure_refinement  'SHELXL-2014/7 (Sheldrick, 2015)'
_computing_structure_solution    'SHELXT-2014 (Sheldrick, 2015)'
_diffrn_ambient_temperature      110(2)
_diffrn_detector_area_resol_mean 1.75
_diffrn_measured_fraction_theta_full 0.993
_diffrn_measured_fraction_theta_max 0.993
_diffrn_measurement_device_type  'ApexDuo, Bruker-AXS'
_diffrn_measurement_method       '1 deg. \f and \w scans'
_diffrn_radiation_type           MoK\a
_diffrn_radiation_wavelength     0.71073
_diffrn_reflns_av_R_equivalents  0.0369
_diffrn_reflns_av_unetI/netI     0.0417
_diffrn_reflns_Laue_measured_fraction_full 0.993
_diffrn_reflns_Laue_measured_fraction_max 0.993
_diffrn_reflns_limit_h_max       14
_diffrn_reflns_limit_h_min       -12
_diffrn_reflns_limit_k_max       16
_diffrn_reflns_limit_k_min       -16
_diffrn_reflns_limit_l_max       15
_diffrn_reflns_limit_l_min       -15
_diffrn_reflns_number            11981
_diffrn_reflns_point_group_measured_fraction_full 0.993
_diffrn_reflns_point_group_measured_fraction_max 0.993
_diffrn_reflns_theta_full        23.624
_diffrn_reflns_theta_max         23.624
_diffrn_reflns_theta_min         2.137
_diffrn_source                   'ImuS micro-focus'
_exptl_absorpt_coefficient_mu    0.395
_exptl_absorpt_correction_T_max  0.947
_exptl_absorpt_correction_T_min  0.897
_exptl_absorpt_correction_type   multi-scan
_exptl_absorpt_process_details   'Sadabs, Bruker-AXS'
_exptl_crystal_colour            red
_exptl_crystal_density_diffrn    1.191
_exptl_crystal_description       plate
_exptl_crystal_F_000             902
_exptl_crystal_size_max          0.280
_exptl_crystal_size_mid          0.240
_exptl_crystal_size_min          0.140
_refine_diff_density_max         2.051
_refine_diff_density_min         -0.770
_refine_diff_density_rms         0.160
_refine_ls_extinction_method     none
_refine_ls_goodness_of_fit_ref   3.044
_refine_ls_hydrogen_treatment    constr
_refine_ls_matrix_type           full
_refine_ls_number_parameters     225
_refine_ls_number_reflns         3616
_refine_ls_number_restraints     0
_refine_ls_restrained_S_all      3.044
_refine_ls_R_factor_all          0.1664
_refine_ls_R_factor_gt           0.1342
_refine_ls_shift/su_max          0.108
_refine_ls_shift/su_mean         0.019
_refine_ls_structure_factor_coef Fsqd
_refine_ls_weighting_details
'w=1/[\s^2^(Fo^2^)+(0.1000P)^2^] where P=(Fo^2^+2Fc^2^)/3'
_refine_ls_weighting_scheme      calc
_refine_ls_wR_factor_gt          0.3750
_refine_ls_wR_factor_ref         0.3946
_reflns_Friedel_coverage         0.000
_reflns_number_gt                2737
_reflns_number_total             3616
_reflns_threshold_expression     'I > 2\s(I)'
_cod_data_source_file            c7ce01642e2.cif
_cod_data_source_block           gs37_sq
_cod_database_code               7229428
_shelx_shelxl_version_number     2014/7
_shelx_space_group_comment
;
The symmetry employed for this shelxl refinement is uniquely defined
by the following loop, which should always be used as a source of
symmetry information in preference to the above space-group names.
They are only intended as comments.
;
_shelx_estimated_absorpt_t_min   0.897
_shelx_estimated_absorpt_t_max   0.947
_platon_squeeze_void_probe_radius 1.20
_shelx_res_file
;

    gs37_sq.res created by SHELXL-2014/7


TITL mo_gs37_0ma_a.res in P2(1)/c
REM Old TITL mo_gs37_0ma in P2(1)/c

REM SHELXT solution in P2(1)/c
REM R1 0.241,  Rweak 0.004,  Alpha 0.046,  Orientation as input
REM Formula found by SHELXT:  C46 N22 Zn

CELL  0.71073  13.3185  14.3273  14.2071   90.000  116.045   90.000
ZERR    2.000   0.0016   0.0018   0.0016    0.000    0.003    0.000
LATT  1
SYMM -X, 1/2+Y, 1/2-Z
SFAC C H N Co
UNIT 116 68 12 2
TEMP -163.00
size 0.28 0.24 0.14
L.S. 5 0   54
BOND $H
acta
FMAP 2
PLAN -20
ABIN
WGHT    0.100000
FVAR       0.48848
CO1   4    0.000000    0.500000    0.500000    10.50000    0.04014    0.01529 =
         0.01909    0.00166    0.01572   -0.00187
N1    3    0.125480    0.440363    0.632748    11.00000    0.06176    0.03203 =
         0.03036    0.00117    0.02633    0.00026
N2    3    0.114327    0.586132    0.482438    11.00000    0.05615    0.02525 =
         0.03692    0.00334    0.02256    0.00187
N3    3    0.017450    0.114594    0.890532    11.00000    0.06731    0.03168 =
         0.03389    0.00191    0.02294    0.00045
C1    1    0.113902    0.370574    0.692237    11.00000    0.05719    0.02553 =
         0.04316   -0.00518    0.02679    0.00040
C2    1    0.222482    0.352314    0.779087    11.00000    0.06308    0.05230 =
         0.04482    0.01231    0.02684    0.02232
AFIX  43
H2    2    0.239017    0.307924    0.833573    11.00000   -1.20000
AFIX   0
C3    1    0.228635    0.588582    0.549298    11.00000    0.05819    0.05013 =
         0.03246   -0.00392    0.01685   -0.00586
C4    1    0.012559    0.327345    0.677026    11.00000    0.06700    0.02495 =
         0.03229   -0.00542    0.02314   -0.00529
C5    1    0.293216    0.409578    0.767087    11.00000    0.04072    0.07260 =
         0.05072    0.01550    0.01487    0.00728
AFIX  43
H5    2    0.371073    0.412292    0.811930    11.00000   -1.20000
AFIX   0
C6    1    0.237725    0.465565    0.679377    11.00000    0.04492    0.04783 =
         0.02993   -0.00378    0.01477   -0.00140
C7    1    0.094231    0.651067    0.406093    11.00000    0.07263    0.02895 =
         0.04687   -0.00294    0.03379   -0.01792
C8    1    0.030971    0.203845    0.916988    11.00000    0.09160    0.03204 =
         0.04160   -0.00974    0.03917   -0.01267
AFIX  43
H8    2    0.041308    0.220343    0.985419    11.00000   -1.20000
AFIX   0
C9    1    0.014481    0.255070    0.750177    11.00000    0.06781    0.03305 =
         0.03481    0.00019    0.02302    0.00130
C10   1    0.197499    0.697026    0.425242    11.00000    0.10075    0.05741 =
         0.05969    0.00916    0.03054   -0.03703
AFIX  43
H10   2    0.206756    0.745403    0.383992    11.00000   -1.20000
AFIX   0
C11   1    0.276770    0.660087    0.510052    11.00000    0.04947    0.07618 =
         0.05323    0.00754    0.01289   -0.02354
AFIX  43
H11   2    0.353330    0.677611    0.540568    11.00000   -1.20000
AFIX   0
C12   1    0.030909    0.275055    0.850120    11.00000    0.11583    0.03253 =
         0.05372    0.00302    0.05866   -0.00222
AFIX  43
H12   2    0.042338    0.337838    0.874060    11.00000   -1.20000
AFIX   0
C13   1    0.279126    0.536231    0.638016    11.00000    0.04965    0.06027 =
         0.04782    0.00315    0.02651   -0.00814
C14   1    0.011157    0.094460    0.796160    11.00000    0.20034    0.02926 =
         0.07086   -0.00278    0.09027   -0.00960
AFIX  43
H14   2    0.007246    0.030783    0.776195    11.00000   -1.20000
AFIX   0
C15   1    0.010101    0.161395    0.727134    11.00000    0.23154    0.03962 =
         0.06525   -0.01367    0.09664   -0.02624
AFIX  43
H15   2    0.006237    0.142742    0.661459    11.00000   -1.20000
AFIX   0
C16   1    0.400704    0.571729    0.715514    11.00000    0.11104
C17   1    0.491671    0.743580    0.943750    11.00000    0.18888
AFIX  43
H17   2    0.427205    0.745389    0.956199    11.00000   -1.20000
AFIX   0
C18   1    0.589039    0.671584    0.848863    11.00000    0.12050
C19   1    0.398433    0.642283    0.802941    11.00000    0.12994
AFIX  43
H19   2    0.332744    0.651972    0.812162    11.00000   -1.20000
AFIX   0
C20   1    0.672444    0.732818    0.900731    11.00000    0.15650
AFIX  43
H20   2    0.730525    0.735059    0.879107    11.00000   -1.20000
AFIX   0
C21   1    0.478327    0.500876    0.629985    11.00000    0.14231
AFIX  43
H21   2    0.409558    0.469292    0.591578    11.00000   -1.20000
AFIX   0
C22   1    0.596417    0.609526    0.771431    11.00000    0.14994
C23   1    0.486116    0.562654    0.698100    11.00000    0.17042
C24   1    0.683818    0.791949    0.980384    11.00000    0.14617
AFIX  43
H24   2    0.749676    0.827578    1.017668    11.00000   -1.20000
AFIX   0
C25   1    0.499236    0.688746    0.864874    11.00000    0.18462
C26   1    0.591009    0.796450    1.003451    11.00000    0.18218
AFIX  43
H26   2    0.594413    0.834973    1.059202    11.00000   -1.20000
AFIX   0
C27   1    0.684973    0.526724    0.682507    11.00000    0.23114
AFIX  43
H27   2    0.749728    0.516660    0.671830    11.00000   -1.20000
AFIX   0
C28   1    0.703515    0.589486    0.769053    11.00000    0.33572
AFIX  43
H28   2    0.773985    0.613789    0.816708    11.00000   -1.20000
AFIX   0
C29   1    0.587372    0.476386    0.609184    11.00000    0.22570
AFIX  43
H29   2    0.586663    0.435093    0.556577    11.00000   -1.20000
AFIX   0
HKLF 4

REM  mo_gs37_0ma_a.res in P2(1)/c
REM R1 =  0.1342 for    2737 Fo > 4sig(Fo)  and  0.1664 for all    3616 data
REM    225 parameters refined using      0 restraints

END

WGHT      0.2000      0.0000

REM Highest difference peak  2.051,  deepest hole -0.770,  1-sigma level  0.160
Q1    1   0.4547  0.6095  0.7839  11.00000  0.05    2.05
Q2    1   0.5660  0.6178  0.8336  11.00000  0.05    1.41
Q3    1   0.4080  0.5340  0.6907  11.00000  0.05    1.41
Q4    1   0.6061  0.6895  0.9190  11.00000  0.05    1.23
Q5    1   0.4207  0.7505  0.8541  11.00000  0.05    1.10
Q6    1   0.5986  0.5226  0.7132  11.00000  0.05    1.02
Q7    1   0.5539  0.7609  0.9144  11.00000  0.05    0.83
Q8    1   0.4790  0.4823  0.6836  11.00000  0.05    0.79
Q9    1   0.3829  0.6808  0.7885  11.00000  0.05    0.77
Q10   1   0.8088  0.5721  0.7723  11.00000  0.05    0.74
Q11   1   0.6470  0.5392  0.8205  11.00000  0.05    0.68
Q12   1   0.3724  0.6162  0.8626  11.00000  0.05    0.65
Q13   1   0.4159  0.6629  0.9399  11.00000  0.05    0.56
Q14   1   0.4097  0.4546  0.6901  11.00000  0.05    0.53
Q15   1   0.7569  0.5628  0.8570  11.00000  0.05    0.52
Q16   1   0.0162  0.6221  0.3879  11.00000  0.05    0.49
Q17   1   0.4480  0.3971  0.7763  11.00000  0.05    0.46
Q18   1  -0.0252  0.2223  0.6421  11.00000  0.05    0.46
Q19   1   0.5420  0.8179  1.1171  11.00000  0.05    0.45
Q20   1   0.6174  0.6127  0.9423  11.00000  0.05    0.42
;
_shelx_res_checksum              6894
_shelx_fab_file
;
    2    0    2    -13.29      0.00
    4    0    4     -1.96      0.00
    6    0    6      0.12      0.00
    8    0    8     -1.06      0.00
    1    1    1     23.67      0.00
    2    1    2     -6.04      0.00
    3    1    3     -5.66      0.00
    4    1    4      3.17      0.00
    5    1    5      3.62      0.00
    6    1    6     -0.82      0.00
    7    1    7      0.70      0.00
    8    1    8      0.54      0.00
    0    2    0     83.53      0.00
    1    2    1    -30.56      0.00
    2    2    2     -9.59      0.00
    3    2    3      3.09      0.00
    4    2    4     -0.44      0.00
    5    2    5     -2.06      0.00
    6    2    6      1.50      0.00
    7    2    7     -1.27      0.00
    8    2    8     -0.58      0.00
    1    3    1    -13.09      0.00
    2    3    2     -4.23      0.00
    3    3    3      0.50      0.00
    4    3    4      0.75      0.00
    5    3    5      0.51      0.00
    6    3    6     -1.71      0.00
    7    3    7      2.54      0.00
    8    3    8      2.27      0.00
    0    4    0      1.37      0.00
    1    4    1     -8.88      0.00
    2    4    2     -2.01      0.00
    3    4    3      4.34      0.00
    4    4    4     -0.86      0.00
    5    4    5      1.55      0.00
    6    4    6      4.08      0.00
    7    4    7     -0.27      0.00
    1    5    1    -11.72      0.00
    2    5    2      0.51      0.00
    3    5    3      1.24      0.00
    4    5    4     -0.89      0.00
    5    5    5     -0.89      0.00
    6    5    6      4.37      0.00
    7    5    7      1.39      0.00
    0    6    0     -3.31      0.00
    1    6    1      2.54      0.00
    2    6    2     -0.76      0.00
    3    6    3      5.07      0.00
    4    6    4      1.60      0.00
    5    6    5      0.76      0.00
    6    6    6     -0.35      0.00
    7    6    7      1.21      0.00
    1    7    1     -6.60      0.00
    2    7    2      2.77      0.00
    3    7    3      3.54      0.00
    4    7    4     -3.31      0.00
    5    7    5     -3.21      0.00
    6    7    6      2.03      0.00
    7    7    7      0.04      0.00
    0    8    0      6.61      0.00
    1    8    1      2.39      0.00
    2    8    2      2.59      0.00
    3    8    3      3.12      0.00
    4    8    4     -0.06      0.00
    5    8    5     -1.26      0.00
    6    8    6     -1.62      0.00
    7    8    7     -1.08      0.00
    1    9    1     -2.84      0.00
    2    9    2      3.23      0.00
    3    9    3      3.14      0.00
    4    9    4     -0.37      0.00
    5    9    5     -2.45      0.00
    6    9    6     -1.57      0.00
    0   10    0      5.09      0.00
    1   10    1      1.11      0.00
    2   10    2      1.58      0.00
    3   10    3      1.44      0.00
    4   10    4      0.28      0.00
    5   10    5      0.06      0.00
    6   10    6     -1.31      0.00
    1   11    1     -1.26      0.00
    2   11    2      0.24      0.00
    3   11    3     -0.16      0.00
    4   11    4     -0.97      0.00
    5   11    5     -1.00      0.00
    0   12    0      0.63      0.00
    1   12    1      0.39      0.00
    2   12    2      0.53      0.00
    3   12    3      1.47      0.00
    4   12    4      0.43      0.00
    5   12    5      0.07      0.00
    1   13    1     -1.26      0.00
    2   13    2      1.54      0.00
    3   13    3      0.00      0.00
    4   13    4     -0.32      0.00
    0   14    0     -0.69      0.00
    1   14    1     -0.14      0.00
    2   14    2      0.04      0.00
    3   14    3     -0.61      0.00
    4   14    4     -1.13      0.00
    1   15    1     -0.33      0.00
    2   15    2      0.31      0.00
    3   15    3      0.03      0.00
    0   16    0      0.02      0.00
    1   16    1      0.57      0.00
    7    0    8     -0.77      0.00
    5    0    6     -2.10      0.00
    3    0    4      9.49      0.00
    1    0    2    -36.31      0.00
    3    0    2     -1.25      0.00
    5    0    4     -8.96      0.00
    7    0    6      0.56      0.00
    7    1    8      0.58      0.00
    6    1    7     -3.03      0.00
    5    1    6      1.96      0.00
    4    1    5      3.57      0.00
    3    1    4      1.18      0.00
    2    1    3      3.95      0.00
    1    1    2     -0.06      0.00
    0    1    1   -129.19      0.00
    1    1    0     49.89      0.00
    2    1    1     26.08      0.00
    3    1    2     -3.63      0.00
    4    1    3     -4.94      0.00
    5    1    4      0.16      0.00
    6    1    5      2.12      0.00
    7    1    6      0.33      0.00
    8    1    7      1.62      0.00
    7    2    8     -0.77      0.00
    6    2    7      3.48      0.00
    5    2    6     -1.11      0.00
    4    2    5     -0.96      0.00
    3    2    4      3.63      0.00
    2    2    3      3.59      0.00
    1    2    2     -9.68      0.00
    0    2    1    -40.89      0.00
    1    2    0     14.55      0.00
    2    2    1     14.16      0.00
    3    2    2     -4.46      0.00
    4    2    3     -3.40      0.00
    5    2    4     -3.74      0.00
    6    2    5     -0.38      0.00
    7    2    6     -1.26      0.00
    8    2    7     -1.01      0.00
    7    3    8      1.81      0.00
    6    3    7     -1.60      0.00
    5    3    6      2.75      0.00
    4    3    5      2.85      0.00
    3    3    4     -3.47      0.00
    2    3    3     -0.80      0.00
    1    3    2      3.99      0.00
    0    3    1    -29.38      0.00
    1    3    0     38.29      0.00
    2    3    1      7.02      0.00
    3    3    2     -2.67      0.00
    4    3    3     -0.97      0.00
    5    3    4     -0.73      0.00
    6    3    5     -2.60      0.00
    7    3    6     -0.02      0.00
    8    3    7      0.78      0.00
    7    4    8     -0.27      0.00
    6    4    7     -0.52      0.00
    5    4    6      3.76      0.00
    4    4    5      1.69      0.00
    3    4    4      0.26      0.00
    2    4    3     -1.52      0.00
    1    4    2      3.54      0.00
    0    4    1     -8.59      0.00
    1    4    0     10.97      0.00
    2    4    1      5.18      0.00
    3    4    2     -4.45      0.00
    4    4    3     -0.67      0.00
    5    4    4      0.26      0.00
    6    4    5     -2.57      0.00
    7    4    6     -3.84      0.00
    8    4    7     -1.25      0.00
    7    5    8     -0.54      0.00
    6    5    7      0.42      0.00
    5    5    6     -3.88      0.00
    4    5    5     -0.81      0.00
    3    5    4     -4.47      0.00
    2    5    3     -0.95      0.00
    1    5    2     -0.59      0.00
    0    5    1      1.50      0.00
    1    5    0     -0.63      0.00
    2    5    1     -1.43      0.00
    3    5    2     -4.44      0.00
    4    5    3     -0.14      0.00
    5    5    4     -1.83      0.00
    6    5    5     -1.57      0.00
    7    5    6      0.47      0.00
    8    5    7      0.53      0.00
    7    6    8     -0.19      0.00
    6    6    7     -3.06      0.00
    5    6    6      1.95      0.00
    4    6    5      1.10      0.00
    3    6    4     -2.90      0.00
    2    6    3     -1.28      0.00
    1    6    2      8.86      0.00
    0    6    1      4.57      0.00
    1    6    0      7.67      0.00
    2    6    1     -1.02      0.00
    3    6    2     -3.26      0.00
    4    6    3      1.90      0.00
    5    6    4      3.58      0.00
    6    6    5     -3.57      0.00
    7    6    6     -0.79      0.00
    8    6    7     -2.84      0.00
    6    7    7     -0.46      0.00
    5    7    6     -0.75      0.00
    4    7    5     -1.00      0.00
    3    7    4     -2.88      0.00
    2    7    3     -2.94      0.00
    1    7    2      3.65      0.00
    0    7    1     -0.47      0.00
    1    7    0     -6.98      0.00
    2    7    1     -0.27      0.00
    3    7    2     -3.71      0.00
    4    7    3      0.67      0.00
    5    7    4      2.35      0.00
    6    7    5      1.89      0.00
    7    7    6      0.63      0.00
    6    8    7      1.17      0.00
    5    8    6      2.75      0.00
    4    8    5      1.14      0.00
    3    8    4     -2.60      0.00
    2    8    3     -2.59      0.00
    1    8    2      4.34      0.00
    0    8    1      1.69      0.00
    1    8    0      4.76      0.00
    2    8    1     -2.36      0.00
    3    8    2     -4.40      0.00
    4    8    3      1.86      0.00
    5    8    4      1.06      0.00
    6    8    5     -2.18      0.00
    7    8    6      0.70      0.00
    6    9    7      0.27      0.00
    5    9    6     -0.29      0.00
    4    9    5     -0.48      0.00
    3    9    4     -2.42      0.00
    2    9    3     -2.75      0.00
    1    9    2     -1.12      0.00
    0    9    1     -5.18      0.00
    1    9    0     -1.77      0.00
    2    9    1     -1.02      0.00
    3    9    2     -2.18      0.00
    4    9    3      0.18      0.00
    5    9    4     -0.14      0.00
    6    9    5      0.88      0.00
    7    9    6      0.33      0.00
    5   10    6      1.72      0.00
    4   10    5      1.12      0.00
    3   10    4     -0.94      0.00
    2   10    3     -2.49      0.00
    1   10    2      1.42      0.00
    0   10    1     -1.74      0.00
    1   10    0      2.96      0.00
    2   10    1     -0.15      0.00
    3   10    2     -0.55      0.00
    4   10    3      1.10      0.00
    5   10    4      0.99      0.00
    6   10    5     -1.05      0.00
    5   11    6      0.39      0.00
    4   11    5     -1.11      0.00
    3   11    4     -0.64      0.00
    2   11    3     -0.87      0.00
    1   11    2     -0.62      0.00
    0   11    1     -2.80      0.00
    1   11    0      0.78      0.00
    2   11    1      0.29      0.00
    3   11    2      0.11      0.00
    4   11    3      0.19      0.00
    5   11    4     -0.55      0.00
    6   11    5     -0.82      0.00
    4   12    5      0.98      0.00
    3   12    4      0.77      0.00
    2   12    3     -1.95      0.00
    1   12    2      1.27      0.00
    0   12    1     -1.44      0.00
    1   12    0      0.82      0.00
    2   12    1      1.51      0.00
    3   12    2      0.49      0.00
    4   12    3      1.07      0.00
    5   12    4      0.09      0.00
    4   13    5      0.01      0.00
    3   13    4     -1.00      0.00
    2   13    3     -1.03      0.00
    1   13    2     -0.86      0.00
    0   13    1      0.02      0.00
    1   13    0      0.29      0.00
    2   13    1      0.56      0.00
    3   13    2     -0.29      0.00
    4   13    3      1.91      0.00
    5   13    4     -0.07      0.00
    3   14    4     -0.67      0.00
    2   14    3     -2.20      0.00
    1   14    2     -0.17      0.00
    0   14    1     -0.29      0.00
    1   14    0      0.81      0.00
    2   14    1      0.63      0.00
    3   14    2      1.17      0.00
    4   14    3      1.05      0.00
    2   15    3      0.13      0.00
    1   15    2     -0.26      0.00
    0   15    1     -0.66      0.00
    1   15    0     -0.58      0.00
    2   15    1     -0.29      0.00
    3   15    2      0.61      0.00
    0   16    1     -0.40      0.00
    1   16    0     -0.25      0.00
    6    0    8      4.03      0.00
    4    0    6     -2.07      0.00
    2    0    4      4.44      0.00
    0    0    2     71.70      0.00
    2    0    0    -50.80      0.00
    4    0    2     10.47      0.00
    6    0    4     -5.17      0.00
    8    0    6     -3.07      0.00
    7    1    9     -0.02      0.00
    6    1    8     -1.22      0.00
    5    1    7      2.16      0.00
    4    1    6      0.37      0.00
    3    1    5     -3.27      0.00
    2    1    4     -3.23      0.00
    1    1    3     15.18      0.00
    0    1    2     34.71      0.00
   -1    1    1    -52.45      0.00
    2    1    0     -7.10      0.00
    3    1    1     10.49      0.00
    4    1    2      1.44      0.00
    5    1    3      7.98      0.00
    6    1    4     -0.70      0.00
    7    1    5     -0.63      0.00
    8    1    6      0.48      0.00
    9    1    7      1.50      0.00
    7    2    9     -1.54      0.00
    6    2    8      2.82      0.00
    5    2    7     -0.94      0.00
    4    2    6     -1.87      0.00
    3    2    5     -0.27      0.00
    2    2    4      1.51      0.00
    1    2    3      1.52      0.00
    0    2    2     50.15      0.00
   -1    2    1     53.36      0.00
    2    2    0    -18.13      0.00
    3    2    1      4.36      0.00
    4    2    2      3.15      0.00
    5    2    3     -2.36      0.00
    6    2    4     -2.68      0.00
    7    2    5      1.06      0.00
    8    2    6     -1.98      0.00
    9    2    7      0.12      0.00
    7    3    9     -0.79      0.00
    6    3    8     -1.22      0.00
    5    3    7     -4.43      0.00
    4    3    6      0.88      0.00
    3    3    5     -0.67      0.00
    2    3    4     -2.67      0.00
    0    3    2     27.62      0.00
   -1    3    1     -3.70      0.00
    2    3    0     -9.09      0.00
    3    3    1      9.38      0.00
    4    3    2     -0.13      0.00
    5    3    3      1.24      0.00
    6    3    4      0.42      0.00
    7    3    5      2.05      0.00
    8    3    6      0.04      0.00
    6    4    8     -3.03      0.00
    5    4    7      2.10      0.00
    4    4    6     -2.38      0.00
    3    4    5      2.79      0.00
    2    4    4      3.17      0.00
    0    4    2     12.48      0.00
   -1    4    1     13.28      0.00
    2    4    0      5.81      0.00
    3    4    1      3.76      0.00
    4    4    2      0.76      0.00
    5    4    3      0.90      0.00
    6    4    4     -0.59      0.00
    7    4    5     -1.06      0.00
    8    4    6     -1.12      0.00
    6    5    8      0.93      0.00
    5    5    7     -4.84      0.00
    4    5    6     -1.36      0.00
    3    5    5      1.51      0.00
    2    5    4      1.14      0.00
    1    5    3     -1.55      0.00
    0    5    2      5.18      0.00
   -1    5    1      2.83      0.00
    2    5    0     -4.46      0.00
    3    5    1      7.43      0.00
    4    5    2     -0.70      0.00
    5    5    3     -4.42      0.00
    6    5    4      2.62      0.00
    7    5    5      2.38      0.00
    8    5    6      0.77      0.00
    6    6    8      0.54      0.00
    5    6    7      2.46      0.00
    4    6    6      2.32      0.00
    3    6    5      2.11      0.00
    2    6    4      4.66      0.00
    1    6    3     -4.40      0.00
    0    6    2      0.76      0.00
   -1    6    1     -5.50      0.00
    2    6    0      3.73      0.00
    3    6    1      1.59      0.00
    4    6    2     -3.21      0.00
    5    6    3      0.10      0.00
    6    6    4     -1.20      0.00
    7    6    5     -2.38      0.00
    8    6    6     -1.66      0.00
    6    7    8     -0.65      0.00
    5    7    7     -0.93      0.00
    4    7    6      0.35      0.00
    3    7    5      2.31      0.00
    2    7    4      0.23      0.00
    1    7    3     -7.32      0.00
    0    7    2     -6.06      0.00
   -1    7    1     -4.77      0.00
    2    7    0     -1.08      0.00
    3    7    1      4.82      0.00
    4    7    2     -0.64      0.00
    5    7    3     -2.13      0.00
    6    7    4      4.74      0.00
    7    7    5      0.28      0.00
    8    7    6      0.89      0.00
    6    8    8      0.60      0.00
    5    8    7      0.44      0.00
    4    8    6      1.05      0.00
    3    8    5      0.93      0.00
    2    8    4      1.95      0.00
    1    8    3     -3.45      0.00
    0    8    2     -1.42      0.00
   -1    8    1     -4.03      0.00
    2    8    0      0.32      0.00
    3    8    1      3.63      0.00
    4    8    2     -1.95      0.00
    5    8    3     -0.20      0.00
    6    8    4      0.88      0.00
    7    8    5     -0.19      0.00
    8    8    6     -1.95      0.00
    5    9    7     -1.17      0.00
    4    9    6     -1.49      0.00
    3    9    5      0.91      0.00
    2    9    4      3.05      0.00
    1    9    3     -3.04      0.00
    0    9    2      0.99      0.00
   -1    9    1     -4.32      0.00
    2    9    0     -0.17      0.00
    3    9    1      2.28      0.00
    4    9    2     -1.75      0.00
    5    9    3      0.35      0.00
    6    9    4      4.39      0.00
    7    9    5      1.64      0.00
    5   10    7      1.45      0.00
    4   10    6      1.96      0.00
    3   10    5      0.32      0.00
    2   10    4      1.73      0.00
    1   10    3      0.24      0.00
    0   10    2      3.13      0.00
   -1   10    1      0.21      0.00
    2   10    0     -1.83      0.00
    3   10    1     -0.22      0.00
    4   10    2     -1.35      0.00
    5   10    3      0.63      0.00
    6   10    4      1.31      0.00
    7   10    5      1.47      0.00
    5   11    7     -1.22      0.00
    4   11    6     -1.44      0.00
    3   11    5     -1.31      0.00
    2   11    4      2.25      0.00
    1   11    3     -1.22      0.00
    0   11    2      2.36      0.00
   -1   11    1     -0.74      0.00
    2   11    0     -2.34      0.00
    3   11    1     -1.18      0.00
    4   11    2     -1.82      0.00
    5   11    3     -0.79      0.00
    6   11    4      1.38      0.00
    4   12    6      0.20      0.00
    3   12    5      0.10      0.00
    2   12    4      0.00      0.00
    1   12    3      0.32      0.00
    0   12    2      1.43      0.00
   -1   12    1      0.78      0.00
    2   12    0     -0.77      0.00
    3   12    1     -0.17      0.00
    4   12    2     -0.88      0.00
    5   12    3     -0.47      0.00
    6   12    4      1.21      0.00
    3   13    5      0.01      0.00
    2   13    4      1.96      0.00
    1   13    3     -0.28      0.00
    0   13    2      0.61      0.00
   -1   13    1     -0.08      0.00
    2   13    0     -2.08      0.00
    3   13    1     -1.16      0.00
    4   13    2     -1.71      0.00
    5   13    3     -0.76      0.00
    3   14    5     -0.59      0.00
    2   14    4      0.64      0.00
    1   14    3     -0.14      0.00
    0   14    2      1.10      0.00
   -1   14    1     -1.25      0.00
    2   14    0      0.56      0.00
    3   14    1      0.53      0.00
    4   14    2     -1.59      0.00
    5   14    3      0.02      0.00
    2   15    4      2.43      0.00
    1   15    3      0.38      0.00
    0   15    2      0.44      0.00
   -1   15    1      0.63      0.00
    2   15    0     -0.44      0.00
    3   15    1      0.76      0.00
    0   16    2      1.27      0.00
   -1   16    1     -0.54      0.00
    5    0    8     -1.12      0.00
    3    0    6     -0.57      0.00
   -1    0    2     82.15      0.00
    3    0    0    -16.32      0.00
    5    0    2     -3.57      0.00
    7    0    4      0.83      0.00
    9    0    6     -0.82      0.00
    6    1    9     -3.19      0.00
    5    1    8     -1.03      0.00
    4    1    7      0.69      0.00
    3    1    6     -0.04      0.00
    2    1    5     -7.23      0.00
    1    1    4     -0.61      0.00
    0    1    3    -22.87      0.00
   -1    1    2    -10.69      0.00
   -2    1    1     39.29      0.00
    3    1    0     -4.53      0.00
    4    1    1     -3.79      0.00
    5    1    2      4.46      0.00
    6    1    3      8.73      0.00
    7    1    4     -1.13      0.00
    8    1    5      2.52      0.00
    9    1    6      0.36      0.00
    6    2    9     -0.03      0.00
    5    2    8      2.02      0.00
    4    2    7     -3.58      0.00
    3    2    6      0.04      0.00
    2    2    5      2.96      0.00
    0    2    3    -18.90      0.00
   -1    2    2     26.39      0.00
   -2    2    1      7.28      0.00
    3    2    0    -10.54      0.00
    4    2    1      2.72      0.00
    5    2    2     -2.03      0.00
    6    2    3      3.59      0.00
    7    2    4      0.09      0.00
    8    2    5     -0.76      0.00
    9    2    6     -0.21      0.00
    6    3    9      1.26      0.00
    5    3    8     -4.69      0.00
    4    3    7      0.96      0.00
    3    3    6     -1.30      0.00
    2    3    5     -0.51      0.00
    1    3    4      1.35      0.00
    0    3    3    -13.65      0.00
   -1    3    2    -12.27      0.00
   -2    3    1     -0.02      0.00
    3    3    0     -6.99      0.00
    4    3    1      0.81      0.00
    5    3    2      3.43      0.00
    6    3    3      3.77      0.00
    7    3    4      0.24      0.00
    8    3    5      1.77      0.00
    9    3    6     -0.65      0.00
    6    4    9      0.78      0.00
    5    4    8      5.40      0.00
    4    4    7     -0.68      0.00
    3    4    6     -1.36      0.00
    2    4    5      3.01      0.00
    1    4    4      3.98      0.00
    0    4    3     -9.64      0.00
   -1    4    2    -12.09      0.00
   -2    4    1     -3.84      0.00
    3    4    0     -8.87      0.00
    4    4    1      1.26      0.00
    5    4    2      1.20      0.00
    6    4    3      1.43      0.00
    7    4    4     -1.90      0.00
    8    4    5     -0.31      0.00
    9    4    6     -1.16      0.00
    6    5    9      1.34      0.00
    5    5    8     -0.49      0.00
    4    5    7     -0.97      0.00
    3    5    6     -0.50      0.00
    2    5    5     -4.05      0.00
    1    5    4      2.20      0.00
    0    5    3     -7.75      0.00
   -1    5    2     -1.05      0.00
   -2    5    1     -7.04      0.00
    3    5    0     -2.83      0.00
    4    5    1      4.54      0.00
    5    5    2      1.21      0.00
    6    5    3      0.76      0.00
    7    5    4      1.39      0.00
    8    5    5      1.11      0.00
    9    5    6     -0.15      0.00
    6    6    9      0.68      0.00
    5    6    8      0.96      0.00
    4    6    7      0.70      0.00
    3    6    6     -1.01      0.00
    2    6    5      1.09      0.00
    1    6    4      3.62      0.00
    0    6    3     -2.09      0.00
   -1    6    2     -8.52      0.00
   -2    6    1     -7.65      0.00
    3    6    0     -6.79      0.00
    4    6    1      1.07      0.00
    5    6    2      3.29      0.00
    6    6    3     -5.36      0.00
    7    6    4     -1.94      0.00
    8    6    5      0.67      0.00
    5    7    8     -0.19      0.00
    4    7    7     -3.16      0.00
    3    7    6      0.02      0.00
    2    7    5     -1.48      0.00
    1    7    4      5.05      0.00
    0    7    3      2.49      0.00
   -1    7    2      1.89      0.00
   -2    7    1     -2.38      0.00
    3    7    0     -2.26      0.00
    4    7    1      3.58      0.00
    5    7    2     -0.93      0.00
    6    7    3     -1.14      0.00
    7    7    4      1.09      0.00
    8    7    5      1.59      0.00
    5    8    8      1.28      0.00
    4    8    7      0.77      0.00
    3    8    6     -1.08      0.00
    2    8    5     -1.95      0.00
    1    8    4      7.45      0.00
    0    8    3      3.33      0.00
   -1    8    2      3.57      0.00
   -2    8    1     -1.91      0.00
    3    8    0     -5.74      0.00
    4    8    1      0.18      0.00
    5    8    2      1.23      0.00
    6    8    3     -5.37      0.00
    7    8    4     -3.29      0.00
    8    8    5     -0.67      0.00
    5    9    8     -0.12      0.00
    4    9    7     -1.06      0.00
    3    9    6      1.51      0.00
    2    9    5     -0.62      0.00
    1    9    4      1.41      0.00
    0    9    3      0.88      0.00
   -1    9    2      2.26      0.00
   -2    9    1      1.57      0.00
    3    9    0     -1.61      0.00
    4    9    1      4.02      0.00
    5    9    2     -0.45      0.00
    6    9    3     -2.11      0.00
    7    9    4     -1.63      0.00
    8    9    5      0.68      0.00
    4   10    7      1.02      0.00
    3   10    6      0.96      0.00
    2   10    5     -2.85      0.00
    1   10    4      0.56      0.00
    0   10    3     -1.87      0.00
   -1   10    2      0.96      0.00
   -2   10    1     -1.17      0.00
    3   10    0      0.51      0.00
    4   10    1      2.08      0.00
    5   10    2      0.72      0.00
    6   10    3     -1.79      0.00
    7   10    4     -0.35      0.00
    4   11    7     -1.57      0.00
    3   11    6     -0.12      0.00
    2   11    5     -0.51      0.00
    1   11    4     -0.16      0.00
    0   11    3     -1.69      0.00
   -1   11    2      0.72      0.00
   -2   11    1      1.82      0.00
    3   11    0     -0.51      0.00
    4   11    1      0.26      0.00
    5   11    2      0.05      0.00
    6   11    3     -0.01      0.00
    7   11    4      0.93      0.00
    3   12    6      0.86      0.00
    2   12    5     -1.88      0.00
    1   12    4      0.34      0.00
    0   12    3     -1.55      0.00
   -1   12    2     -1.28      0.00
   -2   12    1     -2.35      0.00
    3   12    0      0.47      0.00
    4   12    1      1.23      0.00
    5   12    2     -0.03      0.00
    6   12    3      1.44      0.00
    3   13    6      0.43      0.00
    2   13    5     -0.41      0.00
    1   13    4      1.08      0.00
    0   13    3     -1.09      0.00
   -1   13    2      0.77      0.00
   -2   13    1     -0.17      0.00
    3   13    0     -1.52      0.00
    4   13    1     -0.23      0.00
    5   13    2      0.26      0.00
    6   13    3     -0.59      0.00
    2   14    5     -2.42      0.00
    1   14    4      0.24      0.00
    0   14    3      0.63      0.00
   -1   14    2      0.14      0.00
   -2   14    1     -0.32      0.00
    3   14    0     -0.86      0.00
    4   14    1     -0.15      0.00
    5   14    2     -0.04      0.00
    1   15    4      0.64      0.00
    0   15    3     -0.30      0.00
   -1   15    2      1.35      0.00
   -2   15    1     -0.43      0.00
    3   15    0     -0.74      0.00
    4   15    1     -0.04      0.00
   -1   16    2      0.90      0.00
   -2   16    1     -2.41      0.00
    6    0   10      2.10      0.00
    4    0    8     -1.85      0.00
    2    0    6      6.77      0.00
    0    0    4      7.60      0.00
   -2    0    2    -23.26      0.00
    4    0    0     -2.72      0.00
    6    0    2    -14.92      0.00
    8    0    4     -0.34      0.00
   10    0    6     -0.68      0.00
    6    1   10     -0.49      0.00
    5    1    9     -2.38      0.00
    4    1    8      2.63      0.00
    3    1    7      0.10      0.00
    2    1    6      0.40      0.00
    1    1    5      2.20      0.00
    0    1    4      3.94      0.00
   -1    1    3    -41.65      0.00
   -2    1    2    -15.10      0.00
   -3    1    1     13.58      0.00
    4    1    0     -5.08      0.00
    5    1    1     -3.30      0.00
    6    1    2     -1.79      0.00
    7    1    3     -0.58      0.00
    8    1    4      0.88      0.00
    9    1    5     -0.57      0.00
    6    2   10      0.60      0.00
    5    2    9      5.08      0.00
    4    2    8     -1.27      0.00
    3    2    7      0.26      0.00
    2    2    6      3.82      0.00
    1    2    5      2.14      0.00
    0    2    4      5.77      0.00
   -1    2    3    -11.09      0.00
   -2    2    2    -15.89      0.00
   -3    2    1     -5.92      0.00
    4    2    0     -2.50      0.00
    5    2    1     -4.34      0.00
    6    2    2     -8.50      0.00
    7    2    3      1.02      0.00
    8    2    4     -1.50      0.00
    9    2    5      1.39      0.00
    6    3   10     -0.11      0.00
    5    3    9     -2.33      0.00
    4    3    8      3.04      0.00
    3    3    7      1.43      0.00
    2    3    6     -2.78      0.00
    1    3    5     -4.69      0.00
    0    3    4      4.11      0.00
   -1    3    3     -0.13      0.00
   -2    3    2    -11.46      0.00
   -3    3    1      5.66      0.00
    4    3    0     -2.30      0.00
    5    3    1      1.22      0.00
    6    3    2     -3.56      0.00
    7    3    3      1.45      0.00
    8    3    4      1.99      0.00
    9    3    5      1.50      0.00
    5    4    9      2.25      0.00
    4    4    8      3.01      0.00
    3    4    7      0.47      0.00
    2    4    6      0.55      0.00
    1    4    5     -6.51      0.00
    0    4    4      1.14      0.00
   -1    4    3     -8.11      0.00
   -2    4    2     -2.00      0.00
   -3    4    1     -8.17      0.00
    4    4    0     -5.38      0.00
    5    4    1     -4.44      0.00
    6    4    2      0.28      0.00
    7    4    3      1.78      0.00
    8    4    4     -0.63      0.00
    9    4    5      2.13      0.00
    5    5    9     -1.35      0.00
    4    5    8     -1.54      0.00
    3    5    7      0.98      0.00
    2    5    6     -3.32      0.00
    1    5    5     -6.17      0.00
    0    5    4      0.31      0.00
   -1    5    3     14.16      0.00
   -2    5    2      5.94      0.00
   -3    5    1      3.51      0.00
    4    5    0      0.42      0.00
    5    5    1     -0.41      0.00
    6    5    2      1.44      0.00
    7    5    3      3.76      0.00
    8    5    4      0.04      0.00
    9    5    5      0.21      0.00
    5    6    9     -0.86      0.00
    4    6    8      2.86      0.00
    3    6    7     -1.23      0.00
    2    6    6      0.51      0.00
    1    6    5     -3.94      0.00
    0    6    4      3.11      0.00
   -1    6    3      2.97      0.00
   -2    6    2      0.89      0.00
   -3    6    1     -5.11      0.00
    4    6    0     -5.59      0.00
    5    6    1     -1.57      0.00
    6    6    2      2.40      0.00
    7    6    3      0.45      0.00
    8    6    4     -1.11      0.00
    9    6    5     -0.45      0.00
    5    7    9     -0.26      0.00
    4    7    8     -0.14      0.00
    3    7    7      0.70      0.00
    2    7    6      0.47      0.00
    1    7    5     -8.35      0.00
    0    7    4      0.56      0.00
   -1    7    3      8.25      0.00
   -2    7    2      7.02      0.00
   -3    7    1      8.31      0.00
    4    7    0      0.57      0.00
    5    7    1     -1.05      0.00
    6    7    2      4.82      0.00
    7    7    3      3.09      0.00
    8    7    4      0.28      0.00
    9    7    5     -0.08      0.00
    5    8    9     -1.47      0.00
    4    8    8      1.24      0.00
    3    8    7     -1.70      0.00
    2    8    6     -0.72      0.00
    1    8    5     -3.22      0.00
    0    8    4     -3.67      0.00
   -1    8    3     -1.85      0.00
   -2    8    2      0.22      0.00
   -3    8    1     -1.52      0.00
    4    8    0     -4.02      0.00
    5    8    1     -0.21      0.00
    6    8    2      1.46      0.00
    7    8    3      0.92      0.00
    8    8    4      0.18      0.00
    4    9    8     -1.28      0.00
    3    9    7     -0.59      0.00
    2    9    6      1.91      0.00
    1    9    5     -2.24      0.00
    0    9    4     -2.79      0.00
   -1    9    3     -0.77      0.00
   -2    9    2      1.09      0.00
   -3    9    1      3.07      0.00
    4    9    0     -1.98      0.00
    5    9    1     -1.87      0.00
    6    9    2      1.57      0.00
    7    9    3      1.54      0.00
    8    9    4     -1.36      0.00
    4   10    8     -0.06      0.00
    3   10    7     -0.93      0.00
    2   10    6     -0.16      0.00
    1   10    5     -0.13      0.00
    0   10    4      0.40      0.00
   -1   10    3     -3.32      0.00
   -2   10    2     -2.09      0.00
   -3   10    1     -1.21      0.00
    4   10    0     -2.12      0.00
    5   10    1      1.36      0.00
    6   10    2     -0.37      0.00
    7   10    3     -1.26      0.00
    8   10    4     -2.24      0.00
    3   11    7     -0.71      0.00
    2   11    6      2.31      0.00
    1   11    5      0.71      0.00
    0   11    4      2.20      0.00
   -1   11    3      0.98      0.00
   -2   11    2      0.73      0.00
   -3   11    1      0.13      0.00
    4   11    0     -0.15      0.00
    5   11    1      0.46      0.00
    6   11    2     -0.66      0.00
    7   11    3     -3.03      0.00
    3   12    7     -0.08      0.00
    2   12    6      1.14      0.00
    1   12    5     -1.12      0.00
    0   12    4      0.77      0.00
   -1   12    3     -0.92      0.00
   -2   12    2     -1.42      0.00
   -3   12    1     -1.57      0.00
    4   12    0      1.48      0.00
    5   12    1      0.78      0.00
    6   12    2      0.44      0.00
    7   12    3     -2.31      0.00
    2   13    6      2.50      0.00
    1   13    5      1.15      0.00
    0   13    4      0.27      0.00
   -1   13    3      1.28      0.00
   -2   13    2      1.63      0.00
   -3   13    1      1.44      0.00
    4   13    0      0.33      0.00
    5   13    1      1.72      0.00
    6   13    2     -1.99      0.00
    1   14    5     -0.99      0.00
    0   14    4      0.12      0.00
   -1   14    3     -1.26      0.00
   -2   14    2     -0.31      0.00
   -3   14    1     -1.77      0.00
    4   14    0      0.48      0.00
    5   14    1     -0.50      0.00
    0   15    4     -0.80      0.00
   -1   15    3     -2.49      0.00
   -2   15    2      1.43      0.00
   -3   15    1      0.43      0.00
    4   15    0     -0.17      0.00
    5    0   10      2.56      0.00
    3    0    8      0.37      0.00
    1    0    6      2.17      0.00
   -1    0    4     20.12      0.00
   -3    0    2    -10.90      0.00
    5    0    0      7.49      0.00
    7    0    2     -0.48      0.00
    9    0    4      1.32      0.00
    5    1   10     -2.29      0.00
    4    1    9      3.08      0.00
    3    1    8      0.85      0.00
    2    1    7     -3.48      0.00
    1    1    6     -1.87      0.00
    0    1    5     -1.86      0.00
   -1    1    4      8.34      0.00
   -2    1    3      4.43      0.00
   -3    1    2     -3.43      0.00
   -4    1    1      7.03      0.00
    5    1    0     -0.22      0.00
    6    1    1     12.35      0.00
    7    1    2     -1.66      0.00
    8    1    3     -0.71      0.00
    9    1    4     -1.17      0.00
   10    1    5     -0.93      0.00
    5    2   10      2.04      0.00
    4    2    9     -1.20      0.00
    3    2    8     -0.59      0.00
    2    2    7      1.03      0.00
    1    2    6      0.51      0.00
    0    2    5     -4.75      0.00
   -1    2    4      6.70      0.00
   -2    2    3     13.33      0.00
   -3    2    2     -7.34      0.00
   -4    2    1     -3.95      0.00
    5    2    0      0.38      0.00
    6    2    1     -1.74      0.00
    7    2    2     -1.86      0.00
    8    2    3     -2.02      0.00
    9    2    4     -0.50      0.00
   10    2    5     -1.77      0.00
    5    3   10     -3.91      0.00
    4    3    9     -2.44      0.00
    3    3    8      1.62      0.00
    2    3    7     -0.99      0.00
    1    3    6     -0.15      0.00
    0    3    5     -3.10      0.00
   -1    3    4     15.18      0.00
   -2    3    3     12.58      0.00
   -3    3    2      6.74      0.00
   -4    3    1      0.43      0.00
    5    3    0      3.67      0.00
    6    3    1      2.99      0.00
    7    3    2     -5.48      0.00
    8    3    3     -0.54      0.00
    9    3    4     -2.70      0.00
   10    3    5     -2.23      0.00
    5    4   10     -0.35      0.00
    4    4    9      0.62      0.00
    3    4    8     -1.57      0.00
    2    4    7      3.06      0.00
    1    4    6      3.92      0.00
    0    4    5      2.56      0.00
   -1    4    4     -7.65      0.00
   -2    4    3      3.83      0.00
   -3    4    2     -1.88      0.00
   -4    4    1      0.85      0.00
    5    4    0     -3.20      0.00
    6    4    1     -0.06      0.00
    7    4    2     -4.28      0.00
    8    4    3     -2.14      0.00
    9    4    4      0.85      0.00
   10    4    5      0.12      0.00
    5    5   10     -0.35      0.00
    4    5    9     -3.63      0.00
    3    5    8      0.69      0.00
    2    5    7      0.63      0.00
    1    5    6      5.39      0.00
    0    5    5      0.94      0.00
   -1    5    4      6.05      0.00
   -2    5    3     11.10      0.00
   -3    5    2      9.62      0.00
   -4    5    1      4.62      0.00
    5    5    0      4.40      0.00
    6    5    1     -3.54      0.00
    7    5    2     -2.92      0.00
    8    5    3      1.42      0.00
    9    5    4     -0.71      0.00
   10    5    5      0.52      0.00
    5    6   10      0.44      0.00
    4    6    9      0.90      0.00
    3    6    8     -0.20      0.00
    2    6    7      0.96      0.00
    1    6    6      8.30      0.00
    0    6    5     -0.13      0.00
   -1    6    4    -11.84      0.00
   -2    6    3     -5.89      0.00
   -3    6    2     -3.06      0.00
   -4    6    1      5.67      0.00
    5    6    0     -0.65      0.00
    6    6    1     -1.72      0.00
    7    6    2     -2.51      0.00
    8    6    3     -0.74      0.00
    9    6    4      1.11      0.00
    4    7    9     -1.19      0.00
    3    7    8      1.58      0.00
    2    7    7      1.01      0.00
    1    7    6      2.68      0.00
    0    7    5     -0.05      0.00
   -1    7    4     -3.54      0.00
   -2    7    3      1.38      0.00
   -3    7    2      5.34      0.00
   -4    7    1      6.22      0.00
    5    7    0      2.32      0.00
    6    7    1     -2.60      0.00
    7    7    2     -1.34      0.00
    8    7    3      0.10      0.00
    9    7    4     -0.02      0.00
    4    8    9     -0.46      0.00
    3    8    8     -0.21      0.00
    2    8    7     -0.28      0.00
    1    8    6      3.88      0.00
    0    8    5      4.60      0.00
   -1    8    4     -6.51      0.00
   -2    8    3     -5.38      0.00
   -3    8    2     -5.47      0.00
   -4    8    1     -2.01      0.00
    5    8    0      0.44      0.00
    6    8    1     -1.53      0.00
    7    8    2     -1.45      0.00
    8    8    3      1.18      0.00
    9    8    4      0.98      0.00
    4    9    9      1.39      0.00
    3    9    8      0.82      0.00
    2    9    7      1.13      0.00
    1    9    6      2.04      0.00
    0    9    5      2.50      0.00
   -1    9    4      3.80      0.00
   -2    9    3      1.35      0.00
   -3    9    2     -0.33      0.00
   -4    9    1      2.42      0.00
    5    9    0     -0.66      0.00
    6    9    1     -0.47      0.00
    7    9    2      1.01      0.00
    8    9    3      1.90      0.00
    9    9    4     -0.52      0.00
    3   10    8      1.08      0.00
    2   10    7     -1.46      0.00
    1   10    6     -0.88      0.00
    0   10    5      0.20      0.00
   -1   10    4      0.37      0.00
   -2   10    3     -0.87      0.00
   -3   10    2     -1.69      0.00
   -4   10    1     -0.76      0.00
    5   10    0     -0.18      0.00
    6   10    1     -0.78      0.00
    7   10    2      1.19      0.00
    8   10    3      2.93      0.00
    3   11    8      0.77      0.00
    2   11    7     -0.72      0.00
    1   11    6      1.51      0.00
    0   11    5     -0.45      0.00
   -1   11    4      2.35      0.00
   -2   11    3      3.57      0.00
   -3   11    2      0.42      0.00
   -4   11    1     -0.12      0.00
    5   11    0     -2.50      0.00
    6   11    1     -0.11      0.00
    7   11    2      0.34      0.00
    8   11    3      1.78      0.00
    2   12    7     -1.66      0.00
    1   12    6     -1.65      0.00
    0   12    5     -0.29      0.00
   -1   12    4     -1.37      0.00
   -2   12    3     -1.35      0.00
   -3   12    2     -1.17      0.00
   -4   12    1      0.70      0.00
    5   12    0     -1.14      0.00
    6   12    1     -0.02      0.00
    7   12    2      1.64      0.00
    2   13    7      0.02      0.00
    1   13    6      0.70      0.00
    0   13    5     -0.54      0.00
   -1   13    4      0.66      0.00
   -2   13    3      0.51      0.00
   -3   13    2      0.92      0.00
   -4   13    1     -0.61      0.00
    5   13    0      0.60      0.00
    6   13    1     -0.91      0.00
    7   13    2     -0.25      0.00
    1   14    6     -1.87      0.00
    0   14    5     -1.02      0.00
   -1   14    4      0.07      0.00
   -2   14    3     -2.42      0.00
   -3   14    2     -1.10      0.00
   -4   14    1     -0.14      0.00
    5   14    0     -0.34      0.00
    6   14    1      1.64      0.00
    0   15    5      0.35      0.00
   -1   15    4      0.44      0.00
   -2   15    3      1.73      0.00
   -3   15    2      0.37      0.00
   -4   15    1      0.88      0.00
    5   15    0      1.73      0.00
    4    0   10     -3.08      0.00
    2    0    8      2.94      0.00
    0    0    6     -4.25      0.00
   -2    0    4      2.94      0.00
   -4    0    2    -12.40      0.00
    6    0    0     -6.89      0.00
    8    0    2      0.53      0.00
   10    0    4      3.19      0.00
    5    1   11     -0.84      0.00
    4    1   10     -0.11      0.00
    3    1    9      1.49      0.00
    2    1    8     -0.82      0.00
    1    1    7     -2.43      0.00
    0    1    6      1.07      0.00
   -1    1    5     -4.86      0.00
   -2    1    4     -1.77      0.00
   -3    1    3      4.71      0.00
   -4    1    2     -1.26      0.00
   -5    1    1     -2.35      0.00
    6    1    0      3.97      0.00
    7    1    1      4.49      0.00
    8    1    2      1.51      0.00
    9    1    3     -0.74      0.00
   10    1    4      2.13      0.00
    5    2   11      3.04      0.00
    4    2   10     -0.30      0.00
    3    2    9     -3.02      0.00
    2    2    8      0.47      0.00
    1    2    7      0.71      0.00
    0    2    6      0.85      0.00
   -1    2    5     -9.09      0.00
   -2    2    4     -3.76      0.00
   -3    2    3      2.27      0.00
   -4    2    2      1.95      0.00
   -5    2    1     -1.98      0.00
    6    2    0     -6.75      0.00
    7    2    1      6.10      0.00
    8    2    2      2.52      0.00
    9    2    3      1.17      0.00
   10    2    4      2.34      0.00
    4    3   10     -1.47      0.00
    3    3    9      1.30      0.00
    2    3    8     -2.23      0.00
    1    3    7      0.52      0.00
    0    3    6      2.49      0.00
   -1    3    5      7.61      0.00
   -2    3    4     -3.19      0.00
   -3    3    3      6.99      0.00
   -4    3    2     -1.98      0.00
   -5    3    1      4.08      0.00
    6    3    0      3.56      0.00
    7    3    1      3.45      0.00
    8    3    2      1.31      0.00
    9    3    3     -1.09      0.00
   10    3    4     -0.45      0.00
    4    4   10      3.12      0.00
    3    4    9     -1.98      0.00
    2    4    8     -1.34      0.00
    1    4    7     -0.44      0.00
    0    4    6      3.33      0.00
   -1    4    5     -6.17      0.00
   -2    4    4    -16.36      0.00
   -3    4    3     -7.20      0.00
   -4    4    2      4.71      0.00
   -5    4    1      5.77      0.00
    6    4    0     -0.28      0.00
    7    4    1      5.18      0.00
    8    4    2     -0.99      0.00
    9    4    3      0.01      0.00
   10    4    4     -0.17      0.00
    4    5   10     -0.51      0.00
    3    5    9      0.27      0.00
    2    5    8     -1.88      0.00
    1    5    7     -4.33      0.00
    0    5    6      0.59      0.00
   -1    5    5      7.59      0.00
   -2    5    4      1.59      0.00
   -3    5    3      2.04      0.00
   -4    5    2     -3.65      0.00
   -5    5    1      4.60      0.00
    6    5    0      0.25      0.00
    7    5    1      0.66      0.00
    8    5    2      0.59      0.00
    9    5    3     -2.57      0.00
   10    5    4     -0.53      0.00
    4    6   10      1.20      0.00
    3    6    9     -0.74      0.00
    2    6    8     -0.71      0.00
    1    6    7     -2.02      0.00
    0    6    6      0.38      0.00
   -1    6    5      0.20      0.00
   -2    6    4    -10.42      0.00
   -3    6    3     -8.33      0.00
   -4    6    2     -5.33      0.00
   -5    6    1      5.51      0.00
    6    6    0      3.20      0.00
    7    6    1      1.66      0.00
    8    6    2     -1.48      0.00
    9    6    3      0.60      0.00
   10    6    4     -0.39      0.00
    4    7   10      0.20      0.00
    3    7    9     -0.25      0.00
    2    7    8     -0.73      0.00
    1    7    7     -2.67      0.00
    0    7    6     -2.99      0.00
   -1    7    5     11.11      0.00
   -2    7    4      6.08      0.00
   -3    7    3      0.92      0.00
   -4    7    2     -3.32      0.00
   -5    7    1     -1.37      0.00
    6    7    0      1.60      0.00
    7    7    1      0.48      0.00
    8    7    2      0.30      0.00
    9    7    3     -2.40      0.00
   10    7    4      0.64      0.00
    3    8    9     -0.26      0.00
    2    8    8     -1.21      0.00
    1    8    7     -1.89      0.00
    0    8    6     -0.65      0.00
   -1    8    5      2.15      0.00
   -2    8    4     -1.40      0.00
   -3    8    3     -1.64      0.00
   -4    8    2     -6.02      0.00
   -5    8    1      0.59      0.00
    6    8    0      2.71      0.00
    7    8    1      0.24      0.00
    8    8    2     -2.07      0.00
    9    8    3      0.03      0.00
    3    9    9     -0.08      0.00
    2    9    8      0.48      0.00
    1    9    7     -0.03      0.00
    0    9    6     -3.78      0.00
   -1    9    5      1.67      0.00
   -2    9    4      5.39      0.00
   -3    9    3      2.69      0.00
   -4    9    2      1.84      0.00
   -5    9    1      1.32      0.00
    6    9    0      1.14      0.00
    7    9    1      0.78      0.00
    8    9    2     -2.83      0.00
    9    9    3     -0.02      0.00
    3   10    9     -0.63      0.00
    2   10    8      0.03      0.00
    1   10    7     -1.78      0.00
    0   10    6     -0.98      0.00
   -1   10    5     -3.14      0.00
   -2   10    4     -3.36      0.00
   -3   10    3      1.82      0.00
   -4   10    2     -0.70      0.00
   -5   10    1     -1.38      0.00
    6   10    0      1.25      0.00
    7   10    1      0.34      0.00
    8   10    2     -0.83      0.00
    9   10    3      2.11      0.00
    2   11    8      0.54      0.00
    1   11    7      1.85      0.00
    0   11    6      0.03      0.00
   -1   11    5      0.82      0.00
   -2   11    4      1.28      0.00
   -3   11    3      0.86      0.00
   -4   11    2     -0.48      0.00
   -5   11    1      0.33      0.00
    6   11    0      1.52      0.00
    7   11    1     -0.40      0.00
    8   11    2      0.23      0.00
    2   12    8     -0.19      0.00
    1   12    7     -1.90      0.00
    0   12    6     -0.48      0.00
   -1   12    5     -1.96      0.00
   -2   12    4     -2.43      0.00
   -3   12    3     -0.50      0.00
   -4   12    2      0.17      0.00
   -5   12    1      0.05      0.00
    6   12    0     -0.85      0.00
    7   12    1      2.01      0.00
    8   12    2      0.56      0.00
    1   13    7      1.05      0.00
    0   13    6      0.02      0.00
   -1   13    5      0.44      0.00
   -2   13    4      1.81      0.00
   -3   13    3      1.70      0.00
   -4   13    2     -0.52      0.00
   -5   13    1     -0.79      0.00
    6   13    0     -0.39      0.00
    7   13    1     -0.31      0.00
    0   14    6      0.51      0.00
   -1   14    5      0.93      0.00
   -2   14    4     -0.23      0.00
   -3   14    3      0.48      0.00
   -4   14    2     -0.59      0.00
   -5   14    1      2.03      0.00
    6   14    0      0.40      0.00
   -1   15    5      0.22      0.00
   -2   15    4      2.06      0.00
   -3   15    3      0.87      0.00
   -4   15    2      0.64      0.00
   -5   15    1     -1.26      0.00
    3    0   10     -2.00      0.00
    1    0    8      1.15      0.00
   -1    0    6      3.04      0.00
   -3    0    4      2.41      0.00
   -5    0    2     -1.09      0.00
    7    0    0     -8.94      0.00
    9    0    2      1.00      0.00
   11    0    4     -2.40      0.00
    4    1   11      1.80      0.00
    3    1   10      1.59      0.00
    2    1    9     -0.70      0.00
    1    1    8     -0.53      0.00
    0    1    7      5.01      0.00
   -1    1    6      5.84      0.00
   -2    1    5     -1.11      0.00
   -3    1    4      0.20      0.00
   -4    1    3      2.62      0.00
   -5    1    2      4.48      0.00
   -6    1    1      3.10      0.00
    7    1    0     -1.91      0.00
    8    1    1     -1.50      0.00
    9    1    2     -1.17      0.00
   10    1    3     -3.57      0.00
   11    1    4     -0.53      0.00
    4    2   11      0.35      0.00
    3    2   10     -2.19      0.00
    2    2    9      0.30      0.00
    1    2    8      0.75      0.00
    0    2    7      0.52      0.00
   -1    2    6     -3.10      0.00
   -2    2    5      0.22      0.00
   -3    2    4     -6.98      0.00
   -4    2    3      9.26      0.00
   -5    2    2     -1.89      0.00
   -6    2    1      3.44      0.00
    7    2    0     -4.15      0.00
    8    2    1     -1.13      0.00
    9    2    2      1.97      0.00
   10    2    3      0.42      0.00
   11    2    4      0.72      0.00
    4    3   11     -0.76      0.00
    3    3   10      2.83      0.00
    2    3    9      1.68      0.00
    1    3    8     -0.23      0.00
    0    3    7     -0.24      0.00
   -1    3    6      4.30      0.00
   -2    3    5      9.39      0.00
   -3    3    4      1.93      0.00
   -4    3    3     -8.12      0.00
   -5    3    2     -1.06      0.00
   -6    3    1      5.70      0.00
    7    3    0     -4.13      0.00
    8    3    1     -0.13      0.00
    9    3    2      2.08      0.00
   10    3    3     -0.42      0.00
   11    3    4      0.47      0.00
    4    4   11      1.33      0.00
    3    4   10      0.07      0.00
    2    4    9      1.52      0.00
    1    4    8      0.19      0.00
    0    4    7     -4.06      0.00
   -1    4    6     -7.80      0.00
   -2    4    5     -2.44      0.00
   -3    4    4     -4.32      0.00
   -4    4    3      1.47      0.00
   -5    4    2     -3.88      0.00
   -6    4    1      1.18      0.00
    7    4    0      1.10      0.00
    8    4    1      2.60      0.00
    9    4    2      0.79      0.00
   10    4    3      1.46      0.00
    4    5   11     -1.76      0.00
    3    5   10      0.73      0.00
    2    5    9      1.75      0.00
    1    5    8      0.10      0.00
    0    5    7     -3.18      0.00
   -1    5    6     -0.58      0.00
   -2    5    5     12.66      0.00
   -3    5    4      5.86      0.00
   -4    5    3     -1.58      0.00
   -5    5    2    -11.81      0.00
   -6    5    1     -0.73      0.00
    7    5    0     -2.09      0.00
    8    5    1      1.05      0.00
    9    5    2      0.16      0.00
   10    5    3     -0.22      0.00
    3    6   10      0.29      0.00
    2    6    9      1.22      0.00
    1    6    8      0.86      0.00
    0    6    7      0.05      0.00
   -1    6    6     -9.52      0.00
   -2    6    5     -2.99      0.00
   -3    6    4     -0.06      0.00
   -4    6    3     -1.18      0.00
   -5    6    2     -1.32      0.00
   -6    6    1      0.13      0.00
    7    6    0      1.02      0.00
    8    6    1     -0.67      0.00
    9    6    2      2.61      0.00
   10    6    3     -0.59      0.00
    3    7   10     -0.02      0.00
    2    7    9      0.68      0.00
    1    7    8     -0.01      0.00
    0    7    7     -2.13      0.00
   -1    7    6     -4.31      0.00
   -2    7    5      5.91      0.00
   -3    7    4      3.84      0.00
   -4    7    3      5.92      0.00
   -5    7    2     -4.55      0.00
   -6    7    1     -3.68      0.00
    7    7    0     -0.84      0.00
    8    7    1      2.00      0.00
    9    7    2     -0.41      0.00
   10    7    3     -1.61      0.00
    3    8   10      0.17      0.00
    2    8    9      0.06      0.00
    1    8    8     -0.60      0.00
    0    8    7      2.21      0.00
   -1    8    6     -6.54      0.00
   -2    8    5     -7.84      0.00
   -3    8    4      0.13      0.00
   -4    8    3      1.46      0.00
   -5    8    2      0.91      0.00
   -6    8    1      1.93      0.00
    7    8    0     -0.15      0.00
    8    8    1      0.46      0.00
    9    8    2      1.54      0.00
   10    8    3     -2.65      0.00
    3    9   10     -0.61      0.00
    2    9    9      0.76      0.00
    1    9    8      0.61      0.00
    0    9    7      0.98      0.00
   -1    9    6     -0.32      0.00
   -2    9    5      0.95      0.00
   -3    9    4     -0.63      0.00
   -4    9    3      2.77      0.00
   -5    9    2      0.49      0.00
   -6    9    1     -2.03      0.00
    7    9    0     -0.15      0.00
    8    9    1      1.21      0.00
    9    9    2     -1.91      0.00
    2   10    9     -0.27      0.00
    1   10    8     -1.68      0.00
    0   10    7      1.21      0.00
   -1   10    6     -0.71      0.00
   -2   10    5     -3.60      0.00
   -3   10    4     -1.92      0.00
   -4   10    3      0.32      0.00
   -5   10    2     -0.71      0.00
   -6   10    1      0.30      0.00
    7   10    0     -1.21      0.00
    8   10    1      1.25      0.00
    9   10    2     -2.09      0.00
    2   11    9     -0.29      0.00
    1   11    8      1.08      0.00
    0   11    7      0.32      0.00
   -1   11    6      1.91      0.00
   -2   11    5      2.26      0.00
   -3   11    4      0.31      0.00
   -4   11    3     -0.61      0.00
   -5   11    2     -0.72      0.00
   -6   11    1      0.20      0.00
    7   11    0     -0.42      0.00
    8   11    1     -0.85      0.00
    1   12    8     -0.31      0.00
    0   12    7     -0.18      0.00
   -1   12    6     -0.36      0.00
   -2   12    5     -0.73      0.00
   -3   12    4     -1.58      0.00
   -4   12    3      2.04      0.00
   -5   12    2      0.64      0.00
   -6   12    1      0.15      0.00
    7   12    0      1.26      0.00
    8   12    1     -1.28      0.00
    0   13    7      2.45      0.00
   -1   13    6      0.73      0.00
   -2   13    5      1.90      0.00
   -3   13    4      0.46      0.00
   -4   13    3     -0.16      0.00
   -5   13    2     -2.03      0.00
   -6   13    1      1.26      0.00
    7   13    0     -2.02      0.00
    0   14    7      0.05      0.00
   -1   14    6      0.69      0.00
   -2   14    5     -2.16      0.00
   -3   14    4     -0.81      0.00
   -4   14    3     -0.22      0.00
   -5   14    2      2.22      0.00
   -6   14    1     -0.13      0.00
   -2   15    5     -1.16      0.00
   -3   15    4     -0.26      0.00
   -4   15    3      0.62      0.00
   -5   15    2     -2.04      0.00
    2    0   10     -1.37      0.00
    0    0    8     -4.50      0.00
   -2    0    6      3.42      0.00
   -4    0    4      3.26      0.00
   -6    0    2     -0.92      0.00
    8    0    0      1.68      0.00
   10    0    2      3.37      0.00
    3    1   11     -0.02      0.00
    2    1   10      0.46      0.00
    1    1    9     -0.34      0.00
    0    1    8      0.08      0.00
   -1    1    7      1.86      0.00
   -2    1    6     -1.38      0.00
   -3    1    5     -0.49      0.00
   -4    1    4     -9.37      0.00
   -5    1    3      3.77      0.00
   -6    1    2      0.11      0.00
   -7    1    1      6.13      0.00
    8    1    0     -0.01      0.00
    9    1    1     -1.58      0.00
   10    1    2     -0.42      0.00
   11    1    3     -1.38      0.00
    3    2   11     -2.13      0.00
    2    2   10     -0.95      0.00
    1    2    9      0.93      0.00
    0    2    8     -3.56      0.00
   -1    2    7     -5.95      0.00
   -2    2    6     -3.88      0.00
   -3    2    5     -2.20      0.00
   -4    2    4      4.56      0.00
   -5    2    3     -2.78      0.00
   -6    2    2     -5.09      0.00
   -7    2    1      0.68      0.00
    8    2    0     -1.10      0.00
    9    2    1     -0.11      0.00
   10    2    2      0.15      0.00
   11    2    3     -0.37      0.00
    3    3   11      0.75      0.00
    2    3   10      0.92      0.00
    1    3    9      0.82      0.00
    0    3    8      1.01      0.00
   -1    3    7      2.92      0.00
   -2    3    6      1.21      0.00
   -3    3    5      3.30      0.00
   -4    3    4     -4.01      0.00
   -5    3    3     -2.56      0.00
   -6    3    2     -0.81      0.00
   -7    3    1     -0.60      0.00
    8    3    0     -2.14      0.00
    9    3    1     -2.05      0.00
   10    3    2     -0.62      0.00
   11    3    3     -1.19      0.00
    3    4   11     -1.33      0.00
    2    4   10     -1.94      0.00
    1    4    9      0.54      0.00
    0    4    8      0.66      0.00
   -1    4    7     -2.08      0.00
   -2    4    6     -9.30      0.00
   -3    4    5     -3.93      0.00
   -4    4    4      0.08      0.00
   -5    4    3     10.27      0.00
   -6    4    2     -5.19      0.00
   -7    4    1     -2.48      0.00
    8    4    0      0.22      0.00
    9    4    1     -1.43      0.00
   10    4    2      1.49      0.00
   11    4    3      0.29      0.00
    3    5   11     -0.51      0.00
    2    5   10     -0.26      0.00
    1    5    9      0.72      0.00
    0    5    8      2.32      0.00
   -1    5    7      7.55      0.00
   -2    5    6      0.34      0.00
   -3    5    5     -1.20      0.00
   -4    5    4      4.73      0.00
   -5    5    3     -1.59      0.00
   -6    5    2      0.19      0.00
   -7    5    1     -1.86      0.00
    8    5    0     -1.79      0.00
    9    5    1      1.69      0.00
   10    5    2     -0.14      0.00
   11    5    3      0.30      0.00
    3    6   11      0.41      0.00
    2    6   10     -0.71      0.00
    1    6    9      0.98      0.00
    0    6    8      2.76      0.00
   -1    6    7      2.98      0.00
   -2    6    6     -8.05      0.00
   -3    6    5     -3.47      0.00
   -4    6    4     -1.61      0.00
   -5    6    3     11.97      0.00
   -6    6    2      3.49      0.00
   -7    6    1     -0.95      0.00
    8    6    0      0.47      0.00
    9    6    1     -0.22      0.00
   10    6    2      1.88      0.00
   11    6    3      0.39      0.00
    3    7   11      0.00      0.00
    2    7   10      0.24      0.00
    1    7    9      0.49      0.00
    0    7    8      0.35      0.00
   -1    7    7      7.27      0.00
   -2    7    6      4.38      0.00
   -3    7    5     -1.23      0.00
   -4    7    4      2.00      0.00
   -5    7    3      1.98      0.00
   -6    7    2     -0.39      0.00
   -7    7    1     -1.09      0.00
    8    7    0      0.76      0.00
    9    7    1     -2.03      0.00
   10    7    2      3.36      0.00
    2    8   10     -0.83      0.00
    1    8    9      2.04      0.00
    0    8    8      0.96      0.00
   -1    8    7      3.94      0.00
   -2    8    6     -1.25      0.00
   -3    8    5     -2.41      0.00
   -4    8    4     -1.08      0.00
   -5    8    3      1.96      0.00
   -6    8    2      2.29      0.00
   -7    8    1      0.52      0.00
    8    8    0     -1.47      0.00
    9    8    1      1.44      0.00
   10    8    2      3.46      0.00
    2    9   10      0.13      0.00
    1    9    9      1.37      0.00
    0    9    8     -0.65      0.00
   -1    9    7      3.17      0.00
   -2    9    6      5.04      0.00
   -3    9    5      1.78      0.00
   -4    9    4     -1.63      0.00
   -5    9    3      0.08      0.00
   -6    9    2      0.29      0.00
   -7    9    1     -0.21      0.00
    8    9    0     -0.37      0.00
    9    9    1     -0.04      0.00
   10    9    2      1.74      0.00
    2   10   10      0.25      0.00
    1   10    9     -0.27      0.00
    0   10    8     -1.15      0.00
   -1   10    7     -0.84      0.00
   -2   10    6     -0.41      0.00
   -3   10    5     -0.93      0.00
   -4   10    4      1.67      0.00
   -5   10    3      0.73      0.00
   -6   10    2      0.08      0.00
   -7   10    1      1.30      0.00
    8   10    0     -0.29      0.00
    9   10    1      1.94      0.00
    1   11    9      0.76      0.00
    0   11    8      1.39      0.00
   -1   11    7      0.15      0.00
   -2   11    6      1.72      0.00
   -3   11    5      2.68      0.00
   -4   11    4     -3.01      0.00
   -5   11    3     -0.07      0.00
   -6   11    2      0.44      0.00
   -7   11    1      0.00      0.00
    8   11    0     -1.14      0.00
    9   11    1      1.43      0.00
    1   12    9     -0.31      0.00
    0   12    8     -1.67      0.00
   -1   12    7      0.30      0.00
   -2   12    6     -2.10      0.00
   -3   12    5     -1.12      0.00
   -4   12    4      0.66      0.00
   -5   12    3      2.46      0.00
   -6   12    2     -0.10      0.00
   -7   12    1      0.06      0.00
    8   12    0      0.12      0.00
    0   13    8     -1.51      0.00
   -1   13    7     -1.21      0.00
   -2   13    6      0.94      0.00
   -3   13    5     -0.08      0.00
   -4   13    4     -0.57      0.00
   -5   13    3     -1.84      0.00
   -6   13    2      0.39      0.00
   -7   13    1     -1.34      0.00
    8   13    0      0.20      0.00
   -1   14    7     -1.72      0.00
   -2   14    6     -0.86      0.00
   -3   14    5     -0.68      0.00
   -4   14    4     -0.21      0.00
   -5   14    3      3.33      0.00
   -6   14    2     -0.72      0.00
   -7   14    1     -1.72      0.00
   -3   15    5      0.47      0.00
   -4   15    4      0.32      0.00
   -5   15    3     -1.76      0.00
    3    0   12      3.55      0.00
    1    0   10      0.48      0.00
   -1    0    8     -3.55      0.00
   -3    0    6      3.90      0.00
   -5    0    4     -7.08      0.00
   -7    0    2     -2.97      0.00
    9    0    0     -0.09      0.00
   11    0    2      3.62      0.00
    3    1   12      2.75      0.00
    2    1   11      1.48      0.00
    1    1   10     -0.03      0.00
    0    1    9      2.38      0.00
   -1    1    8      2.48      0.00
   -2    1    7     -1.29      0.00
   -3    1    6      0.92      0.00
   -4    1    5     -7.27      0.00
   -5    1    4     -0.30      0.00
   -6    1    3      2.26      0.00
   -7    1    2     -2.09      0.00
   -8    1    1      0.73      0.00
    9    1    0      1.39      0.00
   10    1    1     -0.55      0.00
   11    1    2     -0.50      0.00
    3    2   12      1.09      0.00
    2    2   11     -0.19      0.00
    1    2   10     -1.19      0.00
    0    2    9     -0.66      0.00
   -1    2    8     -2.10      0.00
   -2    2    7     -0.18      0.00
   -3    2    6      2.15      0.00
   -4    2    5      3.46      0.00
   -5    2    4      3.22      0.00
   -6    2    3     -1.35      0.00
   -7    2    2     -1.53      0.00
   -8    2    1     -1.42      0.00
    9    2    0      2.93      0.00
   10    2    1     -0.60      0.00
   11    2    2      2.89      0.00
    3    3   12      1.58      0.00
    2    3   11      0.99      0.00
    1    3   10     -0.96      0.00
    0    3    9      0.96      0.00
   -1    3    8      4.98      0.00
   -2    3    7      5.05      0.00
   -3    3    6      1.09      0.00
   -4    3    5      1.39      0.00
   -5    3    4     -7.94      0.00
   -6    3    3      6.87      0.00
   -7    3    2      1.14      0.00
   -8    3    1      0.18      0.00
    9    3    0     -1.58      0.00
   10    3    1      1.02      0.00
   11    3    2     -1.40      0.00
    3    4   12     -0.28      0.00
    2    4   11     -1.65      0.00
    1    4   10     -1.65      0.00
    0    4    9     -0.91      0.00
   -1    4    8     -3.00      0.00
   -2    4    7      1.80      0.00
   -3    4    6      1.85      0.00
   -4    4    5     -5.48      0.00
   -5    4    4      8.68      0.00
   -6    4    3      0.91      0.00
   -7    4    2      1.47      0.00
   -8    4    1     -0.32      0.00
    9    4    0      0.05      0.00
   10    4    1     -1.31      0.00
   11    4    2     -0.28      0.00
    2    5   11      0.35      0.00
    1    5   10     -1.49      0.00
    0    5    9     -0.58      0.00
   -1    5    8      1.34      0.00
   -2    5    7      7.46      0.00
   -3    5    6      3.39      0.00
   -4    5    5      4.33      0.00
   -5    5    4     -9.49      0.00
   -6    5    3      0.84      0.00
   -7    5    2      3.26      0.00
   -8    5    1     -1.65      0.00
    9    5    0      1.06      0.00
   10    5    1     -1.99      0.00
   11    5    2     -1.80      0.00
    2    6   11     -0.81      0.00
    1    6   10     -0.42      0.00
    0    6    9     -1.36      0.00
   -1    6    8     -4.38      0.00
   -2    6    7      0.62      0.00
   -3    6    6      3.73      0.00
   -4    6    5     -2.63      0.00
   -5    6    4     -0.58      0.00
   -6    6    3      2.59      0.00
   -7    6    2      2.14      0.00
   -8    6    1     -0.61      0.00
    9    6    0     -0.97      0.00
   10    6    1     -1.23      0.00
   11    6    2     -1.93      0.00
    2    7   11      0.26      0.00
    1    7   10     -2.84      0.00
    0    7    9     -0.64      0.00
   -1    7    8     -2.71      0.00
   -2    7    7      3.88      0.00
   -3    7    6      3.66      0.00
   -4    7    5     -2.15      0.00
   -5    7    4     -4.26      0.00
   -6    7    3     -3.49      0.00
   -7    7    2     -0.91      0.00
   -8    7    1     -0.72      0.00
    9    7    0      0.63      0.00
   10    7    1     -2.24      0.00
   11    7    2     -1.11      0.00
    2    8   11     -0.79      0.00
    1    8   10     -0.87      0.00
    0    8    9     -0.10      0.00
   -1    8    8     -4.40      0.00
   -2    8    7     -2.38      0.00
   -3    8    6     -0.44      0.00
   -4    8    5      0.13      0.00
   -5    8    4     -2.88      0.00
   -6    8    3     -1.02      0.00
   -7    8    2      1.65      0.00
   -8    8    1      0.51      0.00
    9    8    0      1.88      0.00
   10    8    1     -1.79      0.00
    1    9   10     -1.15      0.00
    0    9    9      0.36      0.00
   -1    9    8     -1.83      0.00
   -2    9    7     -0.02      0.00
   -3    9    6      2.17      0.00
   -4    9    5     -3.81      0.00
   -5    9    4     -1.38      0.00
   -6    9    3     -0.32      0.00
   -7    9    2     -1.41      0.00
   -8    9    1      1.07      0.00
    9    9    0     -1.16      0.00
   10    9    1     -1.43      0.00
    1   10   10     -0.50      0.00
    0   10    9     -0.52      0.00
   -1   10    8      0.38      0.00
   -2   10    7     -2.63      0.00
   -3   10    6     -2.77      0.00
   -4   10    5      1.76      0.00
   -5   10    4     -0.85      0.00
   -6   10    3     -0.71      0.00
   -7   10    2     -0.32      0.00
   -8   10    1     -0.36      0.00
    9   10    0     -0.48      0.00
   10   10    1      0.76      0.00
    1   11   10      0.44      0.00
    0   11    9      1.75      0.00
   -1   11    8      0.33      0.00
   -2   11    7      1.56      0.00
   -3   11    6      0.27      0.00
   -4   11    5     -1.58      0.00
   -5   11    4     -2.95      0.00
   -6   11    3     -0.35      0.00
   -7   11    2     -0.77      0.00
   -8   11    1     -0.58      0.00
    9   11    0     -0.59      0.00
    0   12    9     -0.08      0.00
   -1   12    8     -0.73      0.00
   -2   12    7     -1.02      0.00
   -3   12    6     -0.81      0.00
   -4   12    5      0.88      0.00
   -5   12    4      2.71      0.00
   -6   12    3     -0.12      0.00
   -7   12    2     -0.20      0.00
   -8   12    1     -1.20      0.00
    9   12    0     -0.51      0.00
   -1   13    8      0.54      0.00
   -2   13    7      0.60      0.00
   -3   13    6      0.80      0.00
   -4   13    5      0.38      0.00
   -5   13    4     -4.57      0.00
   -6   13    3      0.08      0.00
   -7   13    2      0.06      0.00
   -8   13    1     -0.33      0.00
   -2   14    7     -0.10      0.00
   -3   14    6      0.62      0.00
   -4   14    5     -0.50      0.00
   -5   14    4      1.73      0.00
   -6   14    3      0.39      0.00
   -7   14    2     -0.57      0.00
   -4   15    5     -0.15      0.00
   -5   15    4     -1.76      0.00
    2    0   12      1.43      0.00
    0    0   10     -0.81      0.00
   -2    0    8      1.50      0.00
   -4    0    6      9.27      0.00
   -6    0    4     -0.91      0.00
   -8    0    2     -2.24      0.00
   10    0    0     -0.53      0.00
   12    0    2      1.16      0.00
    2    1   12     -1.58      0.00
    1    1   11      1.28      0.00
    0    1   10     -0.35      0.00
   -1    1    9      1.90      0.00
   -2    1    8      0.99      0.00
   -3    1    7     -6.78      0.00
   -4    1    6     -0.14      0.00
   -5    1    5      0.92      0.00
   -6    1    4      2.40      0.00
   -7    1    3      1.18      0.00
   -8    1    2      0.44      0.00
   -9    1    1     -1.01      0.00
   10    1    0     -1.10      0.00
   11    1    1     -3.19      0.00
   12    1    2      0.62      0.00
    2    2   12     -0.64      0.00
    1    2   11     -0.32      0.00
    0    2   10     -0.36      0.00
   -1    2    9     -3.25      0.00
   -2    2    8     -1.11      0.00
   -3    2    7      0.78      0.00
   -4    2    6      1.91      0.00
   -5    2    5      8.92      0.00
   -6    2    4     -3.99      0.00
   -7    2    3     -0.01      0.00
   -8    2    2      1.10      0.00
   -9    2    1      1.25      0.00
   10    2    0     -0.98      0.00
   11    2    1      1.94      0.00
   12    2    2     -0.75      0.00
    2    3   12     -0.02      0.00
    1    3   11      1.00      0.00
    0    3   10     -0.08      0.00
   -1    3    9      1.37      0.00
   -2    3    8     -0.83      0.00
   -3    3    7     -2.55      0.00
   -4    3    6      5.77      0.00
   -5    3    5     -8.41      0.00
   -6    3    4     -0.22      0.00
   -7    3    3      0.65      0.00
   -8    3    2     -0.41      0.00
   -9    3    1     -2.63      0.00
   10    3    0      2.57      0.00
   11    3    1     -1.95      0.00
   12    3    2     -0.11      0.00
    2    4   12      0.36      0.00
    1    4   11      0.98      0.00
    0    4   10     -0.93      0.00
   -1    4    9     -3.02      0.00
   -2    4    8     -4.06      0.00
   -3    4    7      1.17      0.00
   -4    4    6     -2.55      0.00
   -5    4    5      7.09      0.00
   -6    4    4     -1.38      0.00
   -7    4    3     -4.41      0.00
   -8    4    2      0.73      0.00
   -9    4    1     -1.14      0.00
   10    4    0     -2.63      0.00
   11    4    1      3.00      0.00
   12    4    2      1.28      0.00
    2    5   12      1.26      0.00
    1    5   11      0.63      0.00
    0    5   10      0.62      0.00
   -1    5    9      0.72      0.00
   -2    5    8     -1.85      0.00
   -3    5    7     -3.35      0.00
   -4    5    6      3.21      0.00
   -5    5    5     -2.27      0.00
   -6    5    4     -6.75      0.00
   -7    5    3     -1.87      0.00
   -8    5    2     -0.26      0.00
   -9    5    1     -2.09      0.00
   10    5    0      1.31      0.00
   11    5    1      2.00      0.00
    2    6   12      0.16      0.00
    1    6   11      2.02      0.00
    0    6   10     -0.53      0.00
   -1    6    9     -0.30      0.00
   -2    6    8     -5.03      0.00
   -3    6    7     -2.41      0.00
   -4    6    6      0.43      0.00
   -5    6    5     -0.83      0.00
   -6    6    4      2.38      0.00
   -7    6    3     -1.83      0.00
   -8    6    2      0.87      0.00
   -9    6    1      1.98      0.00
   10    6    0      0.70      0.00
   11    6    1      0.89      0.00
    1    7   11     -0.10      0.00
    0    7   10     -0.66      0.00
   -1    7    9      2.50      0.00
   -2    7    8     -1.23      0.00
   -3    7    7     -2.02      0.00
   -4    7    6     -1.06      0.00
   -5    7    5      1.92      0.00
   -6    7    4     -3.43      0.00
   -7    7    3     -3.43      0.00
   -8    7    2     -0.55      0.00
   -9    7    1     -1.18      0.00
   10    7    0     -0.23      0.00
   11    7    1     -1.11      0.00
    1    8   11      1.40      0.00
    0    8   10      0.26      0.00
   -1    8    9      2.13      0.00
   -2    8    8     -2.13      0.00
   -3    8    7     -2.01      0.00
   -4    8    6      4.09      0.00
   -5    8    5     -0.52      0.00
   -6    8    4     -0.09      0.00
   -7    8    3      0.85      0.00
   -8    8    2      0.76      0.00
   -9    8    1      0.42      0.00
   10    8    0      0.46      0.00
   11    8    1     -0.82      0.00
    1    9   11      0.57      0.00
    0    9   10     -0.06      0.00
   -1    9    9      1.03      0.00
   -2    9    8      2.34      0.00
   -3    9    7      0.34      0.00
   -4    9    6     -0.51      0.00
   -5    9    5      1.09      0.00
   -6    9    4      0.68      0.00
   -7    9    3      0.11      0.00
   -8    9    2     -1.62      0.00
   -9    9    1     -0.36      0.00
   10    9    0      0.24      0.00
    0   10   10     -0.91      0.00
   -1   10    9     -0.01      0.00
   -2   10    8     -0.32      0.00
   -3   10    7      0.53      0.00
   -4   10    6      2.47      0.00
   -5   10    5      3.89      0.00
   -6   10    4      0.29      0.00
   -7   10    3     -0.43      0.00
   -8   10    2      0.49      0.00
   -9   10    1     -1.34      0.00
   10   10    0      1.01      0.00
    0   11   10     -0.45      0.00
   -1   11    9     -0.07      0.00
   -2   11    8      0.06      0.00
   -3   11    7      1.90      0.00
   -4   11    6      0.64      0.00
   -5   11    5     -1.99      0.00
   -6   11    4      0.33      0.00
   -7   11    3      1.41      0.00
   -8   11    2      0.27      0.00
   -9   11    1      0.72      0.00
   -1   12    9     -0.89      0.00
   -2   12    8      0.01      0.00
   -3   12    7      0.34      0.00
   -4   12    6     -0.38      0.00
   -5   12    5      4.69      0.00
   -6   12    4     -0.31      0.00
   -7   12    3      0.54      0.00
   -8   12    2      1.20      0.00
   -9   12    1     -0.44      0.00
   -2   13    8      0.88      0.00
   -3   13    7     -0.14      0.00
   -4   13    6      0.30      0.00
   -5   13    5     -3.44      0.00
   -6   13    4     -1.10      0.00
   -7   13    3      1.38      0.00
   -8   13    2      0.31      0.00
   -3   14    7     -0.37      0.00
   -4   14    6      0.35      0.00
   -5   14    5      3.30      0.00
   -6   14    4      1.57      0.00
   -7   14    3     -1.28      0.00
    1    0   12     -3.65      0.00
   -1    0   10     -0.46      0.00
   -3    0    8      8.11      0.00
   -5    0    6      0.70      0.00
   -7    0    4     -0.93      0.00
   -9    0    2      1.67      0.00
   11    0    0      2.26      0.00
    2    1   13     -3.18      0.00
    1    1   12     -0.03      0.00
    0    1   11     -0.27      0.00
   -1    1   10      1.36      0.00
   -2    1    9     -0.05      0.00
   -3    1    8     -0.68      0.00
   -4    1    7     -5.51      0.00
   -5    1    6     -6.36      0.00
   -6    1    5      2.22      0.00
   -7    1    4     -0.28      0.00
   -8    1    3      0.22      0.00
   -9    1    2     -1.48      0.00
  -10    1    1      1.82      0.00
   11    1    0     -0.02      0.00
   12    1    1     -1.65      0.00
    2    2   13      1.81      0.00
    1    2   12     -0.98      0.00
    0    2   11      0.81      0.00
   -1    2   10     -0.23      0.00
   -2    2    9     -0.76      0.00
   -3    2    8      4.79      0.00
   -4    2    7     -2.20      0.00
   -5    2    6      4.00      0.00
   -6    2    5     -1.88      0.00
   -7    2    4     -2.72      0.00
   -8    2    3      0.25      0.00
   -9    2    2      1.62      0.00
  -10    2    1     -1.19      0.00
   11    2    0      1.32      0.00
   12    2    1     -0.14      0.00
    2    3   13      0.12      0.00
    1    3   12      0.32      0.00
    0    3   11      1.19      0.00
   -1    3   10      1.74      0.00
   -2    3    9      1.52      0.00
   -3    3    8     -2.65      0.00
   -4    3    7     -0.06      0.00
   -5    3    6     -6.56      0.00
   -6    3    5     -1.79      0.00
   -7    3    4      3.19      0.00
   -8    3    3     -1.88      0.00
   -9    3    2     -2.90      0.00
  -10    3    1      2.21      0.00
   11    3    0     -3.04      0.00
   12    3    1     -0.01      0.00
    1    4   12      0.37      0.00
    0    4   11      0.63      0.00
   -1    4   10      1.13      0.00
   -2    4    9     -0.11      0.00
   -3    4    8      1.61      0.00
   -4    4    7     -4.01      0.00
   -5    4    6      0.79      0.00
   -6    4    5      6.81      0.00
   -7    4    4     -0.68      0.00
   -8    4    3     -0.81      0.00
   -9    4    2      4.37      0.00
  -10    4    1      2.28      0.00
   11    4    0     -0.16      0.00
   12    4    1     -1.13      0.00
    1    5   12     -0.35      0.00
    0    5   11      1.12      0.00
   -1    5   10      0.93      0.00
   -2    5    9      2.60      0.00
   -3    5    8     -2.42      0.00
   -4    5    7     -1.74      0.00
   -5    5    6      2.06      0.00
   -6    5    5     -4.54      0.00
   -7    5    4      2.63      0.00
   -8    5    3     -0.08      0.00
   -9    5    2     -0.56      0.00
  -10    5    1      3.32      0.00
   11    5    0     -1.82      0.00
   12    5    1     -0.72      0.00
    1    6   12      0.80      0.00
    0    6   11      1.59      0.00
   -1    6   10     -0.67      0.00
   -2    6    9      1.29      0.00
   -3    6    8      2.02      0.00
   -4    6    7      0.91      0.00
   -5    6    6     -1.40      0.00
   -6    6    5      6.60      0.00
   -7    6    4      3.04      0.00
   -8    6    3      0.88      0.00
   -9    6    2      3.14      0.00
  -10    6    1      0.63      0.00
   11    6    0      0.26      0.00
   12    6    1      2.54      0.00
    1    7   12     -0.29      0.00
    0    7   11     -0.28      0.00
   -1    7   10     -0.44      0.00
   -2    7    9      3.27      0.00
   -3    7    8     -0.26      0.00
   -4    7    7     -2.37      0.00
   -5    7    6      4.23      0.00
   -6    7    5      0.67      0.00
   -7    7    4     -0.23      0.00
   -8    7    3     -0.93      0.00
   -9    7    2     -0.43      0.00
  -10    7    1     -0.60      0.00
   11    7    0      0.87      0.00
    0    8   11      1.41      0.00
   -1    8   10     -0.80      0.00
   -2    8    9     -0.34      0.00
   -3    8    8      1.77      0.00
   -4    8    7      1.04      0.00
   -5    8    6      1.18      0.00
   -6    8    5      1.78      0.00
   -7    8    4      2.25      0.00
   -8    8    3      2.86      0.00
   -9    8    2      0.25      0.00
  -10    8    1      1.22      0.00
   11    8    0      1.65      0.00
    0    9   11     -0.38      0.00
   -1    9   10     -1.21      0.00
   -2    9    9     -0.17      0.00
   -3    9    8     -0.10      0.00
   -4    9    7     -1.41      0.00
   -5    9    6     -0.82      0.00
   -6    9    5      2.84      0.00
   -7    9    4      1.51      0.00
   -8    9    3     -1.45      0.00
   -9    9    2      1.46      0.00
  -10    9    1     -0.96      0.00
   11    9    0     -1.10      0.00
    0   10   11     -0.19      0.00
   -1   10   10     -0.97      0.00
   -2   10    9     -0.42      0.00
   -3   10    8     -1.32      0.00
   -4   10    7      0.41      0.00
   -5   10    6      2.43      0.00
   -6   10    5     -0.36      0.00
   -7   10    4     -1.29      0.00
   -8   10    3      1.74      0.00
   -9   10    2      0.04      0.00
  -10   10    1      0.28      0.00
   -1   11   10      1.19      0.00
   -2   11    9     -1.48      0.00
   -3   11    8     -1.55      0.00
   -4   11    7     -0.88      0.00
   -5   11    6     -5.10      0.00
   -6   11    5     -0.39      0.00
   -7   11    4     -0.14      0.00
   -8   11    3      0.16      0.00
   -9   11    2      1.02      0.00
  -10   11    1     -1.71      0.00
   -1   12   10     -0.13      0.00
   -2   12    9     -0.01      0.00
   -3   12    8     -0.74      0.00
   -4   12    7     -0.38      0.00
   -5   12    6      2.95      0.00
   -6   12    5      0.91      0.00
   -7   12    4     -1.50      0.00
   -8   12    3     -0.72      0.00
   -9   12    2     -0.74      0.00
   -2   13    9     -0.12      0.00
   -3   13    8     -1.22      0.00
   -4   13    7      0.19      0.00
   -5   13    6     -2.55      0.00
   -6   13    5     -0.85      0.00
   -7   13    4      0.80      0.00
   -8   13    3     -2.08      0.00
   -4   14    7     -0.58      0.00
   -5   14    6      1.77      0.00
   -6   14    5      2.20      0.00
   -7   14    4     -1.63      0.00
    0    0   12      0.56      0.00
   -2    0   10      0.57      0.00
   -4    0    8      6.08      0.00
   -6    0    6     -4.61      0.00
   -8    0    4     -0.61      0.00
  -10    0    2     -3.90      0.00
   12    0    0      0.99      0.00
    1    1   13      3.36      0.00
    0    1   12      0.13      0.00
   -1    1   11     -0.10      0.00
   -2    1   10      1.12      0.00
   -3    1    9     -4.72      0.00
   -4    1    8     -0.36      0.00
   -5    1    7     -2.48      0.00
   -6    1    6      0.51      0.00
   -7    1    5      2.37      0.00
   -8    1    4     -0.79      0.00
   -9    1    3     -1.86      0.00
  -10    1    2      1.08      0.00
  -11    1    1     -1.48      0.00
   12    1    0     -1.30      0.00
    1    2   13      0.63      0.00
    0    2   12     -0.41      0.00
   -1    2   11     -0.37      0.00
   -2    2   10      0.07      0.00
   -3    2    9      1.62      0.00
   -4    2    8      1.81      0.00
   -5    2    7      4.70      0.00
   -6    2    6      2.53      0.00
   -7    2    5     -1.68      0.00
   -8    2    4      1.02      0.00
   -9    2    3      3.59      0.00
  -10    2    2     -1.82      0.00
  -11    2    1     -1.05      0.00
   12    2    0      1.45      0.00
    1    3   13     -0.32      0.00
    0    3   12     -0.41      0.00
   -1    3   11     -1.44      0.00
   -2    3   10      1.97      0.00
   -3    3    9     -1.97      0.00
   -4    3    8      0.46      0.00
   -5    3    7      0.11      0.00
   -6    3    6     -3.08      0.00
   -7    3    5      3.77      0.00
   -8    3    4      2.23      0.00
   -9    3    3     -2.68      0.00
  -10    3    2      0.36      0.00
  -11    3    1      1.76      0.00
   12    3    0      1.74      0.00
    1    4   13     -0.78      0.00
    0    4   12     -0.73      0.00
   -1    4   11     -0.39      0.00
   -2    4   10     -0.53      0.00
   -3    4    9      3.17      0.00
   -4    4    8      1.18      0.00
   -5    4    7     -0.73      0.00
   -6    4    6      6.39      0.00
   -7    4    5     -1.38      0.00
   -8    4    4      0.96      0.00
   -9    4    3      2.98      0.00
  -10    4    2     -0.94      0.00
  -11    4    1     -2.74      0.00
   12    4    0     -0.72      0.00
    1    5   13     -1.68      0.00
    0    5   12     -2.01      0.00
   -1    5   11      0.02      0.00
   -2    5   10      0.16      0.00
   -3    5    9     -1.07      0.00
   -4    5    8      0.16      0.00
   -5    5    7      2.43      0.00
   -6    5    6     -5.19      0.00
   -7    5    5     -1.18      0.00
   -8    5    4      1.51      0.00
   -9    5    3     -2.17      0.00
  -10    5    2     -2.92      0.00
  -11    5    1      0.08      0.00
   12    5    0     -0.90      0.00
    0    6   12      0.60      0.00
   -1    6   11     -0.06      0.00
   -2    6   10     -1.10      0.00
   -3    6    9      2.30      0.00
   -4    6    8      1.73      0.00
   -5    6    7     -3.44      0.00
   -6    6    6      2.18      0.00
   -7    6    5      2.69      0.00
   -8    6    4      0.85      0.00
   -9    6    3     -0.56      0.00
  -10    6    2      0.30      0.00
  -11    6    1     -0.89      0.00
   12    6    0     -0.58      0.00
    0    7   12     -1.45      0.00
   -1    7   11      0.19      0.00
   -2    7   10     -0.56      0.00
   -3    7    9     -1.56      0.00
   -4    7    8     -1.55      0.00
   -5    7    7     -0.88      0.00
   -6    7    6     -0.66      0.00
   -7    7    5     -2.34      0.00
   -8    7    4     -1.82      0.00
   -9    7    3     -1.00      0.00
  -10    7    2     -3.22      0.00
  -11    7    1      0.73      0.00
   12    7    0     -0.99      0.00
    0    8   12      0.48      0.00
   -1    8   11      0.84      0.00
   -2    8   10     -0.64      0.00
   -3    8    9     -0.42      0.00
   -4    8    8      1.61      0.00
   -5    8    7     -0.88      0.00
   -6    8    6     -3.87      0.00
   -7    8    5      0.35      0.00
   -8    8    4      1.78      0.00
   -9    8    3     -1.92      0.00
  -10    8    2      1.80      0.00
  -11    8    1     -1.51      0.00
   -1    9   11      0.10      0.00
   -2    9   10     -0.85      0.00
   -3    9    9     -0.07      0.00
   -4    9    8     -2.66      0.00
   -5    9    7     -3.15      0.00
   -6    9    6      0.34      0.00
   -7    9    5     -0.33      0.00
   -8    9    4     -2.55      0.00
   -9    9    3     -0.64      0.00
  -10    9    2     -1.22      0.00
  -11    9    1     -0.97      0.00
   -1   10   11     -0.02      0.00
   -2   10   10      2.31      0.00
   -3   10    9     -0.10      0.00
   -4   10    8      0.45      0.00
   -5   10    7      1.65      0.00
   -6   10    6     -1.70      0.00
   -7   10    5     -1.19      0.00
   -8   10    4     -0.97      0.00
   -9   10    3     -0.81      0.00
  -10   10    2      0.08      0.00
   -2   11   10      0.67      0.00
   -3   11    9      0.87      0.00
   -4   11    8     -1.53      0.00
   -5   11    7     -2.17      0.00
   -6   11    6     -0.38      0.00
   -7   11    5      0.70      0.00
   -8   11    4     -0.23      0.00
   -9   11    3     -1.36      0.00
  -10   11    2     -0.91      0.00
   -2   12   10      0.91      0.00
   -3   12    9      3.35      0.00
   -4   12    8      0.92      0.00
   -5   12    7      3.37      0.00
   -6   12    6      2.14      0.00
   -7   12    5      0.12      0.00
   -8   12    4      0.17      0.00
   -9   12    3     -1.86      0.00
   -3   13    9     -1.12      0.00
   -4   13    8      0.15      0.00
   -5   13    7     -2.19      0.00
   -6   13    6     -2.30      0.00
   -7   13    5      1.25      0.00
   -8   13    4      0.90      0.00
   -5   14    7      1.00      0.00
   -6   14    6      0.68      0.00
   -7   14    5     -0.25      0.00
   -1    0   12      0.10      0.00
   -3    0   10      3.01      0.00
   -5    0    8      2.18      0.00
   -7    0    6     -2.12      0.00
   -9    0    4      0.68      0.00
  -11    0    2      2.77      0.00
   13    0    0      2.38      0.00
    0    1   13      0.05      0.00
   -1    1   12     -0.12      0.00
   -2    1   11     -1.45      0.00
   -3    1   10     -0.86      0.00
   -4    1    9     -3.36      0.00
   -5    1    8     -1.57      0.00
   -6    1    7      1.79      0.00
   -7    1    6      2.53      0.00
   -8    1    5      0.44      0.00
   -9    1    4     -1.63      0.00
  -10    1    3      3.49      0.00
  -11    1    2      1.31      0.00
  -12    1    1     -0.23      0.00
   13    1    0      0.37      0.00
    0    2   13     -1.19      0.00
   -1    2   12      0.71      0.00
   -2    2   11     -3.11      0.00
   -3    2   10      1.75      0.00
   -4    2    9      1.18      0.00
   -5    2    8      0.84      0.00
   -6    2    7      1.80      0.00
   -7    2    6     -2.84      0.00
   -8    2    5     -0.78      0.00
   -9    2    4      2.08      0.00
  -10    2    3      0.46      0.00
  -11    2    2     -1.63      0.00
  -12    2    1      0.60      0.00
   13    2    0     -0.65      0.00
    0    3   13     -0.41      0.00
   -1    3   12     -0.08      0.00
   -2    3   11     -1.42      0.00
   -3    3   10     -1.86      0.00
   -4    3    9      0.25      0.00
   -5    3    8     -0.45      0.00
   -6    3    7     -4.92      0.00
   -7    3    6     -0.13      0.00
   -8    3    5      0.01      0.00
   -9    3    4     -1.95      0.00
  -10    3    3     -1.30      0.00
  -11    3    2      2.66      0.00
  -12    3    1     -0.49      0.00
   13    3    0     -1.07      0.00
    0    4   13      0.74      0.00
   -1    4   12     -0.47      0.00
   -2    4   11     -1.39      0.00
   -3    4   10      0.55      0.00
   -4    4    9      0.51      0.00
   -5    4    8     -1.73      0.00
   -6    4    7      1.56      0.00
   -7    4    6     -0.16      0.00
   -8    4    5     -3.51      0.00
   -9    4    4     -0.36      0.00
  -10    4    3      2.97      0.00
  -11    4    2     -2.77      0.00
  -12    4    1      0.53      0.00
   13    4    0      1.22      0.00
    0    5   13     -0.96      0.00
   -1    5   12      0.14      0.00
   -2    5   11     -1.06      0.00
   -3    5   10     -1.33      0.00
   -4    5    9     -0.75      0.00
   -5    5    8      1.22      0.00
   -6    5    7     -3.50      0.00
   -7    5    6     -3.05      0.00
   -8    5    5     -0.25      0.00
   -9    5    4     -0.80      0.00
  -10    5    3     -2.93      0.00
  -11    5    2      2.49      0.00
  -12    5    1      2.13      0.00
    0    6   13      0.59      0.00
   -1    6   12     -0.06      0.00
   -2    6   11     -0.04      0.00
   -3    6   10      0.66      0.00
   -4    6    9      1.57      0.00
   -5    6    8     -0.69      0.00
   -6    6    7     -0.66      0.00
   -7    6    6      2.00      0.00
   -8    6    5     -1.27      0.00
   -9    6    4     -0.68      0.00
  -10    6    3      4.10      0.00
  -11    6    2     -1.82      0.00
  -12    6    1      0.21      0.00
   -1    7   12     -1.80      0.00
   -2    7   11     -0.19      0.00
   -3    7   10      1.31      0.00
   -4    7    9     -1.46      0.00
   -5    7    8      0.33      0.00
   -6    7    7      1.89      0.00
   -7    7    6     -4.10      0.00
   -8    7    5     -2.38      0.00
   -9    7    4      1.38      0.00
  -10    7    3     -2.84      0.00
  -11    7    2      1.44      0.00
  -12    7    1     -0.87      0.00
   -1    8   12      0.88      0.00
   -2    8   11      1.35      0.00
   -3    8   10      0.05      0.00
   -4    8    9      3.23      0.00
   -5    8    8      1.31      0.00
   -6    8    7     -2.95      0.00
   -7    8    6     -0.29      0.00
   -8    8    5      1.16      0.00
   -9    8    4      0.82      0.00
  -10    8    3      1.28      0.00
  -11    8    2      0.18      0.00
  -12    8    1      0.48      0.00
   -1    9   12      0.15      0.00
   -2    9   11     -0.42      0.00
   -3    9   10      2.06      0.00
   -4    9    9     -1.53      0.00
   -5    9    8     -0.39      0.00
   -6    9    7      1.55      0.00
   -7    9    6      0.45      0.00
   -8    9    5     -0.34      0.00
   -9    9    4      0.18      0.00
  -10    9    3      0.87      0.00
  -11    9    2      1.88      0.00
   -2   10   11      0.80      0.00
   -3   10   10      1.37      0.00
   -4   10    9      4.17      0.00
   -5   10    8      1.82      0.00
   -6   10    7     -0.46      0.00
   -7   10    6     -0.71      0.00
   -8   10    5      0.03      0.00
   -9   10    4      1.74      0.00
  -10   10    3     -0.03      0.00
  -11   10    2      0.71      0.00
   -2   11   11     -1.21      0.00
   -3   11   10     -1.65      0.00
   -4   11    9      0.61      0.00
   -5   11    8     -1.91      0.00
   -6   11    7     -1.34      0.00
   -7   11    6      0.43      0.00
   -8   11    5      1.22      0.00
   -9   11    4      1.73      0.00
  -10   11    3      0.08      0.00
   -3   12   10      0.92      0.00
   -4   12    9      0.57      0.00
   -5   12    8      1.31      0.00
   -6   12    7      0.82      0.00
   -7   12    6     -0.62      0.00
   -8   12    5      0.05      0.00
   -9   12    4      2.09      0.00
   -4   13    9     -2.76      0.00
   -5   13    8     -1.75      0.00
   -6   13    7     -2.66      0.00
   -7   13    6     -0.54      0.00
   -8   13    5     -0.19      0.00
   -6   14    7      2.43      0.00
    0    0   14     -0.36      0.00
   -2    0   12      2.40      0.00
   -4    0   10      2.43      0.00
   -6    0    8     -1.90      0.00
   -8    0    6     -0.26      0.00
  -10    0    4     -3.71      0.00
  -12    0    2     -0.21      0.00
    0    1   14      1.31      0.00
   -1    1   13     -0.88      0.00
   -2    1   12      2.02      0.00
   -3    1   11     -2.31      0.00
   -4    1   10     -0.37      0.00
   -5    1    9     -1.79      0.00
   -6    1    8     -1.55      0.00
   -7    1    7      1.32      0.00
   -8    1    6      0.45      0.00
   -9    1    5     -0.08      0.00
  -10    1    4     -1.08      0.00
  -11    1    3     -0.39      0.00
  -12    1    2     -1.52      0.00
  -13    1    1     -0.79      0.00
    0    2   14      0.28      0.00
   -1    2   13     -0.38      0.00
   -2    2   12      2.69      0.00
   -3    2   11      1.08      0.00
   -4    2   10      0.38      0.00
   -5    2    9      0.59      0.00
   -6    2    8     -0.10      0.00
   -7    2    7     -1.18      0.00
   -8    2    6     -2.14      0.00
   -9    2    5      0.11      0.00
  -10    2    4      0.77      0.00
  -11    2    3     -3.55      0.00
  -12    2    2      1.00      0.00
  -13    2    1     -0.72      0.00
    0    3   14      0.92      0.00
   -1    3   13      0.85      0.00
   -2    3   12      2.23      0.00
   -3    3   11      0.07      0.00
   -4    3   10     -1.08      0.00
   -5    3    9     -0.22      0.00
   -6    3    8     -0.75      0.00
   -7    3    7     -0.95      0.00
   -8    3    6      2.56      0.00
   -9    3    5      0.00      0.00
  -10    3    4     -4.04      0.00
  -11    3    3      3.30      0.00
  -12    3    2     -0.61      0.00
  -13    3    1      0.46      0.00
   -1    4   13     -0.08      0.00
   -2    4   12      2.53      0.00
   -3    4   11      0.23      0.00
   -4    4   10     -0.23      0.00
   -5    4    9     -0.45      0.00
   -6    4    8      3.07      0.00
   -7    4    7      2.09      0.00
   -8    4    6     -1.22      0.00
   -9    4    5     -0.53      0.00
  -10    4    4      2.91      0.00
  -11    4    3     -2.29      0.00
  -12    4    2     -1.70      0.00
  -13    4    1     -0.39      0.00
   -1    5   13     -0.12      0.00
   -2    5   12      1.01      0.00
   -3    5   11      0.44      0.00
   -4    5   10     -0.61      0.00
   -5    5    9      1.93      0.00
   -6    5    8      0.45      0.00
   -7    5    7     -2.15      0.00
   -8    5    6      2.12      0.00
   -9    5    5      1.32      0.00
  -10    5    4     -3.27      0.00
  -11    5    3      2.43      0.00
  -12    5    2     -0.45      0.00
  -13    5    1     -1.01      0.00
   -1    6   13      2.15      0.00
   -2    6   12      0.55      0.00
   -3    6   11     -2.03      0.00
   -4    6   10      1.71      0.00
   -5    6    9      1.36      0.00
   -6    6    8     -0.67      0.00
   -7    6    7      3.03      0.00
   -8    6    6      0.86      0.00
   -9    6    5     -0.21      0.00
  -10    6    4      3.61      0.00
  -11    6    3     -0.79      0.00
  -12    6    2     -1.52      0.00
   -1    7   13     -0.86      0.00
   -2    7   12      0.18      0.00
   -3    7   11      0.35      0.00
   -4    7   10     -2.39      0.00
   -5    7    9      0.63      0.00
   -6    7    8      2.82      0.00
   -7    7    7     -0.31      0.00
   -8    7    6      0.15      0.00
   -9    7    5      0.74      0.00
  -10    7    4      0.00      0.00
  -11    7    3     -0.59      0.00
  -12    7    2     -0.06      0.00
   -2    8   12      0.53      0.00
   -3    8   11     -1.82      0.00
   -4    8   10      1.67      0.00
   -5    8    9      0.18      0.00
   -6    8    8     -0.95      0.00
   -7    8    7      0.02      0.00
   -8    8    6      2.19      0.00
   -9    8    5      0.58      0.00
  -10    8    4     -0.17      0.00
  -11    8    3      0.85      0.00
  -12    8    2      0.35      0.00
   -2    9   12     -1.35      0.00
   -3    9   11     -0.96      0.00
   -4    9   10     -2.70      0.00
   -5    9    9     -0.13      0.00
   -6    9    8      1.51      0.00
   -7    9    7      1.97      0.00
   -8    9    6      0.63      0.00
   -9    9    5     -1.12      0.00
  -10    9    4      1.43      0.00
  -11    9    3     -0.88      0.00
   -2   10   12      0.08      0.00
   -3   10   11     -0.60      0.00
   -4   10   10     -0.72      0.00
   -5   10    9      1.30      0.00
   -6   10    8      0.60      0.00
   -7   10    7     -0.69      0.00
   -8   10    6      0.16      0.00
   -9   10    5     -0.04      0.00
  -10   10    4     -0.76      0.00
  -11   10    3     -2.22      0.00
   -3   11   11     -2.83      0.00
   -4   11   10     -2.91      0.00
   -5   11    9     -2.23      0.00
   -6   11    8      0.24      0.00
   -7   11    7      1.35      0.00
   -8   11    6      0.62      0.00
   -9   11    5     -0.76      0.00
  -10   11    4      0.78      0.00
   -4   12   10      0.51      0.00
   -5   12    9      0.91      0.00
   -6   12    8      3.09      0.00
   -7   12    7      0.08      0.00
   -8   12    6     -0.34      0.00
   -9   12    5     -2.38      0.00
  -10   12    4      0.23      0.00
   -5   13    9      0.35      0.00
   -6   13    8     -1.87      0.00
   -7   13    7      0.81      0.00
   -8   13    6      0.08      0.00
   -1    0   14      1.61      0.00
   -3    0   12      3.54      0.00
   -5    0   10      2.21      0.00
   -7    0    8     -1.24      0.00
   -9    0    6     -0.18      0.00
  -11    0    4     -0.13      0.00
  -13    0    2     -0.18      0.00
   -1    1   14      0.53      0.00
   -2    1   13     -3.32      0.00
   -3    1   12     -0.26      0.00
   -4    1   11     -0.63      0.00
   -5    1   10     -0.36      0.00
   -6    1    9      0.85      0.00
   -7    1    8      0.11      0.00
   -8    1    7      2.21      0.00
   -9    1    6      0.07      0.00
  -10    1    5      0.77      0.00
  -11    1    4      2.80      0.00
  -12    1    3     -1.74      0.00
  -13    1    2      1.09      0.00
   -1    2   14      0.06      0.00
   -2    2   13     -1.16      0.00
   -3    2   12      0.83      0.00
   -4    2   11      1.03      0.00
   -5    2   10      1.07      0.00
   -6    2    9      1.87      0.00
   -7    2    8      1.83      0.00
   -8    2    7     -1.85      0.00
   -9    2    6     -0.75      0.00
  -10    2    5      3.08      0.00
  -11    2    4     -1.70      0.00
  -12    2    3      1.53      0.00
  -13    2    2     -0.91      0.00
   -1    3   14      0.67      0.00
   -2    3   13     -2.69      0.00
   -3    3   12     -0.11      0.00
   -4    3   11     -0.06      0.00
   -5    3   10      0.68      0.00
   -6    3    9     -0.59      0.00
   -7    3    8      0.41      0.00
   -8    3    7      2.00      0.00
   -9    3    6      1.52      0.00
  -10    3    5     -1.29      0.00
  -11    3    4      1.22      0.00
  -12    3    3      0.45      0.00
  -13    3    2     -0.46      0.00
   -1    4   14      0.13      0.00
   -2    4   13     -1.73      0.00
   -3    4   12     -0.70      0.00
   -4    4   11      1.06      0.00
   -5    4   10     -0.60      0.00
   -6    4    9      1.83      0.00
   -7    4    8      1.82      0.00
   -8    4    7     -1.41      0.00
   -9    4    6      0.10      0.00
  -10    4    5      2.75      0.00
  -11    4    4     -1.48      0.00
  -12    4    3     -0.33      0.00
  -13    4    2      0.25      0.00
   -1    5   14     -1.94      0.00
   -2    5   13     -0.13      0.00
   -3    5   12      1.46      0.00
   -4    5   11     -1.37      0.00
   -5    5   10     -1.10      0.00
   -6    5    9      0.51      0.00
   -7    5    8     -1.22      0.00
   -8    5    7      0.37      0.00
   -9    5    6      1.63      0.00
  -10    5    5     -1.13      0.00
  -11    5    4     -0.63      0.00
  -12    5    3      2.86      0.00
  -13    5    2     -0.27      0.00
   -2    6   13     -0.85      0.00
   -3    6   12     -0.39      0.00
   -4    6   11      0.04      0.00
   -5    6   10     -2.26      0.00
   -6    6    9     -0.72      0.00
   -7    6    8      2.09      0.00
   -8    6    7      0.95      0.00
   -9    6    6     -0.69      0.00
  -10    6    5     -0.24      0.00
  -11    6    4      1.44      0.00
  -12    6    3     -1.11      0.00
  -13    6    2      1.10      0.00
   -2    7   13     -0.31      0.00
   -3    7   12      1.39      0.00
   -4    7   11     -1.18      0.00
   -5    7   10     -1.99      0.00
   -6    7    9      0.16      0.00
   -7    7    8      1.37      0.00
   -8    7    7     -1.43      0.00
   -9    7    6     -0.36      0.00
  -10    7    5     -0.74      0.00
  -11    7    4     -2.89      0.00
  -12    7    3      1.28      0.00
   -2    8   13      0.44      0.00
   -3    8   12     -0.40      0.00
   -4    8   11      0.66      0.00
   -5    8   10     -1.33      0.00
   -6    8    9     -0.65      0.00
   -7    8    8     -1.61      0.00
   -8    8    7     -0.09      0.00
   -9    8    6      0.16      0.00
  -10    8    5     -2.63      0.00
  -11    8    4      1.18      0.00
  -12    8    3      0.39      0.00
   -3    9   12     -0.34      0.00
   -4    9   11     -0.69      0.00
   -5    9   10     -1.09      0.00
   -6    9    9      0.90      0.00
   -7    9    8      2.53      0.00
   -8    9    7     -0.49      0.00
   -9    9    6     -0.66      0.00
  -10    9    5      0.30      0.00
  -11    9    4     -0.09      0.00
  -12    9    3      0.06      0.00
   -3   10   12      0.82      0.00
   -4   10   11      0.48      0.00
   -5   10   10      1.65      0.00
   -6   10    9     -0.24      0.00
   -7   10    8     -1.15      0.00
   -8   10    7     -0.73      0.00
   -9   10    6     -0.43      0.00
  -10   10    5     -1.42      0.00
  -11   10    4      0.52      0.00
   -4   11   11      0.60      0.00
   -5   11   10      0.11      0.00
   -6   11    9     -1.33      0.00
   -7   11    8      0.84      0.00
   -8   11    7     -0.57      0.00
   -9   11    6      0.01      0.00
  -10   11    5     -0.70      0.00
   -5   12   10      0.92      0.00
   -6   12    9      2.24      0.00
   -7   12    8     -2.01      0.00
   -8   12    7     -0.55      0.00
   -9   12    6     -0.23      0.00
  -10   12    5     -0.13      0.00
   -6   13    9     -2.69      0.00
   -7   13    8      0.15      0.00
   -8   13    7     -0.71      0.00
   -2    0   14      3.92      0.00
   -4    0   12     -0.19      0.00
   -6    0   10      0.98      0.00
   -8    0    8     -3.13      0.00
  -10    0    6     -1.06      0.00
  -14    0    2      1.46      0.00
   -2    1   14     -0.08      0.00
   -3    1   13     -2.23      0.00
   -4    1   12     -1.45      0.00
   -5    1   11     -1.31      0.00
   -6    1   10     -0.98      0.00
   -7    1    9      0.79      0.00
   -8    1    8      0.81      0.00
   -9    1    7      0.07      0.00
  -10    1    6     -1.96      0.00
  -11    1    5      0.89      0.00
  -13    1    3      1.26      0.00
  -14    1    2     -0.78      0.00
   -2    2   14      2.61      0.00
   -3    2   13      0.16      0.00
   -4    2   12      0.25      0.00
   -5    2   11     -0.17      0.00
   -6    2   10      0.47      0.00
   -7    2    9     -0.63      0.00
   -8    2    8     -1.54      0.00
   -9    2    7     -1.65      0.00
  -10    2    6     -0.48      0.00
  -11    2    5     -0.47      0.00
  -12    2    4      0.46      0.00
  -13    2    3      0.45      0.00
  -14    2    2      0.53      0.00
   -2    3   14      0.91      0.00
   -3    3   13     -0.34      0.00
   -4    3   12     -1.57      0.00
   -5    3   11      0.26      0.00
   -6    3   10     -2.96      0.00
   -7    3    9     -1.56      0.00
   -8    3    8      0.53      0.00
   -9    3    7      0.60      0.00
  -10    3    6     -0.79      0.00
  -11    3    5      0.17      0.00
  -12    3    4      0.17      0.00
  -13    3    3      0.48      0.00
   -2    4   14     -0.46      0.00
   -3    4   13     -0.23      0.00
   -4    4   12      0.70      0.00
   -5    4   11      0.29      0.00
   -6    4   10     -1.29      0.00
   -7    4    9      0.40      0.00
   -8    4    8      0.36      0.00
   -9    4    7     -2.40      0.00
  -10    4    6     -0.59      0.00
  -11    4    5      2.40      0.00
  -12    4    4     -2.19      0.00
  -13    4    3      1.91      0.00
   -2    5   14      0.76      0.00
   -3    5   13     -0.10      0.00
   -4    5   12     -0.14      0.00
   -5    5   11      0.24      0.00
   -6    5   10     -2.35      0.00
   -7    5    9     -2.61      0.00
   -8    5    8     -0.54      0.00
   -9    5    7      0.40      0.00
  -10    5    6     -0.77      0.00
  -11    5    5     -1.74      0.00
  -12    5    4      1.50      0.00
  -13    5    3     -1.15      0.00
   -2    6   14     -0.38      0.00
   -3    6   13     -1.24      0.00
   -4    6   12      0.31      0.00
   -5    6   11      2.14      0.00
   -6    6   10     -1.23      0.00
   -7    6    9     -1.53      0.00
   -8    6    8      0.75      0.00
   -9    6    7     -1.44      0.00
  -10    6    6     -0.66      0.00
  -11    6    5      3.18      0.00
  -12    6    4     -2.07      0.00
  -13    6    3     -0.08      0.00
   -3    7   13      0.29      0.00
   -4    7   12      0.52      0.00
   -5    7   11      2.35      0.00
   -6    7   10     -0.93      0.00
   -7    7    9      0.29      0.00
   -8    7    8     -1.58      0.00
   -9    7    7     -0.85      0.00
  -10    7    6      1.63      0.00
  -11    7    5     -1.60      0.00
  -12    7    4      0.12      0.00
  -13    7    3      0.13      0.00
   -3    8   13     -0.18      0.00
   -4    8   12      0.30      0.00
   -5    8   11      1.92      0.00
   -6    8   10      0.26      0.00
   -7    8    9     -2.01      0.00
   -8    8    8     -0.12      0.00
   -9    8    7      0.56      0.00
  -10    8    6      0.80      0.00
  -11    8    5      1.93      0.00
  -12    8    4     -0.08      0.00
   -4    9   12      0.62      0.00
   -5    9   11     -0.75      0.00
   -6    9   10      1.12      0.00
   -7    9    9      0.81      0.00
   -8    9    8      0.15      0.00
   -9    9    7      0.41      0.00
  -10    9    6      1.16      0.00
  -11    9    5      0.12      0.00
  -12    9    4     -0.01      0.00
   -4   10   12      1.26      0.00
   -5   10   11      0.17      0.00
   -6   10   10     -0.99      0.00
   -7   10    9     -2.81      0.00
   -8   10    8     -0.95      0.00
   -9   10    7      0.57      0.00
  -10   10    6      0.28      0.00
  -11   10    5     -1.14      0.00
   -5   11   11     -0.08      0.00
   -6   11   10     -2.93      0.00
   -7   11    9      0.96      0.00
   -8   11    8     -0.22      0.00
   -9   11    7      0.82      0.00
  -10   11    6      0.42      0.00
   -6   12   10      0.78      0.00
   -7   12    9     -0.73      0.00
   -8   12    8      0.62      0.00
   -9   12    7     -0.43      0.00
   -3    0   14      1.40      0.00
   -5    0   12      0.71      0.00
   -7    0   10     -3.21      0.00
   -9    0    8     -0.41      0.00
  -11    0    6     -1.58      0.00
  -13    0    4     -0.69      0.00
   -2    1   15     -2.76      0.00
   -3    1   14     -0.41      0.00
   -4    1   13      0.54      0.00
   -5    1   12      0.17      0.00
   -6    1   11     -1.65      0.00
   -7    1   10     -0.71      0.00
   -8    1    9      1.44      0.00
   -9    1    8      2.30      0.00
  -10    1    7      1.09      0.00
  -11    1    6     -0.41      0.00
  -12    1    5     -1.04      0.00
  -13    1    4     -0.43      0.00
  -14    1    3     -0.77      0.00
   -2    2   15     -0.37      0.00
   -3    2   14      1.20      0.00
   -4    2   13      2.13      0.00
   -5    2   12      0.03      0.00
   -6    2   11      1.13      0.00
   -7    2   10     -0.98      0.00
   -8    2    9      0.03      0.00
   -9    2    8     -0.33      0.00
  -10    2    7      0.93      0.00
  -11    2    6      0.64      0.00
  -12    2    5      0.71      0.00
  -13    2    4     -0.61      0.00
  -14    2    3     -0.52      0.00
   -3    3   14     -0.85      0.00
   -4    3   13     -0.17      0.00
   -5    3   12     -0.93      0.00
   -6    3   11      0.57      0.00
   -7    3   10     -0.83      0.00
   -8    3    9      0.10      0.00
   -9    3    8      3.19      0.00
  -10    3    7      1.07      0.00
  -11    3    6     -2.28      0.00
  -12    3    5      1.15      0.00
  -13    3    4     -2.56      0.00
  -14    3    3      0.08      0.00
   -3    4   14      0.46      0.00
   -4    4   13      0.62      0.00
   -5    4   12     -0.26      0.00
   -6    4   11      1.76      0.00
   -7    4   10      2.34      0.00
   -8    4    9     -0.08      0.00
   -9    4    8     -1.46      0.00
  -10    4    7      0.10      0.00
  -11    4    6      0.78      0.00
  -12    4    5     -0.72      0.00
  -13    4    4      0.09      0.00
   -3    5   14      0.93      0.00
   -4    5   13      0.18      0.00
   -5    5   12     -2.07      0.00
   -6    5   11      1.86      0.00
   -7    5   10     -0.10      0.00
   -8    5    9     -1.88      0.00
   -9    5    8      1.63      0.00
  -10    5    7      1.16      0.00
  -11    5    6     -3.25      0.00
  -12    5    5      1.61      0.00
  -13    5    4     -0.18      0.00
   -3    6   14      0.15      0.00
   -4    6   13     -0.02      0.00
   -5    6   12     -0.50      0.00
   -6    6   11      3.97      0.00
   -7    6   10      1.09      0.00
   -8    6    9      1.16      0.00
   -9    6    8      0.46      0.00
  -10    6    7     -0.09      0.00
  -11    6    6      1.78      0.00
  -12    6    5      0.78      0.00
  -13    6    4     -0.31      0.00
   -3    7   14      1.34      0.00
   -4    7   13      0.14      0.00
   -5    7   12     -1.63      0.00
   -6    7   11      1.05      0.00
   -7    7   10      1.75      0.00
   -8    7    9      0.61      0.00
   -9    7    8     -0.09      0.00
  -10    7    7      0.02      0.00
  -11    7    6     -1.44      0.00
  -12    7    5     -0.03      0.00
  -13    7    4     -0.71      0.00
   -4    8   13      0.55      0.00
   -5    8   12      0.27      0.00
   -6    8   11     -1.67      0.00
   -7    8   10     -0.74      0.00
   -8    8    9      0.26      0.00
   -9    8    8      0.71      0.00
  -10    8    7      0.19      0.00
  -11    8    6     -0.24      0.00
  -12    8    5     -0.37      0.00
   -4    9   13     -0.20      0.00
   -5    9   12     -0.31      0.00
   -6    9   11     -0.39      0.00
   -7    9   10     -0.21      0.00
   -8    9    9      0.66      0.00
   -9    9    8     -0.82      0.00
  -10    9    7     -0.54      0.00
  -11    9    6     -0.92      0.00
  -12    9    5     -0.35      0.00
   -5   10   12      0.16      0.00
   -6   10   11      0.84      0.00
   -7   10   10     -1.57      0.00
   -8   10    9      0.79      0.00
   -9   10    8     -0.33      0.00
  -10   10    7     -0.23      0.00
  -11   10    6     -1.38      0.00
   -6   11   11      0.69      0.00
   -7   11   10      1.81      0.00
   -8   11    9      1.31      0.00
   -9   11    8     -0.08      0.00
  -10   11    7     -1.38      0.00
   -7   12   10      1.36      0.00
   -8   12    9      0.01      0.00
   -9   12    8     -0.38      0.00
   -4    0   14     -0.62      0.00
   -6    0   12      1.16      0.00
   -8    0   10     -0.88      0.00
  -10    0    8      0.59      0.00
  -12    0    6      0.58      0.00
  -14    0    4     -0.13      0.00
   -3    1   15     -0.90      0.00
   -4    1   14     -0.90      0.00
   -5    1   13      0.06      0.00
   -6    1   12      0.10      0.00
   -7    1   11      2.38      0.00
   -8    1   10      0.80      0.00
   -9    1    9      1.23      0.00
  -10    1    8     -0.28      0.00
  -11    1    7      1.28      0.00
  -12    1    6     -0.88      0.00
  -13    1    5      0.14      0.00
  -14    1    4      0.16      0.00
   -3    2   15      1.32      0.00
   -4    2   14     -0.55      0.00
   -5    2   13      0.17      0.00
   -6    2   12      0.30      0.00
   -7    2   11      2.26      0.00
   -8    2   10     -0.55      0.00
   -9    2    9     -3.39      0.00
  -10    2    8     -1.05      0.00
  -11    2    7      1.53      0.00
  -12    2    6     -0.30      0.00
  -13    2    5      0.85      0.00
  -14    2    4     -0.41      0.00
   -3    3   15      0.05      0.00
   -4    3   14     -0.98      0.00
   -5    3   13      0.37      0.00
   -6    3   12     -0.41      0.00
   -7    3   11     -0.59      0.00
   -8    3   10      0.64      0.00
   -9    3    9      0.68      0.00
  -10    3    8     -0.75      0.00
  -11    3    7     -0.58      0.00
  -12    3    6     -0.98      0.00
  -13    3    5      0.49      0.00
  -14    3    4      1.71      0.00
   -3    4   15     -0.06      0.00
   -4    4   14      0.15      0.00
   -5    4   13      2.59      0.00
   -6    4   12     -0.64      0.00
   -7    4   11      1.01      0.00
   -8    4   10      0.87      0.00
   -9    4    9     -2.61      0.00
  -10    4    8     -1.09      0.00
  -11    4    7      2.87      0.00
  -12    4    6     -1.10      0.00
  -13    4    5      1.57      0.00
  -14    4    4      2.73      0.00
   -4    5   14      0.08      0.00
   -5    5   13      0.98      0.00
   -6    5   12     -2.14      0.00
   -7    5   11     -0.21      0.00
   -8    5   10     -0.48      0.00
   -9    5    9      0.54      0.00
  -10    5    8      0.82      0.00
  -11    5    7     -0.68      0.00
  -12    5    6     -1.16      0.00
  -13    5    5      1.39      0.00
   -4    6   14      0.14      0.00
   -5    6   13      1.88      0.00
   -6    6   12     -1.20      0.00
   -7    6   11     -0.81      0.00
   -8    6   10      0.56      0.00
   -9    6    9      1.20      0.00
  -10    6    8     -0.67      0.00
  -11    6    7      0.90      0.00
  -12    6    6      0.21      0.00
  -13    6    5     -0.06      0.00
   -4    7   14     -0.92      0.00
   -5    7   13     -0.54      0.00
   -6    7   12     -1.19      0.00
   -7    7   11     -1.63      0.00
   -8    7   10     -0.78      0.00
   -9    7    9     -0.35      0.00
  -10    7    8     -0.65      0.00
  -11    7    7     -0.47      0.00
  -12    7    6     -0.96      0.00
  -13    7    5     -1.31      0.00
   -5    8   13      0.56      0.00
   -6    8   12     -1.05      0.00
   -7    8   11     -0.22      0.00
   -8    8   10     -1.16      0.00
   -9    8    9      0.56      0.00
  -10    8    8     -0.13      0.00
  -11    8    7      0.83      0.00
  -12    8    6     -0.01      0.00
   -5    9   13     -1.27      0.00
   -6    9   12      1.09      0.00
   -7    9   11      2.95      0.00
   -8    9   10     -0.22      0.00
   -9    9    9     -0.08      0.00
  -10    9    8     -0.28      0.00
  -11    9    7      0.64      0.00
  -12    9    6     -1.10      0.00
   -6   10   12      0.87      0.00
   -7   10   11      1.65      0.00
   -8   10   10      0.31      0.00
   -9   10    9      0.98      0.00
  -10   10    8      0.54      0.00
  -11   10    7      0.49      0.00
   -7   11   11     -0.27      0.00
   -8   11   10     -0.23      0.00
   -9   11    9      0.21      0.00
  -10   11    8      0.59      0.00
   -5    0   14     -0.36      0.00
   -7    0   12     -0.22      0.00
   -9    0   10     -1.19      0.00
  -11    0    8     -2.37      0.00
  -13    0    6     -1.56      0.00
   -4    1   15      0.20      0.00
   -5    1   14      0.13      0.00
   -6    1   13     -0.87      0.00
   -7    1   12     -0.78      0.00
   -8    1   11      1.45      0.00
   -9    1   10      0.77      0.00
  -10    1    9     -0.96      0.00
  -11    1    8     -1.49      0.00
  -12    1    7     -0.82      0.00
  -13    1    6      0.65      0.00
  -14    1    5      0.52      0.00
   -4    2   15      0.60      0.00
   -5    2   14     -0.54      0.00
   -6    2   13      0.70      0.00
   -7    2   12     -0.52      0.00
   -8    2   11     -1.72      0.00
   -9    2   10     -0.73      0.00
  -10    2    9      0.20      0.00
  -11    2    8     -1.11      0.00
  -12    2    7      0.65      0.00
  -13    2    6      0.15      0.00
  -14    2    5     -0.08      0.00
   -4    3   15     -0.23      0.00
   -5    3   14     -1.09      0.00
   -6    3   13      0.51      0.00
   -7    3   12     -0.87      0.00
   -8    3   11     -0.68      0.00
   -9    3   10      2.46      0.00
  -10    3    9      1.06      0.00
  -11    3    8     -2.50      0.00
  -12    3    7      1.26      0.00
  -13    3    6     -1.04      0.00
  -14    3    5     -1.12      0.00
   -4    4   15     -0.57      0.00
   -5    4   14     -0.84      0.00
   -6    4   13      1.35      0.00
   -7    4   12     -0.18      0.00
   -8    4   11      0.29      0.00
   -9    4   10      0.06      0.00
  -10    4    9     -0.62      0.00
  -11    4    8      0.68      0.00
  -12    4    7      1.12      0.00
  -13    4    6     -1.62      0.00
  -14    4    5     -1.28      0.00
   -5    5   14     -2.10      0.00
   -6    5   13     -0.13      0.00
   -7    5   12     -0.03      0.00
   -8    5   11     -0.76      0.00
   -9    5   10     -0.40      0.00
  -10    5    9      1.41      0.00
  -11    5    8     -1.38      0.00
  -12    5    7     -0.90      0.00
  -13    5    6     -1.19      0.00
  -14    5    5     -3.28      0.00
   -5    6   14     -0.81      0.00
   -6    6   13      0.18      0.00
   -7    6   12      0.04      0.00
   -8    6   11      0.42      0.00
   -9    6   10     -0.20      0.00
  -10    6    9     -0.46      0.00
  -11    6    8     -0.22      0.00
  -12    6    7      1.17      0.00
  -13    6    6      0.78      0.00
   -5    7   14     -1.41      0.00
   -6    7   13      1.41      0.00
   -7    7   12      0.98      0.00
   -8    7   11      1.00      0.00
   -9    7   10     -1.23      0.00
  -10    7    9     -0.23      0.00
  -11    7    8     -0.35      0.00
  -12    7    7      0.33      0.00
  -13    7    6     -1.67      0.00
   -6    8   13      0.48      0.00
   -7    8   12      0.13      0.00
   -8    8   11      1.78      0.00
   -9    8   10     -0.42      0.00
  -10    8    9     -0.24      0.00
  -11    8    8      0.79      0.00
  -12    8    7      1.46      0.00
  -13    8    6     -1.20      0.00
   -6    9   13     -0.47      0.00
   -7    9   12      0.02      0.00
   -8    9   11      0.53      0.00
   -9    9   10     -0.70      0.00
  -10    9    9      0.85      0.00
  -11    9    8     -0.85      0.00
  -12    9    7     -0.40      0.00
   -7   10   12     -2.02      0.00
   -8   10   11     -0.72      0.00
   -9   10   10     -0.38      0.00
  -10   10    9     -0.18      0.00
  -11   10    8      0.71      0.00
   -9   11   10     -1.61      0.00
   -6    0   14      2.31      0.00
   -8    0   12     -1.76      0.00
  -10    0   10      0.87      0.00
  -12    0    8      0.69      0.00
  -14    0    6      1.43      0.00
   -5    1   15      0.42      0.00
   -6    1   14     -1.07      0.00
   -7    1   13     -0.08      0.00
   -8    1   12      0.15      0.00
   -9    1   11      0.00      0.00
  -10    1   10      0.22      0.00
  -11    1    9      1.64      0.00
  -12    1    8      0.72      0.00
  -13    1    7      0.97      0.00
  -14    1    6      0.26      0.00
   -5    2   15      0.46      0.00
   -6    2   14      0.69      0.00
   -7    2   13     -0.26      0.00
   -8    2   12      0.02      0.00
   -9    2   11     -0.91      0.00
  -10    2   10      0.39      0.00
  -11    2    9      2.85      0.00
  -12    2    8     -0.82      0.00
  -13    2    7      1.18      0.00
  -14    2    6     -0.81      0.00
   -5    3   15      0.41      0.00
   -6    3   14     -1.52      0.00
   -7    3   13     -0.28      0.00
   -8    3   12      0.27      0.00
   -9    3   11      0.11      0.00
  -10    3   10      0.48      0.00
  -11    3    9     -0.10      0.00
  -12    3    8      0.65      0.00
  -13    3    7     -0.24      0.00
  -14    3    6     -0.08      0.00
   -5    4   15      0.95      0.00
   -6    4   14     -0.67      0.00
   -7    4   13     -0.59      0.00
   -8    4   12      1.37      0.00
   -9    4   11      0.11      0.00
  -10    4   10     -1.48      0.00
  -11    4    9      1.70      0.00
  -12    4    8      0.80      0.00
  -13    4    7      0.56      0.00
  -14    4    6      1.19      0.00
   -5    5   15      1.00      0.00
   -6    5   14     -0.99      0.00
   -7    5   13     -0.23      0.00
   -8    5   12     -0.58      0.00
   -9    5   11     -0.34      0.00
  -10    5   10      0.05      0.00
  -11    5    9      0.25      0.00
  -12    5    8     -1.01      0.00
  -13    5    7      0.39      0.00
  -14    5    6      2.90      0.00
   -6    6   14     -0.51      0.00
   -7    6   13      0.22      0.00
   -8    6   12      0.26      0.00
   -9    6   11      0.60      0.00
  -10    6   10      0.14      0.00
  -11    6    9      0.49      0.00
  -12    6    8      1.09      0.00
  -13    6    7      2.65      0.00
   -6    7   14      0.31      0.00
   -7    7   13      1.14      0.00
   -8    7   12     -0.90      0.00
   -9    7   11      0.73      0.00
  -10    7   10      0.54      0.00
  -11    7    9     -0.38      0.00
  -12    7    8     -0.35      0.00
  -13    7    7      0.40      0.00
   -7    8   13     -1.94      0.00
   -8    8   12     -1.94      0.00
   -9    8   11      0.57      0.00
  -10    8   10     -0.14      0.00
  -11    8    9      1.16      0.00
  -12    8    8     -0.36      0.00
   -7    9   13     -0.08      0.00
   -8    9   12     -1.24      0.00
   -9    9   11      0.36      0.00
  -10    9   10      0.89      0.00
  -11    9    9     -1.05      0.00
  -12    9    8     -0.60      0.00
   -8   10   12      0.13      0.00
   -9   10   11      0.89      0.00
  -10   10   10     -0.89      0.00
  -11   10    9      0.98      0.00
   -7    0   14     -1.17      0.00
   -9    0   12      0.03      0.00
  -11    0   10     -0.82      0.00
  -13    0    8      0.96      0.00
   -6    1   15     -2.03      0.00
   -7    1   14     -0.09      0.00
   -8    1   13     -0.20      0.00
   -9    1   12      0.40      0.00
  -10    1   11     -0.45      0.00
  -11    1   10     -1.22      0.00
  -12    1    9      1.83      0.00
  -13    1    8     -2.15      0.00
  -14    1    7     -0.28      0.00
   -6    2   15      1.07      0.00
   -7    2   14      0.49      0.00
   -8    2   13      0.24      0.00
   -9    2   12      0.19      0.00
  -10    2   11     -0.21      0.00
  -11    2   10     -0.17      0.00
  -12    2    9     -1.50      0.00
  -13    2    8      0.94      0.00
  -14    2    7     -1.33      0.00
   -6    3   15     -0.23      0.00
   -7    3   14     -0.38      0.00
   -8    3   13     -1.17      0.00
   -9    3   12      0.16      0.00
  -10    3   11      0.31      0.00
  -11    3   10     -1.75      0.00
  -12    3    9     -0.65      0.00
  -13    3    8      0.07      0.00
  -14    3    7      0.88      0.00
   -6    4   15      1.43      0.00
   -7    4   14      1.10      0.00
   -8    4   13      0.59      0.00
   -9    4   12      0.42      0.00
  -10    4   11      0.65      0.00
  -11    4   10     -0.18      0.00
  -12    4    9      0.33      0.00
  -13    4    8     -0.47      0.00
  -14    4    7     -0.74      0.00
   -6    5   15      0.89      0.00
   -7    5   14      0.20      0.00
   -8    5   13     -1.28      0.00
   -9    5   12     -0.67      0.00
  -10    5   11     -0.57      0.00
  -11    5   10      0.03      0.00
  -12    5    9     -1.56      0.00
  -13    5    8     -1.22      0.00
  -14    5    7      0.01      0.00
   -7    6   14     -0.44      0.00
   -8    6   13      0.57      0.00
   -9    6   12      0.00      0.00
  -10    6   11      1.20      0.00
  -11    6   10      0.62      0.00
  -12    6    9     -0.32      0.00
  -13    6    8     -0.06      0.00
   -7    7   14      0.33      0.00
   -8    7   13      0.41      0.00
   -9    7   12     -0.48      0.00
  -10    7   11      0.09      0.00
  -11    7   10     -1.12      0.00
  -12    7    9     -0.80      0.00
  -13    7    8     -1.53      0.00
   -8    8   13     -0.03      0.00
   -9    8   12     -0.26      0.00
  -10    8   11     -0.80      0.00
  -11    8   10      0.28      0.00
  -12    8    9     -0.28      0.00
   -9    9   12      0.33      0.00
  -10    9   11      0.34      0.00
  -11    9   10     -1.31      0.00
   -8    0   14      0.58      0.00
  -10    0   12      0.30      0.00
  -12    0   10     -2.61      0.00
  -14    0    8     -1.84      0.00
   -7    1   15      0.39      0.00
   -8    1   14      0.68      0.00
   -9    1   13      0.51      0.00
  -10    1   12      0.23      0.00
  -11    1   11      0.35      0.00
  -12    1   10      0.27      0.00
  -13    1    9     -2.85      0.00
  -14    1    8      1.55      0.00
   -7    2   15      1.39      0.00
   -8    2   14      0.68      0.00
   -9    2   13     -0.18      0.00
  -10    2   12      0.44      0.00
  -11    2   11      0.58      0.00
  -12    2   10     -0.75      0.00
  -13    2    9     -0.70      0.00
  -14    2    8      0.54      0.00
   -7    3   15     -0.65      0.00
   -8    3   14     -0.17      0.00
   -9    3   13     -0.56      0.00
  -10    3   12     -0.46      0.00
  -11    3   11      0.53      0.00
  -12    3   10     -0.55      0.00
  -13    3    9      0.51      0.00
  -14    3    8      0.51      0.00
   -7    4   15      1.27      0.00
   -8    4   14      1.84      0.00
   -9    4   13      0.14      0.00
  -10    4   12      1.03      0.00
  -11    4   11     -0.48      0.00
  -12    4   10      1.18      0.00
  -13    4    9     -0.77      0.00
  -14    4    8     -0.96      0.00
   -7    5   15     -0.59      0.00
   -8    5   14     -0.98      0.00
   -9    5   13     -0.86      0.00
  -10    5   12     -1.94      0.00
  -11    5   11     -0.75      0.00
  -12    5   10      0.41      0.00
  -13    5    9     -0.45      0.00
  -14    5    8     -0.03      0.00
   -8    6   14      0.55      0.00
   -9    6   13      1.34      0.00
  -10    6   12      0.55      0.00
  -11    6   11      0.18      0.00
  -12    6   10      0.54      0.00
  -13    6    9      0.84      0.00
   -8    7   14      0.49      0.00
   -9    7   13     -0.49      0.00
  -10    7   12     -1.07      0.00
  -11    7   11     -1.56      0.00
  -12    7   10      0.09      0.00
  -13    7    9     -0.03      0.00
   -9    8   13     -0.48      0.00
  -10    8   12     -0.73      0.00
  -11    8   11      1.08      0.00
  -12    8   10      0.07      0.00
   -9    0   14     -0.24      0.00
  -11    0   12     -0.35      0.00
  -13    0   10      2.26      0.00
   -8    1   15      0.68      0.00
   -9    1   14      0.04      0.00
  -10    1   13     -0.36      0.00
  -11    1   12      0.02      0.00
  -12    1   11      0.32      0.00
  -13    1   10      1.61      0.00
  -14    1    9      0.17      0.00
   -8    2   15     -0.68      0.00
   -9    2   14     -0.23      0.00
  -10    2   13     -0.69      0.00
  -11    2   12     -0.93      0.00
  -12    2   11      1.00      0.00
  -13    2   10      0.20      0.00
  -14    2    9      0.28      0.00
   -8    3   15     -0.96      0.00
   -9    3   14      0.18      0.00
  -10    3   13     -1.06      0.00
  -11    3   12      0.67      0.00
  -12    3   11     -0.06      0.00
  -13    3   10      2.20      0.00
  -14    3    9     -0.68      0.00
   -8    4   15      0.42      0.00
   -9    4   14      1.40      0.00
  -10    4   13      0.69      0.00
  -11    4   12     -0.49      0.00
  -12    4   11     -0.54      0.00
  -13    4   10      0.96      0.00
  -14    4    9     -0.54      0.00
   -8    5   15     -1.49      0.00
   -9    5   14     -1.24      0.00
  -10    5   13     -0.77      0.00
  -11    5   12      0.03      0.00
  -12    5   11      0.03      0.00
  -13    5   10      0.29      0.00
  -14    5    9      0.64      0.00
   -9    6   14      1.44      0.00
  -10    6   13      1.20      0.00
  -11    6   12      1.88      0.00
  -12    6   11      0.17      0.00
  -13    6   10      0.85      0.00
  -10    7   13      0.10      0.00
  -11    7   12     -0.50      0.00
  -12    7   11      0.24      0.00
  -10    0   14      0.13      0.00
  -12    0   12      1.26      0.00
  -14    0   10      2.10      0.00
   -9    1   15     -0.30      0.00
  -10    1   14      0.63      0.00
  -11    1   13      0.08      0.00
  -12    1   12     -0.40      0.00
  -13    1   11      0.96      0.00
  -14    1   10     -1.00      0.00
   -9    2   15     -0.45      0.00
  -10    2   14      0.34      0.00
  -11    2   13     -0.55      0.00
  -12    2   12      0.62      0.00
  -13    2   11     -0.91      0.00
  -14    2   10      1.28      0.00
   -9    3   15     -0.92      0.00
  -10    3   14      1.26      0.00
  -11    3   13      1.09      0.00
  -12    3   12      0.56      0.00
  -13    3   11     -1.23      0.00
  -14    3   10      0.96      0.00
   -9    4   15      0.37      0.00
  -10    4   14      0.30      0.00
  -11    4   13     -0.15      0.00
  -12    4   12     -0.40      0.00
  -13    4   11     -0.74      0.00
  -14    4   10     -0.36      0.00
  -10    5   14     -0.26      0.00
  -11    5   13      0.01      0.00
  -12    5   12      1.33      0.00
  -13    5   11     -1.10      0.00
  -11    6   13      1.13      0.00
  -12    6   12     -0.08      0.00
  -11    0   14      1.14      0.00
  -13    0   12     -1.68      0.00
  -10    1   15      0.07      0.00
  -11    1   14      0.18      0.00
  -12    1   13     -1.10      0.00
  -13    1   12     -1.14      0.00
  -14    1   11     -2.38      0.00
  -10    2   15     -1.35      0.00
  -11    2   14      0.11      0.00
  -12    2   13     -0.30      0.00
  -13    2   12      0.15      0.00
  -14    2   11     -1.64      0.00
  -11    3   14      0.57      0.00
  -12    3   13      0.02      0.00
  -13    3   12     -1.24      0.00
  -11    4   14     -0.76      0.00
  -12    4   13     -1.57      0.00
  -13    4   12      1.21      0.00
  -12    0   14      0.49      0.00
  -12    1   14     -0.29      0.00
  -13    1   13     -0.15      0.00
  -13    2   13      2.31      0.00
    1    0    0      7.48      0.00
   14    0    0     -1.09      0.00
   14    1    0      0.36      0.00
   14    2    0     -0.09      0.00
   14    3    0     -0.33      0.00
   14    4    0     -1.10      0.00
   13    5    0     -1.08      0.00
   14    5    0     -0.36      0.00
   13    6    0      0.10      0.00
   14    6    0     -0.82      0.00
   13    7    0     -0.22      0.00
   14    7    0      0.16      0.00
   12    8    0      0.66      0.00
   13    8    0     -0.95      0.00
   14    8    0     -0.86      0.00
   12    9    0      1.06      0.00
   13    9    0      1.10      0.00
   11   10    0      0.55      0.00
   12   10    0     -0.15      0.00
   13   10    0     -0.60      0.00
   10   11    0     -0.53      0.00
   11   11    0     -1.16      0.00
   12   11    0      0.70      0.00
   10   12    0      1.48      0.00
   11   12    0     -0.37      0.00
   12   12    0      0.46      0.00
    9   13    0     -0.23      0.00
   10   13    0      1.36      0.00
   11   13    0     -0.73      0.00
    7   14    0      0.80      0.00
    8   14    0     -1.09      0.00
    9   14    0     -0.73      0.00
   10   14    0      0.97      0.00
    6   15    0     -1.42      0.00
    7   15    0     -0.68      0.00
    8   15    0      0.88      0.00
    9   15    0     -0.20      0.00
    2   16    0      0.39      0.00
    3   16    0     -0.95      0.00
    4   16    0     -0.13      0.00
    5   16    0      0.90      0.00
    6   16    0      1.19      0.00
    7   16    0     -0.81      0.00
    8   16    0     -0.48      0.00
  -14    1    1     -0.48      0.00
   13    1    1     -0.29      0.00
   14    1    1      1.29      0.00
  -14    2    1      0.55      0.00
   13    2    1     -0.16      0.00
   14    2    1      0.33      0.00
  -14    3    1      0.13      0.00
   13    3    1     -0.24      0.00
   14    3    1      0.63      0.00
  -14    4    1     -0.54      0.00
   13    4    1      2.07      0.00
   14    4    1      0.06      0.00
  -14    5    1      0.70      0.00
   13    5    1     -0.50      0.00
   14    5    1      1.16      0.00
  -14    6    1     -0.28      0.00
  -13    6    1     -0.73      0.00
   13    6    1      0.02      0.00
   14    6    1     -0.01      0.00
  -14    7    1      0.29      0.00
  -13    7    1     -0.45      0.00
   12    7    1      1.06      0.00
   13    7    1      0.99      0.00
   14    7    1      0.30      0.00
  -14    8    1      0.68      0.00
  -13    8    1      0.82      0.00
   12    8    1      0.47      0.00
   13    8    1      0.14      0.00
  -14    9    1      0.86      0.00
  -13    9    1      0.40      0.00
  -12    9    1     -0.75      0.00
   11    9    1     -1.56      0.00
   12    9    1      0.51      0.00
   13    9    1      0.69      0.00
  -13   10    1      1.51      0.00
  -12   10    1      1.49      0.00
  -11   10    1     -2.81      0.00
   11   10    1     -1.10      0.00
   12   10    1      0.15      0.00
  -13   11    1      0.40      0.00
  -12   11    1      0.22      0.00
  -11   11    1      0.30      0.00
   10   11    1      0.32      0.00
   11   11    1     -0.33      0.00
   12   11    1     -0.39      0.00
  -12   12    1      0.53      0.00
  -11   12    1     -1.18      0.00
  -10   12    1      1.35      0.00
    9   12    1      0.22      0.00
   10   12    1      0.43      0.00
   11   12    1      0.93      0.00
  -11   13    1     -0.70      0.00
  -10   13    1     -1.43      0.00
   -9   13    1      1.33      0.00
    8   13    1      0.52      0.00
    9   13    1      0.09      0.00
   10   13    1     -0.90      0.00
  -10   14    1      0.87      0.00
   -9   14    1     -0.42      0.00
   -8   14    1      0.90      0.00
    7   14    1      1.07      0.00
    8   14    1     -0.90      0.00
    9   14    1      0.30      0.00
   -9   15    1      0.29      0.00
   -8   15    1      0.26      0.00
   -7   15    1     -0.15      0.00
   -6   15    1     -0.32      0.00
    5   15    1     -0.15      0.00
    6   15    1     -1.92      0.00
    7   15    1      1.35      0.00
    8   15    1      0.66      0.00
   -8   16    1      1.03      0.00
   -7   16    1     -0.79      0.00
   -6   16    1     -0.16      0.00
   -5   16    1      1.39      0.00
   -4   16    1     -0.81      0.00
   -3   16    1      0.66      0.00
    2   16    1      0.02      0.00
    3   16    1      0.12      0.00
    4   16    1      0.18      0.00
    5   16    1     -0.10      0.00
    6   16    1      0.04      0.00
    7   16    1     -0.20      0.00
   13    0    2     -1.27      0.00
   14    0    2     -1.02      0.00
   13    1    2      0.52      0.00
   14    1    2     -0.87      0.00
   13    2    2      1.10      0.00
   14    2    2     -0.82      0.00
  -14    3    2      0.59      0.00
   13    3    2     -1.52      0.00
   14    3    2      0.47      0.00
  -14    4    2     -0.30      0.00
   13    4    2     -0.42      0.00
   14    4    2     -0.78      0.00
  -14    5    2      0.53      0.00
   12    5    2     -0.52      0.00
   13    5    2     -0.36      0.00
   14    5    2      0.07      0.00
  -14    6    2      1.06      0.00
   12    6    2     -0.01      0.00
   13    6    2     -0.47      0.00
  -14    7    2     -0.38      0.00
  -13    7    2     -0.15      0.00
   12    7    2     -0.99      0.00
   13    7    2     -0.49      0.00
  -14    8    2      0.25      0.00
  -13    8    2      0.75      0.00
   11    8    2     -0.09      0.00
   12    8    2     -0.68      0.00
   13    8    2     -0.40      0.00
  -14    9    2     -0.98      0.00
  -13    9    2     -1.36      0.00
  -12    9    2     -0.77      0.00
   11    9    2      1.96      0.00
   12    9    2     -1.24      0.00
  -13   10    2      0.09      0.00
  -12   10    2      0.11      0.00
   10   10    2      0.44      0.00
   11   10    2      0.78      0.00
   12   10    2      0.20      0.00
  -13   11    2     -0.96      0.00
  -12   11    2     -0.88      0.00
  -11   11    2      2.69      0.00
    9   11    2     -2.39      0.00
   10   11    2     -0.28      0.00
   11   11    2      0.55      0.00
  -12   12    2     -0.45      0.00
  -11   12    2      0.74      0.00
  -10   12    2      1.29      0.00
    9   12    2     -1.99      0.00
   10   12    2     -0.97      0.00
   11   12    2      1.07      0.00
  -11   13    2      0.12      0.00
  -10   13    2     -0.96      0.00
   -9   13    2      0.80      0.00
    8   13    2      2.92      0.00
    9   13    2     -0.43      0.00
   10   13    2     -1.18      0.00
  -11   14    2      0.55      0.00
  -10   14    2      0.07      0.00
   -9   14    2     -0.51      0.00
   -8   14    2      1.53      0.00
    6   14    2      1.84      0.00
    7   14    2     -2.17      0.00
    8   14    2      0.04      0.00
    9   14    2      0.30      0.00
  -10   15    2     -0.80      0.00
   -9   15    2     -0.29      0.00
   -8   15    2     -0.78      0.00
   -7   15    2      2.09      0.00
   -6   15    2     -1.23      0.00
    4   15    2      0.22      0.00
    5   15    2     -0.67      0.00
    6   15    2      0.33      0.00
    7   15    2      0.04      0.00
    8   15    2     -0.05      0.00
   -8   16    2     -0.29      0.00
   -7   16    2     -0.06      0.00
   -6   16    2      1.08      0.00
   -5   16    2      0.78      0.00
   -4   16    2     -0.92      0.00
   -3   16    2     -0.54      0.00
   -2   16    2     -1.21      0.00
    1   16    2     -0.09      0.00
    2   16    2     -0.90      0.00
    3   16    2     -0.62      0.00
    4   16    2      0.32      0.00
    5   16    2      0.82      0.00
    6   16    2      0.78      0.00
    7   16    2     -0.44      0.00
   12    1    3      0.90      0.00
   13    1    3     -0.34      0.00
   14    1    3      0.27      0.00
   12    2    3      0.55      0.00
   13    2    3      0.59      0.00
   14    2    3     -0.05      0.00
    1    3    3      4.00      0.00
   12    3    3     -0.16      0.00
   13    3    3     -0.50      0.00
  -14    4    3     -1.39      0.00
    1    4    3      3.60      0.00
   12    4    3      1.12      0.00
   13    4    3      0.06      0.00
  -14    5    3     -1.96      0.00
   12    5    3     -0.29      0.00
   13    5    3      0.82      0.00
  -14    6    3      0.70      0.00
   12    6    3     -0.32      0.00
   13    6    3      0.48      0.00
  -14    7    3     -2.08      0.00
   11    7    3      2.00      0.00
   12    7    3     -0.71      0.00
   13    7    3     -0.01      0.00
  -14    8    3     -0.19      0.00
  -13    8    3      1.09      0.00
   11    8    3     -0.56      0.00
   12    8    3      0.97      0.00
  -14    9    3     -0.87      0.00
  -13    9    3     -1.30      0.00
   10    9    3     -1.76      0.00
   11    9    3      0.56      0.00
   12    9    3     -0.90      0.00
  -14   10    3      1.06      0.00
  -13   10    3      0.85      0.00
  -12   10    3      0.24      0.00
   10   10    3     -1.99      0.00
   11   10    3     -0.42      0.00
  -13   11    3      0.08      0.00
  -12   11    3      0.18      0.00
  -11   11    3     -0.96      0.00
    9   11    3      3.10      0.00
   10   11    3      0.41      0.00
   11   11    3     -1.30      0.00
  -12   12    3      1.07      0.00
  -11   12    3     -1.68      0.00
  -10   12    3      0.67      0.00
    8   12    3     -1.83      0.00
    9   12    3      2.18      0.00
   10   12    3      1.05      0.00
  -12   13    3      0.22      0.00
  -11   13    3     -0.23      0.00
  -10   13    3     -0.11      0.00
   -9   13    3     -0.35      0.00
    7   13    3     -0.09      0.00
    8   13    3     -0.40      0.00
    9   13    3      0.94      0.00
  -11   14    3     -0.50      0.00
  -10   14    3      1.22      0.00
   -9   14    3     -0.53      0.00
   -8   14    3     -0.28      0.00
    6   14    3      1.24      0.00
    7   14    3     -1.54      0.00
    8   14    3     -1.14      0.00
  -10   15    3      0.21      0.00
   -9   15    3     -0.17      0.00
   -8   15    3     -0.83      0.00
   -7   15    3      1.44      0.00
   -6   15    3     -1.02      0.00
    4   15    3      0.62      0.00
    5   15    3     -1.35      0.00
    6   15    3     -0.17      0.00
    7   15    3      1.36      0.00
   -8   16    3     -0.08      0.00
   -7   16    3     -0.64      0.00
   -6   16    3      1.46      0.00
   -5   16    3      0.30      0.00
   -4   16    3     -0.52      0.00
   -3   16    3     -0.85      0.00
   -2   16    3     -0.50      0.00
   -1   16    3     -0.49      0.00
    0   16    3     -0.85      0.00
    1   16    3      1.06      0.00
    2   16    3     -1.42      0.00
    3   16    3     -0.44      0.00
    4   16    3     -0.04      0.00
    5   16    3     -0.30      0.00
    6   16    3     -1.21      0.00
  -12    0    4      3.05      0.00
    1    0    4     -7.59      0.00
   12    0    4     -0.18      0.00
   13    0    4      1.06      0.00
  -12    1    4     -0.92      0.00
   12    1    4     -1.12      0.00
   13    1    4     -0.10      0.00
    1    2    4     -3.12      0.00
   12    2    4     -0.29      0.00
   13    2    4      0.62      0.00
   12    3    4     -1.30      0.00
   13    3    4      0.51      0.00
   11    4    4      0.64      0.00
   12    4    4     -0.23      0.00
   13    4    4     -0.30      0.00
  -14    5    4      0.20      0.00
   11    5    4      1.36      0.00
   12    5    4     -0.22      0.00
   13    5    4     -0.36      0.00
  -14    6    4      2.46      0.00
   11    6    4     -0.24      0.00
   12    6    4      0.94      0.00
  -14    7    4      0.48      0.00
   11    7    4      1.35      0.00
   12    7    4     -0.64      0.00
  -14    8    4      2.10      0.00
  -13    8    4      0.45      0.00
   10    8    4      0.39      0.00
   11    8    4     -0.28      0.00
   12    8    4      1.16      0.00
  -14    9    4     -0.22      0.00
  -13    9    4     -1.32      0.00
   10    9    4      2.04      0.00
   11    9    4      0.20      0.00
  -14   10    4      0.96      0.00
  -13   10    4     -0.51      0.00
  -12   10    4     -0.08      0.00
    9   10    4     -1.13      0.00
   10   10    4     -0.14      0.00
   11   10    4      0.31      0.00
  -13   11    4      0.03      0.00
  -12   11    4     -1.49      0.00
  -11   11    4      2.13      0.00
    8   11    4     -0.53      0.00
    9   11    4     -1.46      0.00
   10   11    4      0.40      0.00
  -13   12    4      0.39      0.00
  -12   12    4      0.63      0.00
  -11   12    4     -0.77      0.00
    7   12    4      0.45      0.00
    8   12    4     -1.29      0.00
    9   12    4     -1.30      0.00
  -12   13    4     -0.58      0.00
  -11   13    4      1.89      0.00
  -10   13    4     -1.50      0.00
   -9   13    4      2.31      0.00
    6   13    4     -0.86      0.00
    7   13    4      3.35      0.00
    8   13    4      0.04      0.00
    9   13    4     -1.21      0.00
  -11   14    4      0.13      0.00
  -10   14    4      0.07      0.00
   -9   14    4      0.70      0.00
   -8   14    4      0.96      0.00
    5   14    4      0.97      0.00
    6   14    4     -0.89      0.00
    7   14    4      0.05      0.00
    8   14    4      0.34      0.00
  -10   15    4     -0.56      0.00
   -9   15    4      0.55      0.00
   -8   15    4      0.76      0.00
   -7   15    4      0.11      0.00
   -6   15    4     -1.00      0.00
    3   15    4      1.32      0.00
    4   15    4     -0.46      0.00
    5   15    4      0.41      0.00
    6   15    4     -0.31      0.00
    7   15    4      0.60      0.00
   -9   16    4      0.52      0.00
   -8   16    4      0.16      0.00
   -7   16    4     -0.18      0.00
   -6   16    4      0.23      0.00
   -5   16    4      0.38      0.00
   -4   16    4      0.23      0.00
   -3   16    4     -1.00      0.00
   -2   16    4     -0.18      0.00
   -1   16    4      1.88      0.00
    0   16    4     -0.75      0.00
    1   16    4      0.06      0.00
    2   16    4     -0.92      0.00
    3   16    4      0.10      0.00
    4   16    4      0.89      0.00
    5   16    4      0.36      0.00
   11    1    5      1.45      0.00
   12    1    5     -0.88      0.00
   11    2    5      1.59      0.00
   12    2    5      0.88      0.00
   11    3    5     -0.11      0.00
   12    3    5      0.57      0.00
   11    4    5     -1.63      0.00
   12    4    5      0.78      0.00
   11    5    5     -0.13      0.00
   12    5    5     -0.86      0.00
  -14    6    5     -1.75      0.00
   10    6    5     -0.75      0.00
   11    6    5     -1.28      0.00
   12    6    5      0.58      0.00
  -14    7    5     -1.26      0.00
   10    7    5      0.18      0.00
   11    7    5     -1.28      0.00
  -14    8    5      0.74      0.00
  -13    8    5      2.01      0.00
    9    8    5     -0.03      0.00
   10    8    5     -0.71      0.00
   11    8    5     -1.01      0.00
  -14    9    5     -2.13      0.00
  -13    9    5      2.27      0.00
    9    9    5     -0.07      0.00
   10    9    5      0.41      0.00
  -14   10    5     -0.92      0.00
  -13   10    5     -0.22      0.00
  -12   10    5      1.77      0.00
    8   10    5     -0.42      0.00
    9   10    5      0.56      0.00
   10   10    5     -0.43      0.00
  -13   11    5      0.25      0.00
  -12   11    5     -1.09      0.00
  -11   11    5      1.25      0.00
    7   11    5      1.97      0.00
    8   11    5      0.45      0.00
    9   11    5      0.13      0.00
  -13   12    5      0.57      0.00
  -12   12    5      0.72      0.00
  -11   12    5     -2.35      0.00
    6   12    5     -0.18      0.00
    7   12    5     -1.05      0.00
    8   12    5      0.50      0.00
    9   12    5      0.35      0.00
  -12   13    5      0.11      0.00
  -11   13    5      0.72      0.00
  -10   13    5     -1.20      0.00
   -9   13    5     -1.54      0.00
    5   13    5     -0.11      0.00
    6   13    5     -0.35      0.00
    7   13    5      0.96      0.00
    8   13    5     -0.36      0.00
  -11   14    5     -0.43      0.00
  -10   14    5      0.81      0.00
   -9   14    5     -2.12      0.00
   -8   14    5     -1.03      0.00
    4   14    5      0.81      0.00
    5   14    5      0.54      0.00
    6   14    5     -0.23      0.00
    7   14    5     -0.86      0.00
  -10   15    5      0.42      0.00
   -9   15    5     -0.59      0.00
   -8   15    5     -0.33      0.00
   -7   15    5     -0.18      0.00
   -6   15    5     -1.05      0.00
   -5   15    5     -0.33      0.00
    1   15    5     -0.67      0.00
    2   15    5      1.54      0.00
    3   15    5     -0.91      0.00
    4   15    5      0.04      0.00
    5   15    5      0.35      0.00
    6   15    5      0.40      0.00
   -9   16    5     -0.52      0.00
   -8   16    5      0.32      0.00
   -7   16    5     -0.11      0.00
   -6   16    5     -0.42      0.00
   -5   16    5      0.86      0.00
   -4   16    5     -0.04      0.00
   -3   16    5      0.31      0.00
   -2   16    5     -1.04      0.00
   -1   16    5     -0.86      0.00
    0   16    5      1.29      0.00
    1   16    5     -2.11      0.00
    2   16    5     -0.45      0.00
    3   16    5     -0.53      0.00
    4   16    5     -1.05      0.00
   11    0    6      0.86      0.00
   12    0    6      0.71      0.00
   10    1    6     -1.03      0.00
   11    1    6     -1.11      0.00
   12    1    6      0.71      0.00
   10    2    6      1.58      0.00
   11    2    6     -1.57      0.00
   12    2    6      0.44      0.00
   10    3    6      0.51      0.00
   11    3    6     -0.10      0.00
   12    3    6     -0.81      0.00
   10    4    6      0.74      0.00
   11    4    6     -0.07      0.00
   10    5    6      0.64      0.00
   11    5    6      0.31      0.00
  -14    6    6      1.62      0.00
    9    6    6     -0.10      0.00
   10    6    6      0.17      0.00
   11    6    6      0.86      0.00
  -14    7    6     -0.37      0.00
    9    7    6      1.11      0.00
   10    7    6      0.52      0.00
   11    7    6      0.43      0.00
  -14    8    6      1.48      0.00
    9    8    6      0.36      0.00
   10    8    6      0.18      0.00
  -14    9    6      0.06      0.00
  -13    9    6     -0.12      0.00
    8    9    6      1.43      0.00
    9    9    6     -0.09      0.00
   10    9    6      0.30      0.00
  -14   10    6     -0.04      0.00
  -13   10    6     -1.90      0.00
  -12   10    6      1.56      0.00
    7   10    6     -1.67      0.00
    8   10    6      0.40      0.00
    9   10    6      0.45      0.00
  -14   11    6      1.26      0.00
  -13   11    6     -1.02      0.00
  -12   11    6     -0.68      0.00
  -11   11    6      1.90      0.00
    6   11    6     -2.01      0.00
    7   11    6      0.47      0.00
    8   11    6     -0.12      0.00
    9   11    6      0.09      0.00
  -13   12    6      0.10      0.00
  -12   12    6     -0.57      0.00
  -11   12    6     -0.28      0.00
  -10   12    6      2.35      0.00
    5   12    6      1.68      0.00
    6   12    6     -1.22      0.00
    7   12    6     -1.41      0.00
    8   12    6      1.74      0.00
  -12   13    6      0.21      0.00
  -11   13    6     -0.26      0.00
  -10   13    6      0.48      0.00
   -9   13    6      2.36      0.00
    4   13    6     -1.71      0.00
    5   13    6      0.06      0.00
    6   13    6      0.09      0.00
    7   13    6     -1.00      0.00
  -11   14    6      0.00      0.00
  -10   14    6      0.30      0.00
   -9   14    6      0.65      0.00
   -8   14    6      0.96      0.00
   -7   14    6      0.00      0.00
    2   14    6     -0.72      0.00
    3   14    6      0.27      0.00
    4   14    6     -0.28      0.00
    5   14    6     -0.32      0.00
    6   14    6      0.40      0.00
  -10   15    6     -0.29      0.00
   -9   15    6      0.72      0.00
   -8   15    6     -0.25      0.00
   -7   15    6      0.81      0.00
   -6   15    6     -1.05      0.00
   -5   15    6     -2.26      0.00
   -4   15    6      0.63      0.00
   -3   15    6      0.98      0.00
   -2   15    6      1.05      0.00
   -1   15    6     -0.77      0.00
    0   15    6      1.77      0.00
    1   15    6      1.19      0.00
    2   15    6      0.99      0.00
    3   15    6      0.51      0.00
    4   15    6     -0.49      0.00
    5   15    6     -0.40      0.00
   -8   16    6      0.16      0.00
   -7   16    6     -0.25      0.00
   -6   16    6      1.14      0.00
   -5   16    6      0.07      0.00
   -4   16    6     -0.59      0.00
   -3   16    6      0.15      0.00
   -2   16    6      0.89      0.00
   -1   16    6     -1.02      0.00
    0   16    6      0.20      0.00
    1   16    6      0.69      0.00
    2   16    6     -1.42      0.00
    3   16    6      0.73      0.00
   10    1    7     -1.02      0.00
   11    1    7     -0.10      0.00
   10    2    7      1.66      0.00
   11    2    7     -0.03      0.00
    9    3    7     -0.30      0.00
   10    3    7     -0.33      0.00
   11    3    7      0.87      0.00
    9    4    7      0.03      0.00
   10    4    7      0.12      0.00
   11    4    7      0.51      0.00
    9    5    7     -0.01      0.00
   10    5    7     -0.12      0.00
  -14    6    7     -0.63      0.00
    9    6    7     -1.04      0.00
   10    6    7      0.37      0.00
  -14    7    7     -1.70      0.00
    8    7    7      1.75      0.00
    9    7    7     -0.93      0.00
   10    7    7     -0.57      0.00
  -14    8    7      0.65      0.00
  -13    8    7      0.22      0.00
    8    8    7     -1.62      0.00
    9    8    7     -0.39      0.00
  -14    9    7      0.63      0.00
  -13    9    7      1.50      0.00
    7    9    7      0.37      0.00
    8    9    7     -0.12      0.00
    9    9    7     -0.45      0.00
  -14   10    7     -0.96      0.00
  -13   10    7      1.26      0.00
  -12   10    7      0.17      0.00
    6   10    7      2.34      0.00
    7   10    7     -0.89      0.00
    8   10    7     -0.21      0.00
  -14   11    7      0.28      0.00
  -13   11    7      0.72      0.00
  -12   11    7      0.53      0.00
  -11   11    7     -0.04      0.00
    6   11    7      1.93      0.00
    7   11    7     -0.19      0.00
    8   11    7     -1.34      0.00
  -13   12    7      0.13      0.00
  -12   12    7     -0.18      0.00
  -11   12    7      0.74      0.00
  -10   12    7     -0.48      0.00
    4   12    7      1.50      0.00
    5   12    7     -0.58      0.00
    6   12    7      2.15      0.00
    7   12    7     -0.15      0.00
  -12   13    7     -0.04      0.00
  -11   13    7     -0.79      0.00
  -10   13    7     -1.20      0.00
   -9   13    7      0.34      0.00
    3   13    7      0.24      0.00
    4   13    7     -0.12      0.00
    5   13    7     -1.26      0.00
    6   13    7      1.33      0.00
  -11   14    7      0.54      0.00
  -10   14    7     -0.57      0.00
   -9   14    7     -0.85      0.00
   -8   14    7      0.13      0.00
   -7   14    7     -0.15      0.00
    1   14    7      0.09      0.00
    2   14    7     -2.21      0.00
    3   14    7      0.62      0.00
    4   14    7      1.29      0.00
    5   14    7     -0.74      0.00
  -10   15    7     -0.69      0.00
   -9   15    7      0.09      0.00
   -8   15    7     -0.82      0.00
   -7   15    7      0.45      0.00
   -6   15    7     -1.05      0.00
   -5   15    7     -0.06      0.00
   -4   15    7     -0.67      0.00
   -3   15    7     -0.96      0.00
   -2   15    7      0.90      0.00
   -1   15    7     -0.78      0.00
    0   15    7     -1.38      0.00
    1   15    7      2.26      0.00
    2   15    7      0.39      0.00
    3   15    7      0.19      0.00
    4   15    7      0.41      0.00
   -8   16    7      0.38      0.00
   -7   16    7     -0.76      0.00
   -6   16    7      0.65      0.00
   -5   16    7      0.83      0.00
   -4   16    7     -0.59      0.00
   -3   16    7     -0.92      0.00
   -2   16    7     -0.41      0.00
   -1   16    7      1.18      0.00
    0   16    7     -1.87      0.00
    1   16    7     -0.49      0.00
    2   16    7      0.59      0.00
    9    0    8     -1.02      0.00
   10    0    8      1.73      0.00
    9    1    8     -0.71      0.00
   10    1    8     -0.22      0.00
    9    2    8     -0.95      0.00
   10    2    8      0.48      0.00
    9    3    8     -0.96      0.00
   10    3    8     -1.33      0.00
    8    4    8      0.19      0.00
    9    4    8      0.79      0.00
   10    4    8     -0.01      0.00
    8    5    8      2.93      0.00
    9    5    8     -0.13      0.00
   10    5    8     -1.12      0.00
  -14    6    8      0.34      0.00
    8    6    8     -0.20      0.00
    9    6    8      1.08      0.00
  -14    7    8     -0.62      0.00
    7    7    8      0.79      0.00
    8    7    8      2.29      0.00
    9    7    8      0.60      0.00
  -14    8    8     -0.59      0.00
  -13    8    8     -0.93      0.00
    7    8    8     -0.30      0.00
    8    8    8     -0.03      0.00
    9    8    8      0.42      0.00
  -14    9    8      0.25      0.00
  -13    9    8     -1.44      0.00
    6    9    8     -0.99      0.00
    7    9    8      0.40      0.00
    8    9    8      0.70      0.00
  -14   10    8     -0.32      0.00
  -13   10    8     -0.85      0.00
  -12   10    8     -1.68      0.00
    5   10    8     -0.02      0.00
    6   10    8      0.77      0.00
    7   10    8      0.21      0.00
    8   10    8      1.18      0.00
  -14   11    8      0.46      0.00
  -13   11    8      0.54      0.00
  -12   11    8     -0.14      0.00
  -11   11    8     -1.97      0.00
    4   11    8     -0.25      0.00
    5   11    8     -1.42      0.00
    6   11    8     -1.26      0.00
    7   11    8      0.01      0.00
  -13   12    8     -0.74      0.00
  -12   12    8      0.54      0.00
  -11   12    8      0.72      0.00
  -10   12    8      1.03      0.00
    3   12    8     -0.28      0.00
    4   12    8      1.58      0.00
    5   12    8      0.48      0.00
    6   12    8     -1.01      0.00
  -12   13    8     -0.39      0.00
  -11   13    8     -0.89      0.00
  -10   13    8      1.02      0.00
   -9   13    8     -0.01      0.00
   -8   13    8      0.58      0.00
    1   13    8      1.18      0.00
    2   13    8      1.40      0.00
    3   13    8     -0.73      0.00
    4   13    8     -0.69      0.00
    5   13    8      1.20      0.00
  -11   14    8      0.07      0.00
  -10   14    8      0.86      0.00
   -9   14    8      0.32      0.00
   -8   14    8     -0.36      0.00
   -7   14    8     -0.81      0.00
   -6   14    8      2.40      0.00
   -5   14    8      0.59      0.00
   -4   14    8      1.14      0.00
   -3   14    8      1.07      0.00
   -2   14    8     -0.38      0.00
   -1   14    8      2.14      0.00
    0   14    8     -2.14      0.00
    1   14    8     -1.40      0.00
    2   14    8     -0.31      0.00
    3   14    8     -0.80      0.00
    4   14    8      0.16      0.00
   -9   15    8      0.39      0.00
   -8   15    8      0.73      0.00
   -7   15    8     -0.34      0.00
   -6   15    8     -2.01      0.00
   -5   15    8     -0.48      0.00
   -4   15    8      0.49      0.00
   -3   15    8      0.54      0.00
   -2   15    8     -0.08      0.00
   -1   15    8      1.05      0.00
    0   15    8      0.07      0.00
    1   15    8     -0.53      0.00
    2   15    8      0.63      0.00
    3   15    8     -0.53      0.00
   -7   16    8      0.05      0.00
   -6   16    8      0.31      0.00
   -5   16    8     -1.09      0.00
   -4   16    8      0.66      0.00
   -3   16    8      0.52      0.00
   -2   16    8     -0.39      0.00
   -1   16    8      0.56      0.00
    0   16    8      0.60      0.00
    1   16    8     -0.81      0.00
    8    1    9      0.85      0.00
    9    1    9      0.37      0.00
    8    2    9     -1.23      0.00
    9    2    9      0.88      0.00
    8    3    9      0.15      0.00
    9    3    9     -0.01      0.00
    7    4    9     -1.34      0.00
    8    4    9     -2.46      0.00
    9    4    9      1.49      0.00
    7    5    9     -0.25      0.00
    8    5    9     -0.59      0.00
    9    5    9     -0.66      0.00
  -14    6    9      0.24      0.00
    7    6    9     -1.43      0.00
    8    6    9     -1.88      0.00
    9    6    9      0.27      0.00
  -14    7    9      1.09      0.00
    6    7    9     -0.15      0.00
    7    7    9     -0.23      0.00
    8    7    9     -0.55      0.00
  -14    8    9      0.33      0.00
  -13    8    9      2.00      0.00
    6    8    9      1.17      0.00
    7    8    9     -0.41      0.00
    8    8    9     -0.70      0.00
  -14    9    9      0.44      0.00
  -13    9    9      0.97      0.00
  -12    9    9      1.45      0.00
    5    9    9     -1.28      0.00
    6    9    9     -0.95      0.00
    7    9    9     -0.52      0.00
  -14   10    9     -0.15      0.00
  -13   10    9     -0.53      0.00
  -12   10    9      0.97      0.00
    4   10    9      1.05      0.00
    5   10    9     -0.36      0.00
    6   10    9      0.96      0.00
    7   10    9      0.31      0.00
  -13   11    9      1.02      0.00
  -12   11    9      0.31      0.00
  -11   11    9     -0.99      0.00
  -10   11    9     -0.56      0.00
    3   11    9     -0.78      0.00
    4   11    9      0.17      0.00
    5   11    9      0.20      0.00
    6   11    9     -1.25      0.00
  -13   12    9     -0.72      0.00
  -12   12    9      1.06      0.00
  -11   12    9      1.05      0.00
  -10   12    9     -1.79      0.00
   -9   12    9      0.53      0.00
    2   12    9     -0.64      0.00
    3   12    9     -0.24      0.00
    4   12    9     -0.49      0.00
    5   12    9      0.49      0.00
  -12   13    9     -0.43      0.00
  -11   13    9      0.53      0.00
  -10   13    9     -1.26      0.00
   -9   13    9     -0.53      0.00
   -8   13    9      1.23      0.00
   -7   13    9      0.37      0.00
   -1   13    9      0.46      0.00
    0   13    9      1.72      0.00
    1   13    9      0.41      0.00
    2   13    9      0.55      0.00
    3   13    9      0.38      0.00
    4   13    9     -1.01      0.00
  -10   14    9     -0.23      0.00
   -9   14    9     -0.57      0.00
   -8   14    9     -1.11      0.00
   -7   14    9      0.84      0.00
   -6   14    9      1.78      0.00
   -5   14    9      1.16      0.00
   -4   14    9      0.35      0.00
   -3   14    9      0.32      0.00
   -2   14    9     -1.42      0.00
   -1   14    9     -0.04      0.00
    0   14    9      2.11      0.00
    1   14    9     -0.75      0.00
    2   14    9     -0.21      0.00
    3   14    9      0.23      0.00
   -9   15    9      0.19      0.00
   -8   15    9      0.75      0.00
   -7   15    9     -0.33      0.00
   -6   15    9     -0.62      0.00
   -5   15    9      0.08      0.00
   -4   15    9     -1.52      0.00
   -3   15    9     -0.36      0.00
   -2   15    9     -0.50      0.00
   -1   15    9     -2.00      0.00
    0   15    9      1.87      0.00
    1   15    9      0.56      0.00
   -6   16    9      0.42      0.00
   -5   16    9      0.98      0.00
   -4   16    9     -0.78      0.00
   -3   16    9     -0.25      0.00
   -2   16    9      0.67      0.00
   -1   16    9     -0.46      0.00
    7    0   10      0.87      0.00
    8    0   10     -0.28      0.00
    9    0   10     -0.48      0.00
    7    1   10      0.63      0.00
    8    1   10      0.69      0.00
    9    1   10      0.24      0.00
    7    2   10      0.29      0.00
    8    2   10     -0.75      0.00
    7    3   10      1.79      0.00
    8    3   10      0.73      0.00
    6    4   10     -1.49      0.00
    7    4   10      0.92      0.00
    8    4   10      0.07      0.00
  -14    5   10      0.74      0.00
    6    5   10     -1.52      0.00
    7    5   10      2.15      0.00
    8    5   10      0.91      0.00
  -14    6   10     -1.01      0.00
    6    6   10     -1.04      0.00
    7    6   10      0.31      0.00
    8    6   10      0.61      0.00
  -14    7   10      0.20      0.00
  -13    7   10     -0.80      0.00
    5    7   10      1.49      0.00
    6    7   10     -0.20      0.00
    7    7   10      0.59      0.00
  -14    8   10     -0.79      0.00
  -13    8   10      0.00      0.00
    4    8   10     -0.91      0.00
    5    8   10     -0.39      0.00
    6    8   10      0.64      0.00
    7    8   10      0.80      0.00
  -14    9   10     -0.29      0.00
  -13    9   10     -0.01      0.00
  -12    9   10     -0.52      0.00
    4    9   10      0.90      0.00
    5    9   10      1.75      0.00
    6    9   10     -2.25      0.00
  -14   10   10     -0.29      0.00
  -13   10   10     -1.22      0.00
  -12   10   10      0.13      0.00
  -11   10   10      0.34      0.00
    3   10   10      0.07      0.00
    4   10   10     -2.27      0.00
    5   10   10      1.87      0.00
    6   10   10      0.57      0.00
  -13   11   10      0.55      0.00
  -12   11   10     -1.48      0.00
  -11   11   10      0.41      0.00
  -10   11   10      1.05      0.00
    2   11   10      0.36      0.00
    3   11   10      0.57      0.00
    4   11   10     -0.54      0.00
    5   11   10      0.10      0.00
  -12   12   10     -0.63      0.00
  -11   12   10     -0.04      0.00
  -10   12   10      0.93      0.00
   -9   12   10      0.31      0.00
   -8   12   10     -1.85      0.00
    0   12   10     -1.29      0.00
    1   12   10     -0.39      0.00
    2   12   10      0.44      0.00
    3   12   10      0.38      0.00
    4   12   10      0.13      0.00
  -11   13   10     -0.52      0.00
  -10   13   10      1.01      0.00
   -9   13   10     -0.24      0.00
   -8   13   10      0.65      0.00
   -7   13   10     -0.57      0.00
   -6   13   10     -2.11      0.00
   -5   13   10     -0.06      0.00
   -4   13   10     -0.63      0.00
   -3   13   10     -2.21      0.00
   -2   13   10      1.14      0.00
   -1   13   10     -0.39      0.00
    0   13   10     -1.12      0.00
    1   13   10      0.55      0.00
    2   13   10      0.09      0.00
    3   13   10      0.50      0.00
  -10   14   10      0.94      0.00
   -9   14   10     -0.74      0.00
   -8   14   10     -1.03      0.00
   -7   14   10      1.24      0.00
   -6   14   10      0.61      0.00
   -5   14   10     -0.01      0.00
   -4   14   10      2.72      0.00
   -3   14   10      0.67      0.00
   -2   14   10      1.16      0.00
   -1   14   10      0.36      0.00
    0   14   10     -1.93      0.00
    1   14   10     -0.20      0.00
   -8   15   10     -0.16      0.00
   -7   15   10     -0.23      0.00
   -6   15   10     -1.07      0.00
   -5   15   10     -1.03      0.00
   -4   15   10      0.41      0.00
   -3   15   10     -0.04      0.00
   -2   15   10      0.44      0.00
   -1   15   10      0.21      0.00
    6    1   11     -0.51      0.00
    7    1   11     -0.41      0.00
    8    1   11     -0.15      0.00
    6    2   11      0.70      0.00
    7    2   11     -0.73      0.00
  -14    3   11     -0.66      0.00
    5    3   11     -0.21      0.00
    6    3   11      0.76      0.00
    7    3   11     -0.19      0.00
  -14    4   11     -1.51      0.00
    5    4   11      2.73      0.00
    6    4   11      0.46      0.00
    7    4   11     -1.81      0.00
  -14    5   11      0.53      0.00
    5    5   11      0.80      0.00
    6    5   11      1.98      0.00
    7    5   11     -0.66      0.00
  -14    6   11     -0.77      0.00
  -13    6   11     -0.15      0.00
    4    6   11      0.16      0.00
    5    6   11     -1.25      0.00
    6    6   11      0.64      0.00
    7    6   11     -0.85      0.00
  -14    7   11      0.43      0.00
  -13    7   11     -0.95      0.00
    4    7   11      1.14      0.00
    5    7   11      0.60      0.00
    6    7   11     -0.43      0.00
  -14    8   11     -0.18      0.00
  -13    8   11     -0.60      0.00
  -12    8   11      1.29      0.00
    3    8   11      1.13      0.00
    4    8   11     -1.26      0.00
    5    8   11     -0.64      0.00
    6    8   11      0.93      0.00
  -14    9   11      0.74      0.00
  -13    9   11      0.21      0.00
  -12    9   11     -0.88      0.00
  -11    9   11      0.37      0.00
    2    9   11     -0.30      0.00
    3    9   11      0.42      0.00
    4    9   11      1.67      0.00
    5    9   11     -0.69      0.00
  -13   10   11      0.09      0.00
  -12   10   11      1.03      0.00
  -11   10   11      0.31      0.00
  -10   10   11     -1.08      0.00
    1   10   11     -0.19      0.00
    2   10   11      0.32      0.00
    3   10   11      0.59      0.00
    4   10   11     -0.41      0.00
  -13   11   11     -0.44      0.00
  -12   11   11      0.45      0.00
  -11   11   11      0.24      0.00
  -10   11   11      0.48      0.00
   -9   11   11      0.23      0.00
   -8   11   11     -0.82      0.00
   -1   11   11      0.61      0.00
    0   11   11      0.34      0.00
    1   11   11     -0.50      0.00
    2   11   11     -0.94      0.00
    3   11   11      0.38      0.00
    4   11   11      1.00      0.00
  -12   12   11     -0.28      0.00
  -11   12   11     -0.42      0.00
  -10   12   11     -0.52      0.00
   -9   12   11      1.40      0.00
   -8   12   11     -0.10      0.00
   -7   12   11     -0.22      0.00
   -6   12   11      1.97      0.00
   -5   12   11     -1.22      0.00
   -4   12   11      2.56      0.00
   -3   12   11      1.19      0.00
   -2   12   11     -1.11      0.00
   -1   12   11     -0.27      0.00
    0   12   11      0.78      0.00
    1   12   11     -0.75      0.00
    2   12   11     -0.02      0.00
    3   12   11     -0.61      0.00
  -10   13   11     -0.94      0.00
   -9   13   11      0.76      0.00
   -8   13   11      0.37      0.00
   -7   13   11     -1.85      0.00
   -6   13   11      0.17      0.00
   -5   13   11     -0.77      0.00
   -4   13   11     -0.75      0.00
   -3   13   11     -0.88      0.00
   -2   13   11     -1.22      0.00
   -1   13   11     -0.18      0.00
    0   13   11      1.06      0.00
    1   13   11      0.01      0.00
   -9   14   11     -0.09      0.00
   -8   14   11      0.32      0.00
   -7   14   11     -0.15      0.00
   -6   14   11      1.32      0.00
   -5   14   11     -0.25      0.00
   -4   14   11     -0.07      0.00
   -3   14   11      1.07      0.00
   -2   14   11     -0.68      0.00
   -1   14   11      0.30      0.00
    0   14   11      0.62      0.00
   -5   15   11     -0.24      0.00
   -4   15   11     -0.97      0.00
  -14    0   12      0.56      0.00
    4    0   12     -4.16      0.00
    5    0   12     -0.34      0.00
    6    0   12      0.27      0.00
  -14    1   12      1.63      0.00
    4    1   12      0.44      0.00
    5    1   12     -2.52      0.00
    6    1   12     -0.29      0.00
  -14    2   12      1.11      0.00
    4    2   12     -0.46      0.00
    5    2   12      0.10      0.00
    6    2   12     -1.44      0.00
  -14    3   12      2.14      0.00
    4    3   12     -0.89      0.00
    5    3   12     -2.29      0.00
    6    3   12     -0.22      0.00
  -14    4   12      1.10      0.00
    4    4   12      0.95      0.00
    5    4   12     -0.97      0.00
    6    4   12     -1.07      0.00
  -14    5   12      0.97      0.00
  -13    5   12      0.17      0.00
    3    5   12     -0.06      0.00
    4    5   12     -1.09      0.00
    5    5   12     -0.32      0.00
    6    5   12     -0.16      0.00
  -14    6   12      0.12      0.00
  -13    6   12      0.68      0.00
    3    6   12     -0.04      0.00
    4    6   12     -0.53      0.00
    5    6   12     -0.72      0.00
  -14    7   12      0.49      0.00
  -13    7   12      0.52      0.00
  -12    7   12     -1.08      0.00
    2    7   12      0.95      0.00
    3    7   12     -1.42      0.00
    4    7   12      0.45      0.00
    5    7   12      0.75      0.00
  -14    8   12     -0.48      0.00
  -13    8   12      0.77      0.00
  -12    8   12      0.24      0.00
  -11    8   12      1.62      0.00
    1    8   12      0.51      0.00
    2    8   12      0.36      0.00
    3    8   12     -0.76      0.00
    4    8   12     -1.63      0.00
  -14    9   12      0.40      0.00
  -13    9   12      0.17      0.00
  -12    9   12     -1.82      0.00
  -11    9   12     -0.12      0.00
  -10    9   12      0.41      0.00
    0    9   12      0.01      0.00
    1    9   12      0.25      0.00
    2    9   12     -0.38      0.00
    3    9   12     -1.20      0.00
    4    9   12      0.66      0.00
  -13   10   12      1.04      0.00
  -12   10   12     -0.14      0.00
  -11   10   12     -0.11      0.00
  -10   10   12     -0.50      0.00
   -9   10   12     -0.48      0.00
   -1   10   12      0.35      0.00
    0   10   12      0.65      0.00
    1   10   12      0.86      0.00
    2   10   12      0.90      0.00
    3   10   12     -1.06      0.00
  -12   11   12      0.37      0.00
  -11   11   12     -0.16      0.00
  -10   11   12      0.83      0.00
   -9   11   12     -0.97      0.00
   -8   11   12      0.32      0.00
   -7   11   12     -1.82      0.00
   -6   11   12     -0.61      0.00
   -5   11   12      0.91      0.00
   -4   11   12      0.16      0.00
   -3   11   12     -0.36      0.00
   -2   11   12     -0.62      0.00
   -1   11   12      0.92      0.00
    0   11   12      0.23      0.00
    1   11   12      0.41      0.00
    2   11   12     -0.48      0.00
  -11   12   12      0.12      0.00
  -10   12   12      0.28      0.00
   -9   12   12     -0.38      0.00
   -8   12   12      1.42      0.00
   -7   12   12      0.90      0.00
   -6   12   12     -0.98      0.00
   -5   12   12     -0.87      0.00
   -4   12   12      0.05      0.00
   -3   12   12      2.32      0.00
   -2   12   12      0.40      0.00
   -1   12   12      0.12      0.00
    0   12   12      0.33      0.00
    1   12   12      0.57      0.00
   -9   13   12     -0.54      0.00
   -8   13   12     -0.59      0.00
   -7   13   12      0.99      0.00
   -6   13   12     -0.63      0.00
   -5   13   12      0.69      0.00
   -4   13   12     -1.16      0.00
   -3   13   12     -0.73      0.00
   -2   13   12      0.56      0.00
   -1   13   12     -0.06      0.00
    0   13   12      0.04      0.00
   -7   14   12      0.46      0.00
   -6   14   12      0.61      0.00
   -5   14   12     -0.21      0.00
   -4   14   12      0.33      0.00
   -3   14   12      0.97      0.00
  -14    1   13      0.73      0.00
    3    1   13     -2.60      0.00
    4    1   13      3.11      0.00
    5    1   13     -0.13      0.00
  -14    2   13     -1.01      0.00
    3    2   13     -3.67      0.00
    4    2   13      1.21      0.00
    5    2   13      1.77      0.00
  -14    3   13     -1.41      0.00
  -13    3   13     -0.79      0.00
    3    3   13     -0.86      0.00
    4    3   13     -0.82      0.00
    5    3   13      0.89      0.00
  -14    4   13     -1.06      0.00
  -13    4   13      0.91      0.00
    2    4   13      0.48      0.00
    3    4   13      0.07      0.00
    4    4   13      0.91      0.00
    5    4   13     -0.08      0.00
  -14    5   13     -1.29      0.00
  -13    5   13     -1.05      0.00
  -12    5   13      0.10      0.00
    2    5   13     -0.53      0.00
    3    5   13      0.86      0.00
    4    5   13      0.59      0.00
    5    5   13      0.41      0.00
  -14    6   13     -0.13      0.00
  -13    6   13     -0.10      0.00
  -12    6   13     -1.62      0.00
    1    6   13     -0.71      0.00
    2    6   13     -1.05      0.00
    3    6   13      1.01      0.00
    4    6   13      0.53      0.00
  -14    7   13     -0.04      0.00
  -13    7   13     -0.08      0.00
  -12    7   13     -0.89      0.00
  -11    7   13     -1.72      0.00
    0    7   13     -0.83      0.00
    1    7   13     -1.21      0.00
    2    7   13     -0.02      0.00
    3    7   13      0.75      0.00
    4    7   13      1.00      0.00
  -14    8   13     -0.59      0.00
  -13    8   13      0.09      0.00
  -12    8   13      1.40      0.00
  -11    8   13     -0.06      0.00
  -10    8   13      1.19      0.00
   -1    8   13      1.15      0.00
    0    8   13     -0.74      0.00
    1    8   13     -0.60      0.00
    2    8   13      0.20      0.00
    3    8   13      1.24      0.00
  -13    9   13     -1.35      0.00
  -12    9   13      0.19      0.00
  -11    9   13     -1.45      0.00
  -10    9   13      1.16      0.00
   -9    9   13      1.04      0.00
   -8    9   13      1.76      0.00
   -3    9   13      1.25      0.00
   -2    9   13     -1.25      0.00
   -1    9   13     -0.26      0.00
    0    9   13     -0.98      0.00
    1    9   13     -1.30      0.00
    2    9   13     -0.22      0.00
  -12   10   13      0.32      0.00
  -11   10   13     -0.30      0.00
  -10   10   13     -0.58      0.00
   -9   10   13     -0.28      0.00
   -8   10   13      1.52      0.00
   -7   10   13      0.43      0.00
   -6   10   13     -0.49      0.00
   -5   10   13     -1.68      0.00
   -4   10   13     -0.74      0.00
   -3   10   13      2.00      0.00
   -2   10   13      0.81      0.00
   -1   10   13     -1.66      0.00
    0   10   13     -0.30      0.00
    1   10   13     -0.45      0.00
    2   10   13      0.83      0.00
  -11   11   13     -0.73      0.00
  -10   11   13      0.09      0.00
   -9   11   13      0.03      0.00
   -8   11   13     -0.69      0.00
   -7   11   13      0.92      0.00
   -6   11   13      0.60      0.00
   -5   11   13      0.09      0.00
   -4   11   13     -1.54      0.00
   -3   11   13     -0.50      0.00
   -2   11   13      0.42      0.00
   -1   11   13     -0.68      0.00
    0   11   13     -0.97      0.00
    1   11   13     -0.99      0.00
  -10   12   13     -0.48      0.00
   -9   12   13      0.71      0.00
   -8   12   13      0.30      0.00
   -7   12   13     -0.44      0.00
   -6   12   13      0.83      0.00
   -5   12   13     -0.49      0.00
   -4   12   13     -0.70      0.00
   -3   12   13      0.94      0.00
   -2   12   13      0.06      0.00
   -1   12   13     -0.71      0.00
   -7   13   13     -0.90      0.00
   -6   13   13      0.11      0.00
   -5   13   13      1.86      0.00
   -4   13   13     -0.74      0.00
   -3   13   13     -1.26      0.00
  -14    0   14     -1.09      0.00
  -13    0   14      0.47      0.00
    1    0   14     -3.12      0.00
    2    0   14      4.35      0.00
    3    0   14     -0.24      0.00
    4    0   14     -1.70      0.00
  -14    1   14     -0.31      0.00
  -13    1   14     -0.87      0.00
    1    1   14     -0.84      0.00
    2    1   14      0.05      0.00
    3    1   14      1.38      0.00
    4    1   14     -1.61      0.00
  -14    2   14      0.07      0.00
  -13    2   14      0.69      0.00
  -12    2   14      0.38      0.00
    1    2   14     -1.40      0.00
    2    2   14      2.04      0.00
    3    2   14      1.49      0.00
    4    2   14     -0.91      0.00
  -14    3   14      0.20      0.00
  -13    3   14     -1.33      0.00
  -12    3   14      0.55      0.00
    1    3   14     -0.34      0.00
    2    3   14     -1.48      0.00
    3    3   14      1.51      0.00
    4    3   14     -0.94      0.00
  -14    4   14      1.29      0.00
  -13    4   14      1.30      0.00
  -12    4   14     -0.60      0.00
    0    4   14      1.40      0.00
    1    4   14      1.30      0.00
    2    4   14     -0.22      0.00
    3    4   14     -0.31      0.00
  -14    5   14     -0.13      0.00
  -13    5   14      0.14      0.00
  -12    5   14      1.88      0.00
  -11    5   14     -0.59      0.00
    0    5   14      0.49      0.00
    1    5   14      1.02      0.00
    2    5   14      0.13      0.00
    3    5   14     -0.95      0.00
  -14    6   14      0.46      0.00
  -13    6   14      0.40      0.00
  -12    6   14      0.65      0.00
  -11    6   14      0.14      0.00
  -10    6   14      0.42      0.00
   -1    6   14      1.09      0.00
    0    6   14      0.54      0.00
    1    6   14      1.63      0.00
    2    6   14     -0.18      0.00
    3    6   14     -1.09      0.00
  -14    7   14      0.13      0.00
  -13    7   14     -0.18      0.00
  -12    7   14      0.70      0.00
  -11    7   14     -0.91      0.00
  -10    7   14     -0.95      0.00
   -9    7   14     -0.44      0.00
   -2    7   14     -1.10      0.00
   -1    7   14     -1.02      0.00
    0    7   14      0.94      0.00
    1    7   14      0.89      0.00
    2    7   14      0.43      0.00
  -13    8   14      0.42      0.00
  -12    8   14      0.89      0.00
  -11    8   14      0.77      0.00
  -10    8   14     -0.45      0.00
   -9    8   14     -0.97      0.00
   -8    8   14     -0.32      0.00
   -7    8   14     -1.12      0.00
   -6    8   14      0.14      0.00
   -5    8   14      1.25      0.00
   -4    8   14     -0.35      0.00
   -3    8   14     -0.63      0.00
   -2    8   14      1.03      0.00
   -1    8   14     -0.32      0.00
    0    8   14      1.27      0.00
    1    8   14      0.71      0.00
    2    8   14     -0.14      0.00
  -12    9   14     -0.10      0.00
  -11    9   14      0.42      0.00
  -10    9   14     -0.08      0.00
   -9    9   14      0.58      0.00
   -8    9   14     -0.43      0.00
   -7    9   14      1.15      0.00
   -6    9   14     -0.28      0.00
   -5    9   14      0.90      0.00
   -4    9   14     -0.64      0.00
   -3    9   14     -1.21      0.00
   -2    9   14     -0.39      0.00
   -1    9   14      0.67      0.00
    0    9   14      0.90      0.00
    1    9   14      0.12      0.00
  -11   10   14      1.15      0.00
  -10   10   14     -0.80      0.00
   -9   10   14     -0.32      0.00
   -8   10   14     -0.83      0.00
   -7   10   14      0.09      0.00
   -6   10   14      0.01      0.00
   -5   10   14      1.52      0.00
   -4   10   14      0.24      0.00
   -3   10   14     -0.53      0.00
   -2   10   14      0.21      0.00
   -1   10   14      0.06      0.00
    0   10   14      1.44      0.00
  -10   11   14      0.26      0.00
   -9   11   14     -0.35      0.00
   -8   11   14     -0.83      0.00
   -7   11   14      0.21      0.00
   -6   11   14     -0.43      0.00
   -5   11   14      1.56      0.00
   -4   11   14      0.65      0.00
   -3   11   14     -1.75      0.00
   -2   11   14      0.30      0.00
   -8   12   14     -0.20      0.00
   -7   12   14      0.36      0.00
   -6   12   14     -0.95      0.00
   -5   12   14     -0.68      0.00
   -4   12   14      1.24      0.00
  -14    1   15      0.17      0.00
  -13    1   15      0.00      0.00
  -12    1   15     -0.25      0.00
  -11    1   15     -1.28      0.00
   -1    1   15     -0.62      0.00
    0    1   15      0.20      0.00
    1    1   15      1.19      0.00
    2    1   15     -2.10      0.00
    3    1   15      0.60      0.00
  -14    2   15      0.25      0.00
  -13    2   15      0.60      0.00
  -12    2   15      0.46      0.00
  -11    2   15     -0.29      0.00
   -1    2   15     -0.70      0.00
    0    2   15     -1.19      0.00
    1    2   15      0.55      0.00
    2    2   15     -0.01      0.00
  -14    3   15     -0.49      0.00
  -13    3   15     -0.95      0.00
  -12    3   15      0.14      0.00
  -11    3   15      0.38      0.00
  -10    3   15      0.18      0.00
   -2    3   15      0.32      0.00
   -1    3   15     -0.35      0.00
    0    3   15     -0.71      0.00
    1    3   15     -0.28      0.00
    2    3   15     -0.74      0.00
  -14    4   15      0.33      0.00
  -13    4   15      0.05      0.00
  -12    4   15     -1.17      0.00
  -11    4   15     -0.35      0.00
  -10    4   15     -0.56      0.00
   -2    4   15      0.14      0.00
   -1    4   15      1.08      0.00
    0    4   15     -0.76      0.00
    1    4   15     -0.16      0.00
    2    4   15      0.28      0.00
  -14    5   15     -0.29      0.00
  -13    5   15     -0.48      0.00
  -12    5   15      0.46      0.00
  -11    5   15     -0.14      0.00
  -10    5   15      0.06      0.00
   -9    5   15     -1.83      0.00
   -4    5   15     -0.76      0.00
   -3    5   15      0.00      0.00
   -2    5   15      0.53      0.00
   -1    5   15     -0.54      0.00
    0    5   15     -0.49      0.00
    1    5   15     -0.80      0.00
    2    5   15      0.37      0.00
  -13    6   15     -0.46      0.00
  -12    6   15     -0.33      0.00
  -11    6   15      0.34      0.00
  -10    6   15      0.70      0.00
   -9    6   15      0.74      0.00
   -8    6   15      0.46      0.00
   -7    6   15      0.00      0.00
   -6    6   15      0.36      0.00
   -5    6   15      1.27      0.00
   -4    6   15      0.00      0.00
   -3    6   15     -1.29      0.00
   -2    6   15      1.28      0.00
   -1    6   15      0.59      0.00
    0    6   15     -0.69      0.00
    1    6   15     -0.86      0.00
  -13    7   15     -0.51      0.00
  -12    7   15     -0.71      0.00
  -11    7   15      0.24      0.00
  -10    7   15     -0.24      0.00
   -9    7   15      0.13      0.00
   -8    7   15     -0.36      0.00
   -7    7   15      0.87      0.00
   -6    7   15     -0.01      0.00
   -5    7   15     -0.36      0.00
   -4    7   15      0.01      0.00
   -3    7   15     -0.06      0.00
   -2    7   15      0.01      0.00
   -1    7   15     -0.08      0.00
    0    7   15     -0.50      0.00
  -12    8   15     -0.58      0.00
  -11    8   15      0.10      0.00
  -10    8   15     -0.12      0.00
   -9    8   15     -0.33      0.00
   -8    8   15     -0.21      0.00
   -7    8   15     -0.12      0.00
   -6    8   15      0.10      0.00
   -5    8   15      0.24      0.00
   -4    8   15      0.35      0.00
   -3    8   15      0.10      0.00
   -2    8   15      1.14      0.00
   -1    8   15     -0.67      0.00
    0    8   15     -0.36      0.00
  -11    9   15     -0.28      0.00
  -10    9   15      0.47      0.00
   -9    9   15      0.47      0.00
   -8    9   15     -0.06      0.00
   -7    9   15      0.34      0.00
   -6    9   15     -0.22      0.00
   -5    9   15     -1.21      0.00
   -4    9   15      0.06      0.00
   -3    9   15     -0.11      0.00
   -2    9   15      0.29      0.00
   -1    9   15      0.07      0.00
  -10   10   15     -0.26      0.00
   -9   10   15      0.33      0.00
   -8   10   15      0.06      0.00
   -7   10   15     -0.53      0.00
   -6   10   15      0.09      0.00
   -5   10   15     -0.63      0.00
   -4   10   15      0.12      0.00
   -3   10   15      0.92      0.00
   -6   11   15      0.05      0.00
    0    0    0      0.00      0.00
# SQUEEZE RESULTS (Version =  30715)
# Note: Data are Listed for all Voids in the P1 Unit Cell
# i.e. Centre of Gravity, Solvent Accessible Volume,
# Recovered number of Electrons in the Void and
# Details about the Squeezed Material
loop_
  _platon_squeeze_void_nr
  _platon_squeeze_void_average_x
  _platon_squeeze_void_average_y
  _platon_squeeze_void_average_z
  _platon_squeeze_void_volume
  _platon_squeeze_void_count_electrons
  _platon_squeeze_void_content
   1 -0.002  0.500  0.000       305        96 ' '
   2  0.007  0.000  0.500       305        96 ' '
# Missing Reflections Below sin(th)/lambda = 0.25
loop_
  _platon_missing_refln_index_h
  _platon_missing_refln_index_k
  _platon_missing_refln_index_l
  _platon_missing_refln_theta
    1    0    0     1.702
    1    3    3     7.169
    1    4    3     8.105
    1    0    4     7.310
    1    2    4     7.849
_platon_squeeze_void_probe_radius                  1.20
_platon_squeeze_details
)
TITL mo_gs37_0ma_a.res in P2(1)/c
CELL   13.3185   14.3273   14.2071     90.00    116.04     90.00
SPGR P21/c
# Solvent Accessible Volume =     627.4
# Electrons Found in S.A.V. =     190.8
# Note: Atoms in Void as Cxxx and Qxxx all others
C101 0.747 0.075 0.452 !       3.08 eA-3
Q102 0.457 0.889 0.281 !       2.62 eA-3
C103 0.194 0.620 0.091 !       2.43 eA-3
C104 0.113 0.011 0.449 !       2.15 eA-3
C105 0.216 0.990 0.465 !       2.03 eA-3
C106 0.636 0.109 0.400 !       1.97 eA-3
Q107 0.437 0.371 0.175 !       1.96 eA-3
Q108 0.402 0.972 0.183 !       1.92 eA-3
Q109 0.390 0.313 0.076 !       1.73 eA-3
C110 0.768 0.109 0.338 !       1.53 eA-3
C111 0.094 0.592 0.035 !       1.50 eA-3
Q112 0.229 0.455 0.116 !       1.48 eA-3
Q113 0.955 0.386 0.289 !       1.33 eA-3
Q114 0.424 0.748 0.360 !       1.32 eA-3
Q115 0.409 0.465 0.294 !       1.24 eA-3
Q116 0.952 0.323 0.221 !       1.21 eA-3
C117 0.164 0.530 0.121 !       1.21 eA-3
Q118 0.611 0.333 0.197 !       1.19 eA-3
Q119 0.440 0.239 0.087 !       1.15 eA-3
Q120 0.690 0.888 0.249 !       1.15 eA-3
Q121 0.823 0.552 0.348 !       1.12 eA-3
Q122 0.029 0.676 0.337 !       1.09 eA-3
Q123 0.481 0.265 0.048 !       1.08 eA-3
C124 0.422 0.624 0.149 !       1.07 eA-3
Q125 0.348 0.544 0.162 !       1.06 eA-3
Q126 0.605 0.031 0.266 !       1.05 eA-3
Q127 0.687 0.472 0.343 !       1.03 eA-3
C128 0.660 0.061 0.465 !       0.99 eA-3
Q129 0.756 0.892 0.325 !       0.96 eA-3
Q130 0.166 0.918 0.011 !       0.95 eA-3
C131 0.907 0.022 0.465 !       0.94 eA-3
C132 0.093 0.978 0.535 !       0.94 eA-3
Q133 0.260 0.813 0.030 !       0.94 eA-3
Q134 0.476 0.016 0.190 !       0.94 eA-3
Q135 0.356 0.449 0.185 !       0.93 eA-3
Q136 1.000 0.500 0.500 !       0.93 eA-3
Q137 0.671 0.107 0.246 !       0.93 eA-3
Q138 0.970 0.225 0.319 !       0.92 eA-3
Q139 0.836 0.217 0.067 !       0.89 eA-3
Q140 0.809 0.924 0.287 !       0.87 eA-3
Q141 0.960 0.249 0.231 !       0.85 eA-3
Q142 0.583 0.331 0.067 !       0.85 eA-3
Q143 0.618 0.193 0.405 !       0.84 eA-3
Q144 0.933 0.848 0.246 !       0.83 eA-3
Q145 0.828 0.540 0.798 !       0.81 eA-3
Q146 0.374 0.894 0.354 !       0.80 eA-3
C147 0.637 0.989 0.471 !       0.77 eA-3
Q148 0.230 0.678 0.422 !       0.77 eA-3
Q149 0.263 0.436 0.067 !       0.74 eA-3
Q150 0.021 0.798 0.105 !       0.72 eA-3
Q151 0.496 0.920 0.205 !       0.70 eA-3
Q152 0.464 0.112 0.285 !       0.70 eA-3
Q153 0.054 0.158 0.170 !       0.70 eA-3
Q154 0.608 0.975 0.425 !       0.68 eA-3
Q155 0.500 0.320 0.131 !       0.68 eA-3
C156 0.416 0.529 0.005 !       0.67 eA-3
Q157 0.829 0.655 0.249 !       0.65 eA-3
Q158 0.065 0.579 0.473 !       0.65 eA-3
C159 0.326 0.662 0.229 !       0.65 eA-3
Q160 0.220 0.485 0.281 !       0.63 eA-3
Q161 0.691 0.376 0.485 !       0.62 eA-3
Q162 0.917 0.818 0.061 !       0.62 eA-3
Q163 0.066 0.408 0.307 !       0.62 eA-3
Q164 0.455 0.455 0.036 !       0.61 eA-3
Q165 0.159 0.143 0.213 !       0.61 eA-3
C166 0.797 0.414 0.115 !       0.59 eA-3
Q167 0.380 0.901 0.211 !       0.59 eA-3
Q168 0.702 0.326 0.007 !       0.58 eA-3
Q169 0.065 0.397 0.387 !       0.58 eA-3
C170 0.444 0.521 0.058 !       0.57 eA-3
Q171 0.637 0.911 0.438 !       0.57 eA-3
C172 0.035 0.094 0.497 !       0.56 eA-3
Q173 0.138 0.644 0.414 !       0.56 eA-3
Q174 0.203 0.134 0.496 !       0.55 eA-3
Q175 0.660 0.372 0.074 !       0.55 eA-3
Q176 0.695 0.236 0.422 !       0.54 eA-3
C177 0.598 0.079 0.501 !       0.54 eA-3
Q178 0.127 0.725 0.215 !       0.53 eA-3
Q179 0.310 0.066 0.289 !       0.53 eA-3
Q180 0.735 0.421 0.436 !       0.53 eA-3
Q181 0.601 0.656 0.211 !       0.53 eA-3
Q182 0.140 0.850 0.454 !       0.52 eA-3
C183 0.397 0.662 0.232 !       0.51 eA-3
Q184 0.439 0.934 0.440 !       0.50 eA-3
)
;
_shelx_fab_checksum              14404
loop_
_space_group_symop_operation_xyz
'x, y, z'
'-x, y+1/2, -z+1/2'
'-x, -y, -z'
'x, -y-1/2, z-1/2'
loop_
_atom_site_label
_atom_site_type_symbol
_atom_site_fract_x
_atom_site_fract_y
_atom_site_fract_z
_atom_site_U_iso_or_equiv
_atom_site_adp_type
_atom_site_occupancy
_atom_site_site_symmetry_order
_atom_site_calc_flag
_atom_site_refinement_flags_posn
_atom_site_refinement_flags_adp
_atom_site_refinement_flags_occupancy
Co1 Co 0.0000 0.5000 0.5000 0.0239(6) Uani 1 2 d S . P
N1 N 0.1255(6) 0.4404(4) 0.6327(5) 0.0392(18) Uani 1 1 d . . .
N2 N 0.1143(6) 0.5861(4) 0.4824(5) 0.0387(17) Uani 1 1 d . . .
N3 N 0.0174(6) 0.1146(5) 0.8905(6) 0.0440(19) Uani 1 1 d . . .
C1 C 0.1139(8) 0.3706(5) 0.6922(7) 0.040(2) Uani 1 1 d . . .
C2 C 0.2225(8) 0.3523(7) 0.7791(8) 0.052(3) Uani 1 1 d . . .
H2 H 0.2390 0.3079 0.8336 0.063 Uiso 1 1 calc R U .
C3 C 0.2286(8) 0.5886(6) 0.5493(7) 0.048(2) Uani 1 1 d . . .
C4 C 0.0126(8) 0.3273(5) 0.6770(7) 0.041(2) Uani 1 1 d . . .
C5 C 0.2932(8) 0.4096(7) 0.7671(8) 0.057(3) Uani 1 1 d . . .
H5 H 0.3711 0.4123 0.8119 0.068 Uiso 1 1 calc R U .
C6 C 0.2377(8) 0.4656(7) 0.6794(7) 0.041(2) Uani 1 1 d . . .
C7 C 0.0942(8) 0.6511(6) 0.4061(7) 0.047(2) Uani 1 1 d . . .
C8 C 0.0310(9) 0.2038(6) 0.9170(8) 0.051(3) Uani 1 1 d . . .
H8 H 0.0413 0.2203 0.9854 0.062 Uiso 1 1 calc R U .
C9 C 0.0145(8) 0.2551(5) 0.7502(6) 0.045(2) Uani 1 1 d . . .
C10 C 0.1975(10) 0.6970(8) 0.4252(9) 0.074(3) Uani 1 1 d . . .
H10 H 0.2068 0.7454 0.3840 0.089 Uiso 1 1 calc R U .
C11 C 0.2768(9) 0.6601(8) 0.5101(9) 0.063(3) Uani 1 1 d . . .
H11 H 0.3533 0.6776 0.5406 0.076 Uiso 1 1 calc R U .
C12 C 0.0309(9) 0.2751(6) 0.8501(8) 0.060(3) Uani 1 1 d . . .
H12 H 0.0423 0.3378 0.8741 0.072 Uiso 1 1 calc R U .
C13 C 0.2791(8) 0.5362(7) 0.6380(8) 0.051(2) Uani 1 1 d . . .
C14 C 0.0112(13) 0.0945(7) 0.7962(9) 0.089(4) Uani 1 1 d . . .
H14 H 0.0072 0.0308 0.7762 0.107 Uiso 1 1 calc R U .
C15 C 0.0101(14) 0.1614(7) 0.7271(10) 0.101(5) Uani 1 1 d . . .
H15 H 0.0062 0.1427 0.6615 0.121 Uiso 1 1 calc R U .
C16 C 0.4007(14) 0.5717(11) 0.7155(13) 0.111(5) Uiso 1 1 d . . .
C17 C 0.492(2) 0.7436(19) 0.944(2) 0.189(9) Uiso 1 1 d . . .
H17 H 0.4272 0.7454 0.9562 0.227 Uiso 1 1 calc R U .
C18 C 0.5890(16) 0.6716(13) 0.8489(15) 0.120(5) Uiso 1 1 d . . .
C19 C 0.3984(17) 0.6423(13) 0.8029(15) 0.130(6) Uiso 1 1 d . . .
H19 H 0.3327 0.6520 0.8122 0.156 Uiso 1 1 calc R U .
C20 C 0.6724(18) 0.7328(16) 0.9007(18) 0.156(7) Uiso 1 1 d . . .
H20 H 0.7305 0.7351 0.8791 0.188 Uiso 1 1 calc R U .
C21 C 0.478(2) 0.5009(13) 0.630(2) 0.142(8) Uiso 1 1 d . . .
H21 H 0.4096 0.4693 0.5916 0.171 Uiso 1 1 calc R U .
C22 C 0.596(2) 0.6095(15) 0.7714(18) 0.150(7) Uiso 1 1 d . . .
C23 C 0.486(2) 0.5627(18) 0.698(2) 0.170(8) Uiso 1 1 d . . .
C24 C 0.6838(18) 0.7919(15) 0.9804(17) 0.146(7) Uiso 1 1 d . . .
H24 H 0.7497 0.8276 1.0177 0.175 Uiso 1 1 calc R U .
C25 C 0.499(2) 0.6887(18) 0.865(2) 0.185(9) Uiso 1 1 d . . .
C26 C 0.591(2) 0.7964(17) 1.003(2) 0.182(9) Uiso 1 1 d . . .
H26 H 0.5944 0.8350 1.0592 0.219 Uiso 1 1 calc R U .
C27 C 0.685(3) 0.527(2) 0.683(3) 0.231(14) Uiso 1 1 d . . .
H27 H 0.7497 0.5167 0.6718 0.277 Uiso 1 1 calc R U .
C28 C 0.704(4) 0.589(3) 0.769(4) 0.34(2) Uiso 1 1 d . . .
H28 H 0.7740 0.6138 0.8167 0.403 Uiso 1 1 calc R U .
C29 C 0.587(3) 0.476(2) 0.609(3) 0.226(13) Uiso 1 1 d . . .
H29 H 0.5867 0.4351 0.5566 0.271 Uiso 1 1 calc R U .
loop_
_atom_site_aniso_label
_atom_site_aniso_U_11
_atom_site_aniso_U_22
_atom_site_aniso_U_33
_atom_site_aniso_U_23
_atom_site_aniso_U_13
_atom_site_aniso_U_12
Co1 0.0401(10) 0.0153(8) 0.0191(9) 0.0017(6) 0.0157(7) -0.0019(6)
N1 0.062(5) 0.032(4) 0.030(4) 0.001(3) 0.026(4) 0.000(3)
N2 0.056(5) 0.025(4) 0.037(4) 0.003(3) 0.023(4) 0.002(3)
N3 0.067(5) 0.032(4) 0.034(4) 0.002(3) 0.023(4) 0.000(4)
C1 0.057(6) 0.026(4) 0.043(5) -0.005(4) 0.027(5) 0.000(4)
C2 0.063(7) 0.052(6) 0.045(6) 0.012(5) 0.027(5) 0.022(5)
C3 0.058(6) 0.050(6) 0.032(5) -0.004(4) 0.017(5) -0.006(5)
C4 0.067(6) 0.025(4) 0.032(5) -0.005(4) 0.023(5) -0.005(4)
C5 0.041(6) 0.073(7) 0.051(6) 0.016(6) 0.015(5) 0.007(5)
C6 0.045(6) 0.048(5) 0.030(5) -0.004(4) 0.015(4) -0.001(4)
C7 0.073(7) 0.029(5) 0.047(6) -0.003(4) 0.034(5) -0.018(5)
C8 0.092(8) 0.032(5) 0.042(6) -0.010(4) 0.039(5) -0.013(5)
C9 0.068(7) 0.033(5) 0.035(5) 0.000(4) 0.023(5) 0.001(4)
C10 0.101(9) 0.057(7) 0.060(8) 0.009(6) 0.031(7) -0.037(7)
C11 0.049(6) 0.076(7) 0.053(7) 0.008(6) 0.013(5) -0.024(5)
C12 0.116(9) 0.033(5) 0.054(7) 0.003(5) 0.059(7) -0.002(5)
C13 0.050(6) 0.060(6) 0.048(6) 0.003(5) 0.027(5) -0.008(5)
C14 0.200(14) 0.029(5) 0.071(8) -0.003(5) 0.090(9) -0.010(7)
C15 0.232(17) 0.040(6) 0.065(8) -0.014(6) 0.097(10) -0.026(8)
loop_
_atom_type_symbol
_atom_type_description
_atom_type_scat_dispersion_real
_atom_type_scat_dispersion_imag
_atom_type_scat_source
C C 0.0033 0.0016 'International Tables Vol C Tables 4.2.6.8 and 6.1.1.4'
H H 0.0000 0.0000 'International Tables Vol C Tables 4.2.6.8 and 6.1.1.4'
N N 0.0061 0.0033 'International Tables Vol C Tables 4.2.6.8 and 6.1.1.4'
Co Co 0.3494 0.9721 'International Tables Vol C Tables 4.2.6.8 and 6.1.1.4'
loop_
_geom_angle_atom_site_label_1
_geom_angle_atom_site_label_2
_geom_angle_atom_site_label_3
_geom_angle
_geom_angle_site_symmetry_1
_geom_angle_site_symmetry_3
N2 Co1 N2 180.0(4) . 3_566
N2 Co1 N1 90.8(3) . .
N2 Co1 N1 89.2(3) 3_566 .
N2 Co1 N1 89.2(3) . 3_566
N2 Co1 N1 90.8(3) 3_566 3_566
N1 Co1 N1 180.0 . 3_566
N2 Co1 N3 92.6(2) . 4_565
N2 Co1 N3 87.4(2) 3_566 4_565
N1 Co1 N3 92.3(2) . 4_565
N1 Co1 N3 87.7(2) 3_566 4_565
N2 Co1 N3 87.4(2) . 2_556
N2 Co1 N3 92.6(2) 3_566 2_556
N1 Co1 N3 87.7(2) . 2_556
N1 Co1 N3 92.3(2) 3_566 2_556
N3 Co1 N3 180.0 4_565 2_556
C1 N1 C6 106.6(7) . .
C1 N1 Co1 126.9(6) . .
C6 N1 Co1 126.4(6) . .
C7 N2 C3 107.4(7) . .
C7 N2 Co1 127.5(6) . .
C3 N2 Co1 125.2(5) . .
C8 N3 C14 115.7(8) . .
C8 N3 Co1 122.0(6) . 2_546
C14 N3 Co1 122.2(6) . 2_546
N1 C1 C4 126.0(8) . .
N1 C1 C2 108.5(8) . .
C4 C1 C2 125.3(8) . .
C5 C2 C1 106.2(8) . .
C5 C2 H2 126.9 . .
C1 C2 H2 126.9 . .
C13 C3 N2 124.2(8) . .
C13 C3 C11 128.7(9) . .
N2 C3 C11 106.9(8) . .
C1 C4 C7 124.7(8) . 3_566
C1 C4 C9 119.0(8) . .
C7 C4 C9 116.3(8) 3_566 .
C2 C5 C6 110.3(9) . .
C2 C5 H5 124.9 . .
C6 C5 H5 124.9 . .
N1 C6 C5 108.3(8) . .
N1 C6 C13 121.8(8) . .
C5 C6 C13 129.9(9) . .
N2 C7 C4 125.6(8) . 3_566
N2 C7 C10 108.9(9) . .
C4 C7 C10 125.4(9) 3_566 .
N3 C8 C12 123.7(8) . .
N3 C8 H8 118.2 . .
C12 C8 H8 118.1 . .
C12 C9 C15 114.9(9) . .
C12 C9 C4 122.4(7) . .
C15 C9 C4 122.5(8) . .
C11 C10 C7 107.8(9) . .
C11 C10 H10 126.1 . .
C7 C10 H10 126.1 . .
C10 C11 C3 109.0(9) . .
C10 C11 H11 125.5 . .
C3 C11 H11 125.5 . .
C9 C12 C8 120.4(8) . .
C9 C12 H12 119.8 . .
C8 C12 H12 119.8 . .
C3 C13 C6 131.4(9) . .
C3 C13 C16 113.8(9) . .
C6 C13 C16 114.2(9) . .
N3 C14 C15 123.0(9) . .
N3 C14 H14 118.5 . .
C15 C14 H14 118.5 . .
C9 C15 C14 121.8(10) . .
C9 C15 H15 119.1 . .
C14 C15 H15 119.1 . .
C23 C16 C19 122(2) . .
C23 C16 C13 123.9(19) . .
C19 C16 C13 112.1(13) . .
C25 C17 C26 113(3) . .
C25 C17 H17 123.4 . .
C26 C17 H17 123.3 . .
C25 C18 C20 112(2) . .
C25 C18 C22 127(2) . .
C20 C18 C22 120(2) . .
C25 C19 C16 116.3(19) . .
C25 C19 H19 121.9 . .
C16 C19 H19 121.9 . .
C18 C20 C24 128(2) . .
C18 C20 H20 115.9 . .
C24 C20 H20 115.9 . .
C23 C21 C29 120(3) . .
C23 C21 H21 120.1 . .
C29 C21 H21 120.0 . .
C28 C22 C18 122(3) . .
C28 C22 C23 123(3) . .
C18 C22 C23 115(2) . .
C16 C23 C21 116(3) . .
C16 C23 C22 120(2) . .
C21 C23 C22 123(3) . .
C20 C24 C26 115(2) . .
C20 C24 H24 122.3 . .
C26 C24 H24 122.2 . .
C18 C25 C19 119(3) . .
C18 C25 C17 128(3) . .
C19 C25 C17 112(3) . .
C24 C26 C17 121(3) . .
C24 C26 H26 119.6 . .
C17 C26 H26 119.6 . .
C29 C27 C28 133(4) . .
C29 C27 H27 113.6 . .
C28 C27 H27 113.6 . .
C22 C28 C27 110(4) . .
C22 C28 H28 125.3 . .
C27 C28 H28 125.2 . .
C27 C29 C21 110(3) . .
C27 C29 H29 124.8 . .
C21 C29 H29 124.8 . .
loop_
_geom_bond_atom_site_label_1
_geom_bond_atom_site_label_2
_geom_bond_distance
_geom_bond_site_symmetry_2
Co1 N2 2.058(7) .
Co1 N2 2.058(7) 3_566
Co1 N1 2.077(7) .
Co1 N1 2.077(7) 3_566
Co1 N3 2.342(7) 4_565
Co1 N3 2.342(7) 2_556
N1 C1 1.361(10) .
N1 C6 1.391(11) .
N2 C7 1.363(11) .
N2 C3 1.397(11) .
N3 C8 1.323(10) .
N3 C14 1.338(12) .
N3 Co1 2.342(7) 2_546
C1 C4 1.413(13) .
C1 C2 1.454(13) .
C2 C5 1.316(13) .
C2 H2 0.9500 .
C3 C13 1.364(13) .
C3 C11 1.444(13) .
C4 C7 1.428(13) 3_566
C4 C9 1.459(11) .
C5 C6 1.391(13) .
C5 H5 0.9500 .
C6 C13 1.400(14) .
C7 C4 1.428(13) 3_566
C7 C10 1.439(14) .
C8 C12 1.394(12) .
C8 H8 0.9500 .
C9 C12 1.369(12) .
C9 C15 1.377(12) .
C10 C11 1.315(15) .
C10 H10 0.9500 .
C11 H11 0.9500 .
C12 H12 0.9500 .
C13 C16 1.590(18) .
C14 C15 1.367(14) .
C14 H14 0.9500 .
C15 H15 0.9500 .
C16 C23 1.27(2) .
C16 C19 1.61(2) .
C17 C25 1.41(3) .
C17 C26 1.43(3) .
C17 H17 0.9500 .
C18 C25 1.33(3) .
C18 C20 1.35(2) .
C18 C22 1.45(2) .
C19 C25 1.41(3) .
C19 H19 0.9500 .
C20 C24 1.37(3) .
C20 H20 0.9500 .
C21 C23 1.28(3) .
C21 C29 1.64(4) .
C21 H21 0.9500 .
C22 C28 1.47(5) .
C22 C23 1.53(3) .
C24 C26 1.41(3) .
C24 H24 0.9500 .
C26 H26 0.9500 .
C27 C29 1.45(4) .
C27 C28 1.45(5) .
C27 H27 0.9500 .
C28 H28 0.9500 .
C29 H29 0.9500 .
loop_
_platon_squeeze_void_nr
_platon_squeeze_void_average_x
_platon_squeeze_void_average_y
_platon_squeeze_void_average_z
_platon_squeeze_void_volume
_platon_squeeze_void_count_electrons
_platon_squeeze_void_content
1 -0.002 0.500 0.000 305 96 'disordered DMF '
2 0.007 0.000 0.500 305 96 'disordered DMF '
