#------------------------------------------------------------------------------
#$Date: 2017-10-31 05:27:58 +0200 (Tue, 31 Oct 2017) $
#$Revision: 202440 $
#$URL: file:///home/coder/svn-repositories/cod/cif/7/22/94/7229432.cif $
#------------------------------------------------------------------------------
#
# This file is available in the Crystallography Open Database (COD),
# http://www.crystallography.net/
#
# All data on this site have been placed in the public domain by the
# contributors.
#
data_7229432
loop_
_publ_author_name
'Goswami, Soumyabrata'
'Tripuramallu, Bharat Kumar'
'Goldberg, Israel'
_publ_section_title
;
 New meso-substituted trans-A2B2 porphyrins: Synthesis and structure of
 their metal-mediated supramolecular assemblies&#x2020;
;
_journal_name_full               CrystEngComm
_journal_paper_doi               10.1039/C7CE01642E
_journal_year                    2017
_chemical_formula_moiety         'C62 H34 N6 Zn'
_chemical_formula_sum            'C62 H34 N6 Zn'
_chemical_formula_weight         928.32
_chemical_properties_physical    Air-sensitive,Moisture-sensitive
_space_group_crystal_system      monoclinic
_space_group_IT_number           14
_space_group_name_Hall           '-P 2yn'
_space_group_name_H-M_alt        'P 1 21/n 1'
_symmetry_space_group_name_Hall  '-P 2yn'
_symmetry_space_group_name_H-M   'P 1 21/n 1'
_atom_sites_solution_hydrogens   geom
_atom_sites_solution_primary     direct
_atom_sites_solution_secondary   difmap
_audit_creation_method           SHELXL-2014/7
_audit_update_record
;
2017-09-11 deposited with the CCDC.
2017-10-30 downloaded from the CCDC.
;
_cell_angle_alpha                90
_cell_angle_beta                 103.288(4)
_cell_angle_gamma                90
_cell_formula_units_Z            4
_cell_length_a                   16.8049(16)
_cell_length_b                   13.6450(11)
_cell_length_c                   21.4125(17)
_cell_measurement_reflns_used    4344
_cell_measurement_temperature    110(2)
_cell_measurement_theta_max      23.3
_cell_measurement_theta_min      1.78
_cell_volume                     4778.5(7)
_computing_cell_refinement       'Saint, Bruker-AXS'
_computing_data_collection       'Apex2, Bruker-AXS'
_computing_data_reduction        'Saint, Bruker-AXS'
_computing_structure_refinement  'SHELXL-2014/7 (Sheldrick, 2015)'
_computing_structure_solution    'SHELXT-2014 (Sheldrick, 2015)'
_diffrn_ambient_temperature      110(2)
_diffrn_detector_area_resol_mean 1.75
_diffrn_measured_fraction_theta_full 0.995
_diffrn_measured_fraction_theta_max 0.995
_diffrn_measurement_device_type  'ApexDuo, Bruker-AXS'
_diffrn_measurement_method       '1 deg. \f and \w scans'
_diffrn_radiation_type           MoK\a
_diffrn_radiation_wavelength     0.71073
_diffrn_reflns_av_R_equivalents  0.0995
_diffrn_reflns_av_unetI/netI     0.1215
_diffrn_reflns_Laue_measured_fraction_full 0.995
_diffrn_reflns_Laue_measured_fraction_max 0.995
_diffrn_reflns_limit_h_max       18
_diffrn_reflns_limit_h_min       -17
_diffrn_reflns_limit_k_max       14
_diffrn_reflns_limit_k_min       -15
_diffrn_reflns_limit_l_max       23
_diffrn_reflns_limit_l_min       -22
_diffrn_reflns_number            23117
_diffrn_reflns_point_group_measured_fraction_full 0.995
_diffrn_reflns_point_group_measured_fraction_max 0.995
_diffrn_reflns_theta_full        23.314
_diffrn_reflns_theta_max         23.314
_diffrn_reflns_theta_min         1.784
_diffrn_source                   'ImuS micro-focus'
_exptl_absorpt_coefficient_mu    0.562
_exptl_absorpt_correction_T_max  0.956
_exptl_absorpt_correction_T_min  0.925
_exptl_absorpt_correction_type   multi-scan
_exptl_absorpt_process_details   'Sadabs, Bruker-AXS'
_exptl_crystal_colour            red
_exptl_crystal_density_diffrn    1.290
_exptl_crystal_description       plate
_exptl_crystal_F_000             1912
_exptl_crystal_size_max          0.140
_exptl_crystal_size_mid          0.100
_exptl_crystal_size_min          0.080
_refine_diff_density_max         0.849
_refine_diff_density_min         -0.732
_refine_diff_density_rms         0.078
_refine_ls_extinction_method     none
_refine_ls_goodness_of_fit_ref   1.055
_refine_ls_hydrogen_treatment    constr
_refine_ls_matrix_type           full
_refine_ls_number_parameters     622
_refine_ls_number_reflns         6885
_refine_ls_number_restraints     0
_refine_ls_restrained_S_all      1.055
_refine_ls_R_factor_all          0.1342
_refine_ls_R_factor_gt           0.0764
_refine_ls_shift/su_max          0.002
_refine_ls_shift/su_mean         0.000
_refine_ls_structure_factor_coef Fsqd
_refine_ls_weighting_details
'w=1/[\s^2^(Fo^2^)+(0.0763P)^2^+3.5991P] where P=(Fo^2^+2Fc^2^)/3'
_refine_ls_weighting_scheme      calc
_refine_ls_wR_factor_gt          0.1517
_refine_ls_wR_factor_ref         0.1741
_reflns_Friedel_coverage         0.000
_reflns_number_gt                4344
_reflns_number_total             6885
_reflns_threshold_expression     'I > 2\s(I)'
_cod_data_source_file            c7ce01642e2.cif
_cod_data_source_block           gs29_sq
_cod_database_code               7229432
_shelx_shelxl_version_number     2014/7
_shelx_space_group_comment
;
The symmetry employed for this shelxl refinement is uniquely defined
by the following loop, which should always be used as a source of
symmetry information in preference to the above space-group names.
They are only intended as comments.
;
_shelx_estimated_absorpt_t_min   0.925
_shelx_estimated_absorpt_t_max   0.956
_platon_squeeze_void_probe_radius 1.20
_shelx_res_file
;

    gs29_sq.res created by SHELXL-2014/7


TITL mo_gs29_0m_a.res in P2(1)/n
REM Old TITL mo_gs29_0m in P2(1)/n

REM SHELXT solution in P2(1)/n
REM R1 0.223,  Rweak 0.075,  Alpha 0.096,  Orientation as input
REM Formula found by SHELXT:  C66 N2 O5 Zn

CELL  0.71073  16.8049  13.6450  21.4125   90.000  103.288   90.000
ZERR    4.000   0.0016   0.0011   0.0017    0.000    0.004    0.000
LATT  1
SYMM 1/2-X, 1/2+Y, 1/2-Z
SFAC C H N ZN
UNIT 248 136 24 4
TEMP -163.00
size 0.14 0.10 0.08
L.S. 5 0   48
BOND $H
list 4
FMAP 2
acta
PLAN -20
ABIN
WGHT    0.076300    3.599100
FVAR       0.22269
ZN1   4    0.342673    0.368160    0.414776    11.00000    0.02418    0.02240 =
         0.01930    0.00024    0.00788   -0.00423
N1    3    0.396745    0.481388    0.376360    11.00000    0.02306    0.02224 =
         0.02111    0.00346    0.00963   -0.00470
N2    3    0.233794    0.446114    0.390987    11.00000    0.02161    0.02021 =
         0.02026    0.00242    0.00734   -0.00285
N3    3    0.292862    0.283509    0.476236    11.00000    0.02783    0.01985 =
         0.02574    0.00336    0.01084   -0.00716
N4    3    0.184581    0.769633    0.165544    11.00000    0.02869    0.01960 =
         0.01697    0.00669    0.00646    0.00348
N5    3    0.456664    0.324394    0.466603    11.00000    0.02731    0.02213 =
         0.02650    0.00497    0.01310   -0.00527
N6    3    0.510402   -0.037385    0.665651    11.00000    0.04445    0.04984 =
         0.04863    0.01818    0.01358    0.00674
C1    1    0.241463    0.641058    0.267346    11.00000    0.01991    0.02266 =
         0.01982   -0.00229    0.00775   -0.00190
C2    1    0.357995    0.551671    0.334567    11.00000    0.02778    0.02170 =
         0.02177    0.00020    0.01145   -0.00934
C3    1    0.477987    0.486228    0.375528    11.00000    0.02888    0.02149 =
         0.02665    0.00360    0.01230   -0.00331
C4    1    0.014068    0.251379    0.416395    11.00000    0.02761    0.01845 =
         0.01957    0.00121    0.00025   -0.00121
C5    1    0.215974    0.519817    0.347533    11.00000    0.02036    0.02055 =
         0.02026   -0.00385    0.00416   -0.00011
C6    1    0.332068    0.213736    0.518356    11.00000    0.02631    0.02318 =
         0.01998   -0.00350    0.01184   -0.00749
C7    1    0.159743    0.418266    0.403116    11.00000    0.03481    0.02395 =
         0.02398    0.00096    0.00413   -0.00651
C8    1    0.529754    0.355389    0.455419    11.00000    0.03697    0.02620 =
         0.01623    0.00366    0.01219   -0.00544
C9    1    0.273507    0.569340    0.320295    11.00000    0.02296    0.01975 =
         0.01617   -0.00465    0.00137   -0.00201
C10   1    0.211435    0.278795    0.477822    11.00000    0.02800    0.03687 =
         0.02641    0.00873    0.00814   -0.00451
C11   1   -0.064919    0.232896    0.427022    11.00000    0.02516    0.02994 =
         0.03172    0.00636    0.00971   -0.00235
C12   1    0.474776    0.252408    0.510714    11.00000    0.02422    0.02763 =
         0.02800    0.00405    0.00873    0.00212
C13   1    0.416377    0.602309    0.306657    11.00000    0.03651    0.02972 =
         0.03008    0.01065    0.00795   -0.00666
AFIX  43
H13   2    0.405020    0.654273    0.276384    11.00000   -1.20000
AFIX   0
C14   1    0.130000    0.540996    0.333412    11.00000    0.03418    0.02707 =
         0.02125    0.00462    0.00594    0.00263
AFIX  43
H14   2    0.102511    0.590273    0.305183    11.00000   -1.20000
AFIX   0
C15   1    0.490042    0.562432    0.331378    11.00000    0.03224    0.03944 =
         0.03106    0.00607    0.01212   -0.00486
AFIX  43
H15   2    0.540450    0.580705    0.321752    11.00000   -1.20000
AFIX   0
C16   1    0.562380    0.237249    0.529373    11.00000    0.02713    0.03238 =
         0.02933    0.00613    0.00994    0.00928
AFIX  43
H16   2    0.590389    0.190862    0.559663    11.00000   -1.20000
AFIX   0
C17   1    0.273314    0.162161    0.545932    11.00000    0.03576    0.03225 =
         0.02863    0.01356    0.00162   -0.00536
AFIX  43
H17   2    0.284543    0.109780    0.575897    11.00000   -1.20000
AFIX   0
C18   1    0.721605    0.380922    0.334259    11.00000    0.03125    0.04584 =
         0.03490    0.01346    0.00864   -0.00007
C19   1    0.642678    0.374177    0.349332    11.00000    0.03006    0.03231 =
         0.02446    0.00765    0.00396    0.00253
C20   1    0.623868    0.434546    0.396424    11.00000    0.02804    0.04265 =
         0.02723    0.00505    0.00413   -0.00597
C21   1    0.540090    0.426352    0.410477    11.00000    0.02105    0.03375 =
         0.02829   -0.00031    0.00621   -0.00683
C22   1    0.149548    0.340507    0.443628    11.00000    0.01778    0.03834 =
         0.03352   -0.00396    0.00712   -0.00386
C23   1    0.417082    0.196749    0.534691    11.00000    0.03106    0.03096 =
         0.02219   -0.00387    0.00816   -0.00339
C24   1    0.040428    0.195432    0.367085    11.00000    0.03654    0.03637 =
         0.03708   -0.00073    0.01061   -0.00337
AFIX  43
H24   2    0.092644    0.207368    0.358618    11.00000   -1.20000
AFIX   0
C25   1   -0.009335    0.126046    0.332997    11.00000    0.04778    0.03678 =
         0.03184   -0.00990    0.02213   -0.01182
AFIX  43
H25   2    0.008915    0.090167    0.300915    11.00000   -1.20000
AFIX   0
C26   1    0.448465    0.114986    0.579825    11.00000    0.02471    0.02294 =
         0.02980    0.00112    0.01278    0.00222
C27   1    0.095830    0.477900    0.367698    11.00000    0.01912    0.04434 =
         0.03087    0.00368    0.00659   -0.00105
AFIX  43
H27   2    0.039532    0.473916    0.368166    11.00000   -1.20000
AFIX   0
C28   1   -0.194918    0.141298    0.403588    11.00000    0.02344    0.03378 =
         0.04849    0.01339    0.00630   -0.00783
C29   1    0.063258    0.321286    0.451971    11.00000    0.03821    0.03111 =
         0.03184    0.00037    0.01405   -0.00011
C30   1    0.199433    0.202437    0.521091    11.00000    0.03066    0.03899 =
         0.03942    0.00513    0.01348   -0.00384
AFIX  43
H30   2    0.148940    0.183833    0.530435    11.00000   -1.20000
AFIX   0
C31   1    0.434293    0.018874    0.563364    11.00000    0.03182    0.03632 =
         0.03334    0.00594    0.00224    0.00054
AFIX  43
H31   2    0.402587    0.002101    0.522041    11.00000   -1.20000
AFIX   0
C32   1    0.596437    0.301454    0.495581    11.00000    0.02745    0.04800 =
         0.02965    0.00711    0.00701    0.00168
AFIX  43
H32   2    0.653116    0.309760    0.497668    11.00000   -1.20000
AFIX   0
C33   1   -0.093591    0.286806    0.474411    11.00000    0.03104    0.02951 =
         0.06157   -0.00184    0.01582    0.00329
C34   1    0.778082    0.449395    0.367681    11.00000    0.03220    0.08027 =
         0.03309    0.01084    0.00870   -0.00227
C35   1    0.466308   -0.054796    0.607146    11.00000    0.03292    0.03592 =
         0.06422    0.00480    0.01408   -0.00292
AFIX  43
H35   2    0.455856   -0.121054    0.594218    11.00000   -1.20000
AFIX   0
C36   1    0.496246    0.134437    0.640930    11.00000    0.04129    0.04027 =
         0.03566    0.00328    0.01212    0.00331
AFIX  43
H36   2    0.508930    0.199983    0.654615    11.00000   -1.20000
AFIX   0
C37   1   -0.115677    0.160145    0.390945    11.00000    0.03453    0.03263 =
         0.03276    0.00865    0.00788   -0.00088
C38   1    0.207178    0.800381    0.224753    11.00000    0.10696    0.02439 =
         0.01843    0.00783    0.01753    0.02739
AFIX  43
H38   2    0.203335    0.868538    0.232624    11.00000   -1.20000
AFIX   0
C39   1   -0.088522    0.105536    0.344113    11.00000    0.05191    0.03893 =
         0.02996   -0.00238    0.01004   -0.00781
C40   1    0.680862    0.500242    0.428330    11.00000    0.03916    0.07668 =
         0.04627   -0.02430    0.02087   -0.01799
AFIX  43
H40   2    0.667961    0.541394    0.460406    11.00000   -1.20000
AFIX   0
C41   1   -0.220302    0.197574    0.451751    11.00000    0.02735    0.04247 =
         0.06456    0.00372    0.01268   -0.00289
AFIX  43
H41   2   -0.272645    0.185640    0.459979    11.00000   -1.20000
AFIX   0
C42   1    0.187741    0.675138    0.156148    11.00000    0.07149    0.02603 =
         0.02442   -0.00274    0.00003   -0.00727
AFIX  43
H42   2    0.169930    0.650707    0.113680    11.00000   -1.20000
AFIX   0
C43   1    0.033560    0.375098    0.496452    11.00000    0.02911    0.05635 =
         0.05438   -0.01413    0.02259   -0.00552
AFIX  43
H43   2    0.066474    0.425792    0.519501    11.00000   -1.20000
AFIX   0
C44   1    0.236402    0.739552    0.276733    11.00000    0.10205    0.02946 =
         0.02450   -0.01053    0.01246    0.01222
AFIX  43
H44   2    0.252838    0.766255    0.318701    11.00000   -1.20000
AFIX   0
C45   1    0.740907    0.320517    0.286256    11.00000    0.05177    0.04578 =
         0.04747    0.01572    0.02661    0.01352
C46   1   -0.172915    0.266162    0.485430    11.00000    0.03520    0.03821 =
         0.07560   -0.00407    0.03252    0.00461
AFIX  43
H46   2   -0.191831    0.301978    0.517213    11.00000   -1.20000
AFIX   0
C47   1    0.524770    0.056891    0.681152    11.00000    0.05332    0.05090 =
         0.03745    0.00909    0.01141    0.00667
AFIX  43
H47   2    0.556840    0.071477    0.722742    11.00000   -1.20000
AFIX   0
C48   1    0.215760    0.609518    0.205126    11.00000    0.08190    0.01709 =
         0.03300   -0.00502    0.00693   -0.00425
AFIX  43
H48   2    0.217310    0.541600    0.195719    11.00000   -1.20000
AFIX   0
C49   1    0.858239    0.455491    0.350776    11.00000    0.02728    0.11492 =
         0.05664    0.00843    0.01585   -0.00414
AFIX  43
H49   2    0.898480    0.500147    0.372661    11.00000   -1.20000
AFIX   0
C50   1    0.819204    0.330119    0.269912    11.00000    0.05896    0.07046 =
         0.04831    0.01747    0.02678    0.02453
C51   1   -0.042601    0.357304    0.508365    11.00000    0.03970    0.04416 =
         0.05945   -0.02134    0.03003   -0.00357
AFIX  43
H51   2   -0.060053    0.394183    0.540408    11.00000   -1.20000
AFIX   0
C52   1    0.588149    0.302190    0.315281    11.00000    0.06031    0.03335 =
         0.04467   -0.00328    0.02579   -0.00577
AFIX  43
H52   2    0.536328    0.293483    0.325193    11.00000   -1.20000
AFIX   0
C53   1    0.873978    0.398237    0.304780    11.00000    0.04390    0.11159 =
         0.04755    0.01999    0.02169    0.01060
AFIX  43
H53   2    0.926098    0.404073    0.294954    11.00000   -1.20000
AFIX   0
C54   1    0.757331    0.506944    0.414008    11.00000    0.03255    0.10567 =
         0.05066   -0.02272    0.01260   -0.03054
AFIX  43
H54   2    0.796091    0.552445    0.436850    11.00000   -1.20000
AFIX   0
C55   1    0.685094    0.254561    0.251902    11.00000    0.09749    0.05165 =
         0.06140   -0.00052    0.04577   -0.00593
C56   1    0.608310    0.245593    0.268955    11.00000    0.08680    0.04964 =
         0.08235   -0.01547    0.05275   -0.02004
AFIX  43
H56   2    0.570016    0.198635    0.247300    11.00000   -1.20000
AFIX   0
C57   1   -0.242398    0.070143    0.369111    11.00000    0.05310    0.05880 =
         0.05805   -0.00002    0.01486   -0.01688
AFIX  43
H57   2   -0.295450    0.057859    0.375824    11.00000   -1.20000
AFIX   0
C58   1   -0.137999    0.033102    0.311656    11.00000    0.06239    0.08733 =
         0.05269   -0.03158    0.02829   -0.04398
AFIX  43
H58   2   -0.120128   -0.005117    0.280399    11.00000   -1.20000
AFIX   0
C59   1    0.837068    0.272695    0.222857    11.00000    0.08886    0.06824 =
         0.08291    0.02620    0.05504    0.03354
AFIX  43
H59   2    0.889574    0.277363    0.213588    11.00000   -1.20000
AFIX   0
C60   1   -0.213841    0.015666    0.324387    11.00000    0.08101    0.09499 =
         0.06996   -0.03563    0.02678   -0.05151
AFIX  43
H60   2   -0.247163   -0.035080    0.301796    11.00000   -1.20000
AFIX   0
C61   1    0.781403    0.208862    0.188878    11.00000    0.15427    0.07415 =
         0.10298   -0.00011    0.09447    0.01116
AFIX  43
H61   2    0.795019    0.171124    0.155531    11.00000   -1.20000
AFIX   0
C62   1    0.704701    0.198200    0.202411    11.00000    0.12205    0.08549 =
         0.10683   -0.03740    0.08615   -0.01262
AFIX  43
H62   2    0.666070    0.153464    0.178559    11.00000   -1.20000
AFIX   0
HKLF 4

REM  mo_gs29_0m_a.res in P2(1)/n
REM R1 =  0.0764 for    4344 Fo > 4sig(Fo)  and  0.1342 for all    6885 data
REM    622 parameters refined using      0 restraints

END

WGHT      0.0696      4.8027

REM Highest difference peak  0.849,  deepest hole -0.732,  1-sigma level  0.078
Q1    1   0.3215  0.3400  0.3703  11.00000  0.05    0.85
Q2    1   0.3649  0.3259  0.4529  11.00000  0.05    0.62
Q3    1   0.3627  0.3508  0.4620  11.00000  0.05    0.60
Q4    1   0.3422  0.2863  0.4251  11.00000  0.05    0.45
Q5    1   0.0818  0.2509  0.4023  11.00000  0.05    0.43
Q6    1   0.3198  0.4435  0.4366  11.00000  0.05    0.40
Q7    1   0.3565  0.4436  0.4016  11.00000  0.05    0.37
Q8    1   0.2432  0.4212  0.1202  11.00000  0.05    0.36
Q9    1   0.2192  0.4387  0.3465  11.00000  0.05    0.36
Q10   1   0.4212  0.3785  0.4975  11.00000  0.05    0.36
Q11   1   0.3163  0.3596  0.4759  11.00000  0.05    0.35
Q12   1  -0.1186  0.1928  0.4432  11.00000  0.05    0.32
Q13   1   0.4420  0.3655  0.4338  11.00000  0.05    0.31
Q14   1  -0.1625  0.2664  0.5498  11.00000  0.05    0.31
Q15   1   0.2418  0.3743  0.3972  11.00000  0.05    0.31
Q16   1   0.2392  0.5240  0.3912  11.00000  0.05    0.31
Q17   1   0.1445  0.2759  0.3921  11.00000  0.05    0.28
Q18   1   0.2969  0.4595  0.0855  11.00000  0.05    0.28
Q19   1   0.3620  0.3787  0.3490  11.00000  0.05    0.28
Q20   1   0.7195  0.2565  0.2999  11.00000  0.05    0.28
;
_shelx_res_checksum              61327
_shelx_fab_file
;
    2    0    0      4.77      0.00
    4    0    0     -3.23      0.00
    6    0    0    -26.51      0.00
    8    0    0      0.34      0.00
   10    0    0      0.98      0.00
   12    0    0      1.62      0.00
   14    0    0     -0.65      0.00
   16    0    0     -1.02      0.00
   18    0    0      0.36      0.00
    1    1    0     86.79      0.00
    2    1    0     37.82      0.00
    3    1    0    -15.89      0.00
    4    1    0     13.90      0.00
    5    1    0    -11.85      0.00
    6    1    0      1.71      0.00
    7    1    0    -15.20      0.00
    8    1    0     -5.80      0.00
    9    1    0      4.20      0.00
   10    1    0     -0.38      0.00
   11    1    0     -0.46      0.00
   12    1    0     -1.67      0.00
   13    1    0     -1.52      0.00
   14    1    0     -0.60      0.00
   15    1    0      0.20      0.00
   16    1    0      0.88      0.00
   17    1    0      1.43      0.00
   18    1    0      1.12      0.00
    0    2    0     78.48      0.00
    1    2    0     65.06      0.00
    2    2    0    -19.54      0.00
    3    2    0     16.92      0.00
    4    2    0     -3.04      0.00
    5    2    0     17.35      0.00
    6    2    0    -10.11      0.00
    7    2    0     -8.82      0.00
    8    2    0     -1.21      0.00
    9    2    0     -1.57      0.00
   10    2    0      0.15      0.00
   11    2    0     -3.12      0.00
   12    2    0      0.71      0.00
   13    2    0      0.50      0.00
   14    2    0     -0.19      0.00
   15    2    0     -0.24      0.00
   16    2    0      0.24      0.00
   17    2    0     -0.71      0.00
   18    2    0      0.03      0.00
    1    3    0      4.20      0.00
    2    3    0     42.94      0.00
    3    3    0    -10.79      0.00
    4    3    0      8.71      0.00
    5    3    0      4.43      0.00
    6    3    0      3.93      0.00
    7    3    0     -2.77      0.00
    8    3    0     -8.34      0.00
    9    3    0      0.50      0.00
   10    3    0      1.73      0.00
   11    3    0      1.24      0.00
   12    3    0     -0.80      0.00
   13    3    0     -0.40      0.00
   14    3    0     -1.80      0.00
   15    3    0      1.29      0.00
   16    3    0      0.40      0.00
   17    3    0     -0.25      0.00
    0    4    0     -9.27      0.00
    1    4    0     48.41      0.00
    2    4    0     -3.47      0.00
    3    4    0     -0.39      0.00
    4    4    0     -2.17      0.00
    5    4    0      7.06      0.00
    6    4    0      5.64      0.00
    7    4    0     -7.11      0.00
    8    4    0     -2.99      0.00
    9    4    0      0.40      0.00
   10    4    0      2.37      0.00
   11    4    0     -1.70      0.00
   12    4    0     -1.15      0.00
   13    4    0     -0.82      0.00
   14    4    0     -0.11      0.00
   15    4    0      0.52      0.00
   16    4    0     -0.01      0.00
   17    4    0      0.74      0.00
    1    5    0    -12.17      0.00
    2    5    0     19.30      0.00
    3    5    0      4.62      0.00
    4    5    0     -6.57      0.00
    5    5    0      4.47      0.00
    6    5    0      1.64      0.00
    7    5    0     -0.48      0.00
    8    5    0     -5.14      0.00
    9    5    0     -2.59      0.00
   10    5    0      0.64      0.00
   11    5    0      1.27      0.00
   12    5    0     -0.30      0.00
   13    5    0     -1.26      0.00
   14    5    0     -3.01      0.00
   15    5    0     -1.28      0.00
   16    5    0      0.42      0.00
   17    5    0      0.02      0.00
    0    6    0    -25.84      0.00
    1    6    0     17.71      0.00
    2    6    0     14.78      0.00
    3    6    0     -1.28      0.00
    4    6    0     -1.55      0.00
    5    6    0      0.07      0.00
    6    6    0      4.67      0.00
    7    6    0     -0.31      0.00
    8    6    0     -6.03      0.00
    9    6    0     -2.63      0.00
   10    6    0      3.01      0.00
   11    6    0      0.59      0.00
   12    6    0     -0.30      0.00
   13    6    0     -1.65      0.00
   14    6    0     -0.82      0.00
   15    6    0      1.50      0.00
   16    6    0      0.21      0.00
    1    7    0     -6.97      0.00
    2    7    0      7.79      0.00
    3    7    0     11.00      0.00
    4    7    0     -0.36      0.00
    5    7    0     -0.77      0.00
    6    7    0      3.82      0.00
    7    7    0     -1.30      0.00
    8    7    0     -1.76      0.00
    9    7    0     -2.32      0.00
   10    7    0     -1.05      0.00
   11    7    0      1.81      0.00
   12    7    0      0.12      0.00
   13    7    0      2.04      0.00
   14    7    0      0.14      0.00
   15    7    0     -0.87      0.00
   16    7    0      1.40      0.00
    0    8    0    -19.10      0.00
    1    8    0     -1.41      0.00
    2    8    0     10.63      0.00
    3    8    0      7.23      0.00
    4    8    0     -0.10      0.00
    5    8    0      0.21      0.00
    6    8    0      1.38      0.00
    7    8    0      3.76      0.00
    8    8    0     -2.58      0.00
    9    8    0     -5.44      0.00
   10    8    0      1.76      0.00
   11    8    0     -0.46      0.00
   12    8    0      1.27      0.00
   13    8    0      0.54      0.00
   14    8    0     -1.01      0.00
   15    8    0      2.21      0.00
    1    9    0     -4.87      0.00
    2    9    0      0.33      0.00
    3    9    0      5.01      0.00
    4    9    0      3.26      0.00
    5    9    0     -0.14      0.00
    6    9    0      2.92      0.00
    7    9    0      2.99      0.00
    8    9    0     -1.83      0.00
    9    9    0     -0.36      0.00
   10    9    0     -3.59      0.00
   11    9    0     -1.22      0.00
   12    9    0     -0.14      0.00
   13    9    0      2.50      0.00
   14    9    0      0.12      0.00
    0   10    0     -8.67      0.00
    1   10    0     -6.89      0.00
    2   10    0      0.07      0.00
    3   10    0      5.10      0.00
    4   10    0      1.08      0.00
    5   10    0     -0.01      0.00
    6   10    0      0.42      0.00
    7   10    0      2.23      0.00
    8   10    0      4.09      0.00
    9   10    0     -3.55      0.00
   10   10    0     -0.01      0.00
   11   10    0     -0.98      0.00
   12   10    0     -0.04      0.00
   13   10    0     -0.22      0.00
    1   11    0     -2.91      0.00
    2   11    0     -1.91      0.00
    3   11    0      0.31      0.00
    4   11    0      0.47      0.00
    5   11    0     -0.26      0.00
    6   11    0      0.37      0.00
    7   11    0      2.61      0.00
    8   11    0      1.95      0.00
    9   11    0      1.97      0.00
   10   11    0      0.70      0.00
   11   11    0      0.85      0.00
   12   11    0     -3.97      0.00
    0   12    0      1.91      0.00
    1   12    0     -5.44      0.00
    2   12    0     -1.39      0.00
    3   12    0     -0.78      0.00
    4   12    0      0.78      0.00
    5   12    0      2.73      0.00
    6   12    0     -5.16      0.00
    7   12    0      0.39      0.00
    8   12    0      2.49      0.00
    9   12    0      0.73      0.00
   10   12    0      2.07      0.00
   11   12    0     -0.16      0.00
    1   13    0      1.24      0.00
    2   13    0     -0.11      0.00
    3   13    0     -3.40      0.00
    4   13    0     -0.05      0.00
    5   13    0     -4.67      0.00
    6   13    0      0.01      0.00
    7   13    0     -2.43      0.00
    8   13    0     -1.11      0.00
    9   13    0      1.94      0.00
    0   14    0      0.91      0.00
    1   14    0      0.53      0.00
    2   14    0     -1.70      0.00
    3   14    0     -1.46      0.00
    4   14    0     -2.60      0.00
    5   14    0      1.46      0.00
    6   14    0     -0.94      0.00
    7   14    0     -5.62      0.00
  -17    0    1     -0.62      0.00
  -15    0    1     -1.05      0.00
  -13    0    1      0.32      0.00
  -11    0    1     -2.15      0.00
   -9    0    1     -5.75      0.00
   -7    0    1      6.34      0.00
   -5    0    1     24.61      0.00
   -3    0    1     25.74      0.00
    3    0    1     -6.17      0.00
    5    0    1      0.94      0.00
    7    0    1     21.38      0.00
    9    0    1     -3.87      0.00
   11    0    1      1.84      0.00
   13    0    1      0.38      0.00
   15    0    1     -1.34      0.00
   17    0    1     -1.00      0.00
  -18    1    1      0.77      0.00
  -17    1    1      0.35      0.00
  -16    1    1     -0.83      0.00
  -15    1    1     -0.13      0.00
  -14    1    1     -1.10      0.00
  -13    1    1     -0.56      0.00
  -12    1    1     -1.40      0.00
  -11    1    1     -2.40      0.00
  -10    1    1     -0.72      0.00
   -9    1    1      1.01      0.00
   -8    1    1     -4.31      0.00
   -7    1    1     -8.57      0.00
   -6    1    1     20.58      0.00
   -5    1    1      2.59      0.00
   -4    1    1      7.77      0.00
   -3    1    1     10.88      0.00
   -2    1    1     45.66      0.00
   -1    1    1     70.02      0.00
    0    1    1   -124.69      0.00
    1    1    1      3.71      0.00
    2    1    1    -33.17      0.00
    3    1    1     -9.09      0.00
    4    1    1     -1.29      0.00
    5    1    1    -14.02      0.00
    6    1    1     14.79      0.00
    7    1    1      0.10      0.00
    8    1    1      6.42      0.00
    9    1    1      3.15      0.00
   10    1    1     -0.68      0.00
   11    1    1      1.77      0.00
   12    1    1     -1.28      0.00
   13    1    1     -0.29      0.00
   14    1    1      0.68      0.00
   15    1    1     -0.65      0.00
   16    1    1      1.31      0.00
   17    1    1     -0.40      0.00
  -18    2    1      1.73      0.00
  -17    2    1     -1.03      0.00
  -16    2    1     -0.50      0.00
  -15    2    1     -2.36      0.00
  -14    2    1     -2.82      0.00
  -13    2    1      0.74      0.00
  -12    2    1     -1.29      0.00
  -11    2    1     -0.08      0.00
  -10    2    1     -0.22      0.00
   -9    2    1     -1.69      0.00
   -8    2    1     -5.37      0.00
   -7    2    1      6.06      0.00
   -6    2    1     -9.99      0.00
   -5    2    1      5.68      0.00
   -4    2    1     11.42      0.00
   -3    2    1      9.56      0.00
   -2    2    1     37.31      0.00
   -1    2    1     -2.21      0.00
    0    2    1     66.44      0.00
    1    2    1    -59.65      0.00
    2    2    1    -35.00      0.00
    3    2    1     15.43      0.00
    4    2    1    -11.67      0.00
    5    2    1      2.09      0.00
    6    2    1    -14.96      0.00
    7    2    1     10.99      0.00
    8    2    1      7.52      0.00
    9    2    1     -1.95      0.00
   10    2    1     -1.10      0.00
   11    2    1     -0.26      0.00
   12    2    1      1.03      0.00
   13    2    1      0.26      0.00
   14    2    1     -0.04      0.00
   15    2    1      0.15      0.00
   16    2    1     -1.04      0.00
   17    2    1     -0.61      0.00
  -17    3    1      0.91      0.00
  -16    3    1      0.01      0.00
  -15    3    1     -0.40      0.00
  -14    3    1     -2.52      0.00
  -13    3    1     -0.76      0.00
  -12    3    1      0.25      0.00
  -11    3    1     -2.91      0.00
  -10    3    1     -0.81      0.00
   -9    3    1      2.26      0.00
   -8    3    1      1.75      0.00
   -7    3    1    -11.70      0.00
   -6    3    1      1.76      0.00
   -5    3    1      7.61      0.00
   -4    3    1     -6.20      0.00
   -3    3    1     -1.93      0.00
   -2    3    1      8.61      0.00
   -1    3    1     72.44      0.00
    0    3    1    -24.85      0.00
    1    3    1    -23.67      0.00
    2    3    1      8.56      0.00
    3    3    1    -15.15      0.00
    4    3    1     10.52      0.00
    5    3    1    -14.50      0.00
    6    3    1      1.00      0.00
    7    3    1      0.63      0.00
    8    3    1      1.31      0.00
    9    3    1      2.19      0.00
   10    3    1     -1.75      0.00
   11    3    1      0.59      0.00
   12    3    1     -1.12      0.00
   13    3    1     -1.02      0.00
   14    3    1      0.95      0.00
   15    3    1      0.15      0.00
   16    3    1      0.25      0.00
   17    3    1      1.09      0.00
  -17    4    1      0.80      0.00
  -16    4    1      1.47      0.00
  -15    4    1     -1.53      0.00
  -14    4    1     -2.01      0.00
  -13    4    1     -0.56      0.00
  -12    4    1     -0.23      0.00
  -11    4    1      0.10      0.00
  -10    4    1      0.89      0.00
   -9    4    1      0.51      0.00
   -8    4    1     -2.76      0.00
   -7    4    1      4.52      0.00
   -6    4    1     -2.39      0.00
   -5    4    1     -9.86      0.00
   -4    4    1      3.59      0.00
   -3    4    1     -2.69      0.00
   -2    4    1     12.79      0.00
   -1    4    1     -4.02      0.00
    0    4    1     33.59      0.00
    1    4    1      9.12      0.00
    2    4    1    -38.53      0.00
    3    4    1      7.00      0.00
    4    4    1      0.93      0.00
    5    4    1      2.35      0.00
    6    4    1     -6.85      0.00
    7    4    1     -0.82      0.00
    8    4    1      7.70      0.00
    9    4    1      1.98      0.00
   10    4    1     -2.33      0.00
   11    4    1     -2.59      0.00
   12    4    1      0.85      0.00
   13    4    1      1.45      0.00
   14    4    1      2.89      0.00
   15    4    1      2.11      0.00
   16    4    1     -1.29      0.00
   17    4    1      0.67      0.00
  -17    5    1     -0.35      0.00
  -16    5    1     -0.77      0.00
  -15    5    1      1.65      0.00
  -14    5    1     -1.06      0.00
  -13    5    1     -2.88      0.00
  -12    5    1      1.79      0.00
  -11    5    1     -1.63      0.00
  -10    5    1     -3.09      0.00
   -9    5    1      0.68      0.00
   -8    5    1      6.31      0.00
   -7    5    1     -3.48      0.00
   -6    5    1     -2.33      0.00
   -5    5    1      5.44      0.00
   -4    5    1      0.03      0.00
   -3    5    1     -9.29      0.00
   -2    5    1    -14.59      0.00
   -1    5    1     31.14      0.00
    0    5    1     16.12      0.00
    1    5    1    -22.54      0.00
    2    5    1      3.80      0.00
    3    5    1     -8.54      0.00
    4    5    1      2.54      0.00
    5    5    1      0.56      0.00
    6    5    1     -5.41      0.00
    7    5    1      2.53      0.00
    8    5    1      2.75      0.00
    9    5    1      3.02      0.00
   10    5    1     -1.40      0.00
   11    5    1     -0.16      0.00
   12    5    1      0.04      0.00
   13    5    1      0.04      0.00
   14    5    1      1.73      0.00
   15    5    1     -0.47      0.00
   16    5    1      1.86      0.00
  -16    6    1      0.11      0.00
  -15    6    1      0.62      0.00
  -14    6    1     -1.42      0.00
  -13    6    1     -1.24      0.00
  -12    6    1     -1.71      0.00
  -11    6    1     -0.49      0.00
  -10    6    1     -0.36      0.00
   -9    6    1     -0.55      0.00
   -8    6    1     -3.17      0.00
   -7    6    1      6.33      0.00
   -6    6    1      5.05      0.00
   -5    6    1     -2.62      0.00
   -4    6    1     -1.85      0.00
   -3    6    1     -2.24      0.00
   -2    6    1      4.48      0.00
   -1    6    1     -7.81      0.00
    0    6    1      7.27      0.00
    1    6    1     21.04      0.00
    2    6    1    -18.84      0.00
    3    6    1    -13.41      0.00
    4    6    1      2.93      0.00
    5    6    1     -1.11      0.00
    6    6    1     -1.19      0.00
    7    6    1     -4.28      0.00
    8    6    1      3.41      0.00
    9    6    1      4.06      0.00
   10    6    1      0.99      0.00
   11    6    1     -2.20      0.00
   12    6    1     -1.71      0.00
   13    6    1     -1.38      0.00
   14    6    1      0.68      0.00
   15    6    1      2.38      0.00
   16    6    1     -1.66      0.00
  -16    7    1     -1.53      0.00
  -15    7    1      2.42      0.00
  -14    7    1      0.57      0.00
  -13    7    1     -2.13      0.00
  -12    7    1     -1.77      0.00
  -11    7    1     -0.26      0.00
  -10    7    1     -4.00      0.00
   -9    7    1     -4.13      0.00
   -8    7    1      4.66      0.00
   -7    7    1      1.22      0.00
   -6    7    1     -0.18      0.00
   -5    7    1      2.95      0.00
   -4    7    1      6.10      0.00
   -3    7    1      3.29      0.00
   -2    7    1    -17.23      0.00
   -1    7    1      8.40      0.00
    0    7    1     18.37      0.00
    1    7    1     -5.50      0.00
    2    7    1     -4.72      0.00
    3    7    1     -6.14      0.00
    4    7    1     -4.43      0.00
    5    7    1      1.54      0.00
    6    7    1     -3.96      0.00
    7    7    1     -1.73      0.00
    8    7    1      2.62      0.00
    9    7    1      3.43      0.00
   10    7    1     -0.75      0.00
   11    7    1     -0.78      0.00
   12    7    1     -1.31      0.00
   13    7    1     -0.13      0.00
   14    7    1      0.21      0.00
   15    7    1     -3.80      0.00
  -15    8    1     -2.71      0.00
  -14    8    1     -0.20      0.00
  -13    8    1     -2.00      0.00
  -12    8    1     -0.51      0.00
  -11    8    1     -1.18      0.00
  -10    8    1     -1.54      0.00
   -9    8    1     -0.64      0.00
   -8    8    1     -5.88      0.00
   -7    8    1      0.99      0.00
   -6    8    1      4.99      0.00
   -5    8    1      0.52      0.00
   -4    8    1      0.25      0.00
   -3    8    1     -3.27      0.00
   -2    8    1      7.99      0.00
   -1    8    1     -4.26      0.00
    0    8    1     -1.74      0.00
    1    8    1     15.68      0.00
    2    8    1     -0.16      0.00
    3    8    1    -10.09      0.00
    4    8    1     -3.30      0.00
    5    8    1     -0.74      0.00
    6    8    1     -1.26      0.00
    7    8    1     -2.56      0.00
    8    8    1     -1.29      0.00
    9    8    1      3.07      0.00
   10    8    1      3.73      0.00
   11    8    1     -0.81      0.00
   12    8    1      0.38      0.00
   13    8    1     -2.90      0.00
   14    8    1     -2.19      0.00
   15    8    1      2.59      0.00
  -14    9    1     -0.43      0.00
  -13    9    1     -0.43      0.00
  -12    9    1     -1.37      0.00
  -11    9    1     -1.47      0.00
  -10    9    1     -0.06      0.00
   -9    9    1     -6.30      0.00
   -8    9    1     -0.88      0.00
   -7    9    1      1.14      0.00
   -6    9    1     -1.55      0.00
   -5    9    1      0.53      0.00
   -4    9    1      0.43      0.00
   -3    9    1      8.39      0.00
   -2    9    1     -7.64      0.00
   -1    9    1     -3.21      0.00
    0    9    1     10.78      0.00
    1    9    1      4.23      0.00
    2    9    1     -0.83      0.00
    3    9    1     -2.47      0.00
    4    9    1     -2.64      0.00
    5    9    1     -0.17      0.00
    6    9    1     -1.08      0.00
    7    9    1     -3.60      0.00
    8    9    1     -1.83      0.00
    9    9    1      4.24      0.00
   10    9    1     -0.59      0.00
   11    9    1      1.61      0.00
   12    9    1      0.94      0.00
   13    9    1     -2.60      0.00
   14    9    1      0.35      0.00
  -13   10    1     -4.08      0.00
  -12   10    1     -3.39      0.00
  -11   10    1      1.24      0.00
  -10   10    1     -2.54      0.00
   -9   10    1      1.42      0.00
   -8   10    1     -2.27      0.00
   -7   10    1     -4.98      0.00
   -6   10    1      2.80      0.00
   -5   10    1      0.78      0.00
   -4   10    1      1.17      0.00
   -3   10    1     -2.41      0.00
   -2   10    1      4.67      0.00
   -1   10    1      1.70      0.00
    0   10    1     -4.35      0.00
    1   10    1      6.75      0.00
    2   10    1      4.85      0.00
    3   10    1     -0.52      0.00
    4   10    1     -1.82      0.00
    5   10    1      0.22      0.00
    6   10    1      0.55      0.00
    7   10    1     -3.21      0.00
    8   10    1     -1.52      0.00
    9   10    1     -2.37      0.00
   10   10    1      1.99      0.00
   11   10    1      1.04      0.00
   12   10    1     -0.09      0.00
   13   10    1     -2.33      0.00
  -12   11    1     -2.38      0.00
  -11   11    1     -3.85      0.00
  -10   11    1      0.08      0.00
   -9   11    1     -0.61      0.00
   -8   11    1     -3.08      0.00
   -7   11    1      2.97      0.00
   -6   11    1      1.14      0.00
   -5   11    1      2.07      0.00
   -4   11    1     -2.64      0.00
   -3   11    1      3.46      0.00
   -2   11    1      0.14      0.00
   -1   11    1     -6.71      0.00
    0   11    1      4.34      0.00
    1   11    1      3.90      0.00
    2   11    1      1.75      0.00
    3   11    1      0.09      0.00
    4   11    1     -1.51      0.00
    5   11    1      1.43      0.00
    6   11    1      1.37      0.00
    7   11    1      1.02      0.00
    8   11    1     -3.61      0.00
    9   11    1      0.60      0.00
   10   11    1     -1.60      0.00
   11   11    1     -1.95      0.00
   12   11    1      0.19      0.00
  -11   12    1     -1.49      0.00
  -10   12    1      0.00      0.00
   -9   12    1     -1.41      0.00
   -8   12    1      2.08      0.00
   -7   12    1     -2.60      0.00
   -6   12    1      1.83      0.00
   -5   12    1      2.90      0.00
   -4   12    1      3.32      0.00
   -3   12    1     -1.55      0.00
   -2   12    1     -0.03      0.00
   -1   12    1      1.05      0.00
    0   12    1     -3.51      0.00
    1   12    1     -1.64      0.00
    2   12    1      3.77      0.00
    3   12    1      0.34      0.00
    4   12    1      3.40      0.00
    5   12    1      0.12      0.00
    6   12    1      0.91      0.00
    7   12    1      3.33      0.00
    8   12    1     -0.47      0.00
    9   12    1     -0.63      0.00
   10   12    1      0.35      0.00
   -9   13    1      0.64      0.00
   -8   13    1     -3.90      0.00
   -7   13    1     -3.35      0.00
   -6   13    1      1.74      0.00
   -5   13    1      2.88      0.00
   -4   13    1      0.28      0.00
   -3   13    1     -0.99      0.00
   -2   13    1      2.86      0.00
   -1   13    1     -1.71      0.00
    0   13    1     -2.68      0.00
    1   13    1      3.18      0.00
    2   13    1     -0.63      0.00
    3   13    1      1.74      0.00
    4   13    1      1.74      0.00
    5   13    1     -3.29      0.00
    6   13    1      5.73      0.00
    7   13    1      1.57      0.00
    8   13    1      1.60      0.00
    9   13    1      1.57      0.00
   -7   14    1     -1.22      0.00
   -6   14    1     -4.72      0.00
   -5   14    1      0.07      0.00
   -4   14    1     -1.90      0.00
   -3   14    1      1.24      0.00
   -2   14    1     -0.55      0.00
   -1   14    1      1.05      0.00
    0   14    1      1.00      0.00
    1   14    1     -0.92      0.00
    2   14    1     -2.59      0.00
    3   14    1      1.19      0.00
    4   14    1     -0.67      0.00
    5   14    1      2.68      0.00
    6   14    1     -2.62      0.00
   -2   15    1     -0.17      0.00
   -1   15    1      0.98      0.00
    0   15    1      1.44      0.00
    1   15    1      0.89      0.00
    2   15    1      0.06      0.00
  -18    0    2     -3.18      0.00
  -16    0    2      0.20      0.00
  -14    0    2      3.51      0.00
  -12    0    2      2.60      0.00
  -10    0    2      1.53      0.00
   -8    0    2      6.90      0.00
   -6    0    2    -12.46      0.00
   -4    0    2    -12.94      0.00
   -2    0    2    -72.17      0.00
    0    0    2     50.09      0.00
    2    0    2     64.09      0.00
    4    0    2      8.84      0.00
    6    0    2     -3.42      0.00
    8    0    2    -11.69      0.00
   10    0    2      1.54      0.00
   12    0    2      0.69      0.00
   14    0    2      0.67      0.00
   16    0    2      0.57      0.00
  -18    1    2     -0.22      0.00
  -17    1    2      0.44      0.00
  -16    1    2      0.44      0.00
  -15    1    2      3.21      0.00
  -14    1    2      1.30      0.00
  -13    1    2      1.17      0.00
  -12    1    2     -0.26      0.00
  -11    1    2      2.04      0.00
  -10    1    2     -0.09      0.00
   -9    1    2      2.55      0.00
   -8    1    2     -1.15      0.00
   -7    1    2      1.70      0.00
   -6    1    2     11.85      0.00
   -5    1    2    -19.43      0.00
   -4    1    2     -0.38      0.00
   -3    1    2    -11.21      0.00
   -2    1    2     -8.68      0.00
   -1    1    2    -52.26      0.00
    0    1    2    -71.73      0.00
    1    1    2    102.74      0.00
    2    1    2     -5.26      0.00
    3    1    2      7.35      0.00
    4    1    2      0.11      0.00
    5    1    2      5.97      0.00
    6    1    2     11.29      0.00
    7    1    2    -15.14      0.00
    8    1    2     -2.79      0.00
    9    1    2      1.34      0.00
   10    1    2     -0.45      0.00
   11    1    2     -1.07      0.00
   12    1    2     -1.07      0.00
   13    1    2      1.26      0.00
   14    1    2     -0.70      0.00
   15    1    2      2.11      0.00
   16    1    2      0.77      0.00
   17    1    2     -0.40      0.00
  -18    2    2     -1.72      0.00
  -17    2    2     -1.73      0.00
  -16    2    2      1.23      0.00
  -15    2    2      0.66      0.00
  -14    2    2      4.05      0.00
  -13    2    2      1.97      0.00
  -12    2    2      0.00      0.00
  -11    2    2      2.25      0.00
  -10    2    2      0.11      0.00
   -9    2    2     -3.33      0.00
   -8    2    2      1.55      0.00
   -7    2    2      9.28      0.00
   -6    2    2    -11.01      0.00
   -5    2    2      8.40      0.00
   -4    2    2      0.36      0.00
   -3    2    2      7.51      0.00
   -2    2    2    -22.72      0.00
   -1    2    2    -61.83      0.00
    0    2    2     41.41      0.00
    1    2    2    -36.48      0.00
    2    2    2     28.01      0.00
    3    2    2      8.76      0.00
    4    2    2     -7.31      0.00
    5    2    2     12.01      0.00
    6    2    2     -3.91      0.00
    7    2    2      8.43      0.00
    8    2    2     -5.83      0.00
    9    2    2     -4.13      0.00
   10    2    2      2.65      0.00
   11    2    2      0.15      0.00
   12    2    2      2.34      0.00
   13    2    2      1.19      0.00
   14    2    2     -0.48      0.00
   15    2    2     -0.21      0.00
   16    2    2     -1.82      0.00
   17    2    2     -1.00      0.00
  -18    3    2     -1.45      0.00
  -17    3    2     -1.63      0.00
  -16    3    2     -1.37      0.00
  -15    3    2      1.36      0.00
  -14    3    2      2.60      0.00
  -13    3    2      1.35      0.00
  -12    3    2      0.17      0.00
  -11    3    2     -0.59      0.00
  -10    3    2      0.43      0.00
   -9    3    2      0.10      0.00
   -8    3    2     -1.18      0.00
   -7    3    2     -6.73      0.00
   -6    3    2     13.48      0.00
   -5    3    2     -0.05      0.00
   -4    3    2     -6.30      0.00
   -3    3    2      5.56      0.00
   -2    3    2      5.16      0.00
   -1    3    2      3.78      0.00
    0    3    2    -71.81      0.00
    1    3    2     30.74      0.00
    2    3    2     27.27      0.00
    3    3    2     -8.20      0.00
    4    3    2      4.40      0.00
    5    3    2     -8.19      0.00
    6    3    2     15.02      0.00
    7    3    2     -5.18      0.00
    8    3    2     -5.07      0.00
    9    3    2      1.03      0.00
   10    3    2      2.20      0.00
   11    3    2      2.09      0.00
   12    3    2     -0.69      0.00
   13    3    2     -0.33      0.00
   14    3    2     -1.52      0.00
   15    3    2     -1.72      0.00
   16    3    2      0.67      0.00
   17    3    2      0.41      0.00
  -17    4    2     -0.48      0.00
  -16    4    2     -0.83      0.00
  -15    4    2     -2.12      0.00
  -14    4    2      2.94      0.00
  -13    4    2      1.77      0.00
  -12    4    2      0.05      0.00
  -11    4    2      1.99      0.00
  -10    4    2      1.68      0.00
   -9    4    2     -2.93      0.00
   -8    4    2     -4.37      0.00
   -7    4    2      4.36      0.00
   -6    4    2     -5.49      0.00
   -5    4    2     -3.73      0.00
   -4    4    2      6.64      0.00
   -3    4    2      6.48      0.00
   -2    4    2     10.63      0.00
   -1    4    2    -35.44      0.00
    0    4    2     13.68      0.00
    1    4    2     -4.21      0.00
    2    4    2     -5.27      0.00
    3    4    2     22.30      0.00
    4    4    2     -9.59      0.00
    5    4    2      4.40      0.00
    6    4    2     -2.49      0.00
    7    4    2      3.14      0.00
    8    4    2     -1.40      0.00
    9    4    2     -4.67      0.00
   10    4    2      0.03      0.00
   11    4    2      0.72      0.00
   12    4    2      1.42      0.00
   13    4    2      0.41      0.00
   14    4    2     -1.46      0.00
   15    4    2     -1.62      0.00
   16    4    2     -2.06      0.00
   17    4    2     -1.28      0.00
  -17    5    2      1.07      0.00
  -16    5    2     -2.01      0.00
  -15    5    2      0.53      0.00
  -14    5    2     -0.07      0.00
  -13    5    2      2.67      0.00
  -12    5    2      1.89      0.00
  -11    5    2     -0.44      0.00
  -10    5    2      1.74      0.00
   -9    5    2      2.87      0.00
   -8    5    2      0.56      0.00
   -7    5    2     -9.81      0.00
   -6    5    2     -1.25      0.00
   -5    5    2      5.87      0.00
   -4    5    2     -6.25      0.00
   -3    5    2     -1.36      0.00
   -2    5    2      4.53      0.00
   -1    5    2     20.41      0.00
    0    5    2    -29.65      0.00
    1    5    2    -15.78      0.00
    2    5    2     30.47      0.00
    3    5    2      2.18      0.00
    4    5    2      5.04      0.00
    5    5    2     -3.80      0.00
    6    5    2      5.54      0.00
    7    5    2      3.51      0.00
    8    5    2     -4.88      0.00
    9    5    2     -4.55      0.00
   10    5    2     -0.73      0.00
   11    5    2      2.26      0.00
   12    5    2      1.04      0.00
   13    5    2      1.32      0.00
   14    5    2     -1.11      0.00
   15    5    2     -2.99      0.00
   16    5    2      2.21      0.00
  -16    6    2     -0.06      0.00
  -15    6    2     -3.97      0.00
  -14    6    2      0.34      0.00
  -13    6    2      2.92      0.00
  -12    6    2      1.38      0.00
  -11    6    2      2.50      0.00
  -10    6    2      3.93      0.00
   -9    6    2      2.02      0.00
   -8    6    2     -2.36      0.00
   -7    6    2      1.64      0.00
   -6    6    2     -3.27      0.00
   -5    6    2     -8.55      0.00
   -4    6    2     -3.70      0.00
   -3    6    2      2.32      0.00
   -2    6    2     11.93      0.00
   -1    6    2    -13.85      0.00
    0    6    2     -4.04      0.00
    1    6    2      6.54      0.00
    2    6    2    -10.07      0.00
    3    6    2     15.67      0.00
    4    6    2      6.07      0.00
    5    6    2     -0.47      0.00
    6    6    2      3.47      0.00
    7    6    2      0.39      0.00
    8    6    2      0.88      0.00
    9    6    2     -4.06      0.00
   10    6    2     -0.75      0.00
   11    6    2      0.71      0.00
   12    6    2      0.49      0.00
   13    6    2      1.41      0.00
   14    6    2      0.86      0.00
   15    6    2      2.64      0.00
   16    6    2     -1.15      0.00
  -16    7    2      0.52      0.00
  -15    7    2      0.66      0.00
  -14    7    2     -1.49      0.00
  -13    7    2      1.52      0.00
  -12    7    2      1.77      0.00
  -11    7    2      1.29      0.00
  -10    7    2      0.28      0.00
   -9    7    2      4.32      0.00
   -8    7    2      6.60      0.00
   -7    7    2     -4.62      0.00
   -6    7    2     -5.31      0.00
   -5    7    2      2.50      0.00
   -4    7    2     -0.40      0.00
   -3    7    2     -6.36      0.00
   -2    7    2     -7.08      0.00
   -1    7    2     15.52      0.00
    0    7    2     -6.46      0.00
    1    7    2    -23.50      0.00
    2    7    2      7.53      0.00
    3    7    2      9.28      0.00
    4    7    2      3.59      0.00
    5    7    2      1.66      0.00
    6    7    2     -0.55      0.00
    7    7    2      5.96      0.00
    8    7    2     -0.40      0.00
    9    7    2     -3.77      0.00
   10    7    2     -2.95      0.00
   11    7    2     -0.02      0.00
   12    7    2      0.72      0.00
   13    7    2      3.12      0.00
   14    7    2      0.35      0.00
   15    7    2     -2.37      0.00
  -15    8    2     -2.72      0.00
  -14    8    2     -0.25      0.00
  -13    8    2      0.22      0.00
  -12    8    2      2.14      0.00
  -11    8    2     -0.06      0.00
  -10    8    2      2.78      0.00
   -9    8    2      3.99      0.00
   -8    8    2     -0.34      0.00
   -7    8    2      3.29      0.00
   -6    8    2      0.42      0.00
   -5    8    2     -2.32      0.00
   -4    8    2     -3.37      0.00
   -3    8    2     -3.59      0.00
   -2    8    2      9.72      0.00
   -1    8    2     -5.63      0.00
    0    8    2     -6.82      0.00
    1    8    2      1.15      0.00
    2    8    2     -8.25      0.00
    3    8    2      2.31      0.00
    4    8    2      6.06      0.00
    5    8    2      0.16      0.00
    6    8    2      3.11      0.00
    7    8    2      1.75      0.00
    8    8    2      1.27      0.00
    9    8    2     -2.13      0.00
   10    8    2     -1.88      0.00
   11    8    2     -1.89      0.00
   12    8    2      0.53      0.00
   13    8    2     -0.59      0.00
   14    8    2      1.37      0.00
   15    8    2      3.60      0.00
  -14    9    2     -1.47      0.00
  -13    9    2      1.44      0.00
  -12    9    2      0.03      0.00
  -11    9    2      0.60      0.00
  -10    9    2      0.75      0.00
   -9    9    2     -0.89      0.00
   -8    9    2      7.37      0.00
   -7    9    2      2.17      0.00
   -6    9    2     -4.17      0.00
   -5    9    2     -0.13      0.00
   -4    9    2      1.95      0.00
   -3    9    2      0.76      0.00
   -2    9    2    -10.09      0.00
   -1    9    2      6.68      0.00
    0    9    2      4.98      0.00
    1    9    2    -13.09      0.00
    2    9    2     -4.99      0.00
    3    9    2      3.05      0.00
    4    9    2      1.14      0.00
    5    9    2      1.40      0.00
    6    9    2     -0.68      0.00
    7    9    2      3.36      0.00
    8    9    2      3.85      0.00
    9    9    2     -0.16      0.00
   10    9    2     -4.60      0.00
   11    9    2      0.16      0.00
   12    9    2     -2.34      0.00
   13    9    2      2.12      0.00
   14    9    2      3.90      0.00
  -13   10    2     -0.57      0.00
  -12   10    2      2.45      0.00
  -11   10    2      3.41      0.00
  -10   10    2     -1.28      0.00
   -9   10    2      3.71      0.00
   -8   10    2     -0.78      0.00
   -7   10    2     -0.27      0.00
   -6   10    2      1.77      0.00
   -5   10    2     -1.73      0.00
   -4   10    2      0.50      0.00
   -3   10    2     -4.54      0.00
   -2   10    2      4.73      0.00
   -1   10    2      0.54      0.00
    0   10    2     -5.03      0.00
    1   10    2     -0.59      0.00
    2   10    2     -3.25      0.00
    3   10    2     -1.91      0.00
    4   10    2      0.81      0.00
    5   10    2     -0.58      0.00
    6   10    2     -1.05      0.00
    7   10    2      0.19      0.00
    8   10    2      3.90      0.00
    9   10    2     -0.93      0.00
   10   10    2      1.99      0.00
   11   10    2     -0.70      0.00
   12   10    2     -2.84      0.00
   13   10    2      1.34      0.00
  -12   11    2      2.74      0.00
  -11   11    2     -0.54      0.00
  -10   11    2      3.15      0.00
   -9   11    2     -2.78      0.00
   -8   11    2      0.73      0.00
   -7   11    2      4.86      0.00
   -6   11    2     -3.45      0.00
   -5   11    2     -2.97      0.00
   -4   11    2     -1.43      0.00
   -3   11    2      4.76      0.00
   -2   11    2     -3.96      0.00
   -1   11    2     -0.04      0.00
    0   11    2      8.40      0.00
    1   11    2     -4.44      0.00
    2   11    2     -3.63      0.00
    3   11    2     -1.30      0.00
    4   11    2     -1.24      0.00
    5   11    2      1.24      0.00
    6   11    2     -2.84      0.00
    7   11    2      0.15      0.00
    8   11    2      0.60      0.00
    9   11    2      1.68      0.00
   10   11    2     -2.34      0.00
   11   11    2     -1.05      0.00
   12   11    2     -0.76      0.00
  -11   12    2      3.03      0.00
  -10   12    2     -1.06      0.00
   -9   12    2      1.20      0.00
   -8   12    2      3.20      0.00
   -7   12    2     -0.47      0.00
   -6   12    2      1.19      0.00
   -5   12    2     -4.01      0.00
   -4   12    2      2.25      0.00
   -3   12    2     -3.41      0.00
   -2   12    2      1.38      0.00
   -1   12    2      4.37      0.00
    0   12    2     -1.14      0.00
    1   12    2     -0.39      0.00
    2   12    2      0.73      0.00
    3   12    2     -3.11      0.00
    4   12    2      2.77      0.00
    5   12    2     -2.86      0.00
    6   12    2     -0.11      0.00
    7   12    2     -2.84      0.00
    8   12    2     -0.55      0.00
    9   12    2     -1.07      0.00
   10   12    2     -1.36      0.00
   -9   13    2     -0.62      0.00
   -8   13    2     -0.23      0.00
   -7   13    2      5.17      0.00
   -6   13    2      3.09      0.00
   -5   13    2      0.15      0.00
   -4   13    2     -3.86      0.00
   -3   13    2      3.35      0.00
   -2   13    2     -0.55      0.00
   -1   13    2     -1.55      0.00
    0   13    2      1.90      0.00
    1   13    2      3.39      0.00
    2   13    2     -2.55      0.00
    3   13    2      2.29      0.00
    4   13    2     -4.20      0.00
    5   13    2      1.87      0.00
    6   13    2      2.98      0.00
    7   13    2     -3.77      0.00
    8   13    2      0.98      0.00
   -7   14    2      2.51      0.00
   -6   14    2      0.87      0.00
   -5   14    2      0.07      0.00
   -4   14    2      0.85      0.00
   -3   14    2      2.11      0.00
   -2   14    2     -1.08      0.00
   -1   14    2     -0.12      0.00
    0   14    2      0.19      0.00
    1   14    2     -3.24      0.00
    2   14    2      1.46      0.00
    3   14    2      1.24      0.00
    4   14    2     -0.15      0.00
    5   14    2      4.93      0.00
    6   14    2     -1.35      0.00
   -2   15    2      0.79      0.00
   -1   15    2     -1.15      0.00
    0   15    2     -1.86      0.00
    1   15    2     -2.34      0.00
    2   15    2      0.18      0.00
  -17    0    3      1.20      0.00
  -15    0    3     -2.12      0.00
  -13    0    3     -2.89      0.00
  -11    0    3     -2.07      0.00
   -9    0    3      0.22      0.00
   -7    0    3     -7.94      0.00
   -5    0    3     14.57      0.00
   -3    0    3     -0.71      0.00
   -1    0    3     98.01      0.00
    1    0    3    -54.19      0.00
    3    0    3    -13.66      0.00
    5    0    3    -10.91      0.00
    7    0    3      8.49      0.00
    9    0    3      2.03      0.00
   11    0    3      1.94      0.00
   13    0    3     -0.25      0.00
   15    0    3     -3.29      0.00
   17    0    3      0.68      0.00
  -18    1    3      3.34      0.00
  -17    1    3     -0.27      0.00
  -16    1    3     -0.17      0.00
  -15    1    3     -0.77      0.00
  -14    1    3     -5.86      0.00
  -13    1    3     -0.67      0.00
  -12    1    3     -1.40      0.00
  -11    1    3      0.59      0.00
  -10    1    3     -0.82      0.00
   -9    1    3      2.00      0.00
   -8    1    3     -2.20      0.00
   -7    1    3      0.33      0.00
   -6    1    3      2.13      0.00
   -5    1    3    -10.94      0.00
   -4    1    3      7.91      0.00
   -3    1    3    -10.44      0.00
   -2    1    3     31.28      0.00
   -1    1    3      9.39      0.00
    0    1    3     17.96      0.00
    1    1    3     40.78      0.00
    2    1    3    -51.43      0.00
    3    1    3      3.59      0.00
    4    1    3     -2.35      0.00
    5    1    3     -0.16      0.00
    6    1    3     -5.96      0.00
    7    1    3     -6.63      0.00
    8    1    3     10.81      0.00
    9    1    3      2.95      0.00
   10    1    3     -2.80      0.00
   11    1    3     -0.42      0.00
   12    1    3     -0.97      0.00
   13    1    3     -0.31      0.00
   14    1    3     -0.16      0.00
   15    1    3      2.28      0.00
   16    1    3     -0.45      0.00
   17    1    3      1.08      0.00
  -18    2    3      0.90      0.00
  -17    2    3      1.60      0.00
  -16    2    3      1.71      0.00
  -15    2    3     -2.27      0.00
  -14    2    3     -1.24      0.00
  -13    2    3     -3.13      0.00
  -12    2    3      0.21      0.00
  -11    2    3     -0.19      0.00
  -10    2    3     -0.58      0.00
   -9    2    3     -0.49      0.00
   -8    2    3      5.48      0.00
   -7    2    3      0.96      0.00
   -6    2    3    -13.80      0.00
   -5    2    3     13.22      0.00
   -4    2    3     -3.33      0.00
   -3    2    3     -5.92      0.00
   -2    2    3    -27.24      0.00
   -1    2    3     26.80      0.00
    0    2    3     63.40      0.00
    1    2    3    -56.74      0.00
    2    2    3      6.55      0.00
    3    2    3    -11.01      0.00
    4    2    3      1.41      0.00
    5    2    3      1.33      0.00
    6    2    3    -11.14      0.00
    7    2    3      7.12      0.00
    8    2    3     -0.24      0.00
    9    2    3     -1.02      0.00
   10    2    3     -0.22      0.00
   11    2    3     -1.55      0.00
   12    2    3      0.83      0.00
   13    2    3     -1.65      0.00
   14    2    3      1.51      0.00
   15    2    3     -0.54      0.00
   16    2    3     -0.45      0.00
   17    2    3      1.94      0.00
  -18    3    3      0.12      0.00
  -17    3    3      2.20      0.00
  -16    3    3      1.75      0.00
  -15    3    3      2.55      0.00
  -14    3    3     -2.82      0.00
  -13    3    3     -2.49      0.00
  -12    3    3     -0.36      0.00
  -11    3    3     -1.41      0.00
  -10    3    3     -0.53      0.00
   -9    3    3      2.59      0.00
   -8    3    3      1.83      0.00
   -7    3    3     -0.06      0.00
   -6    3    3     13.10      0.00
   -5    3    3    -11.14      0.00
   -4    3    3      1.84      0.00
   -3    3    3     -6.05      0.00
   -2    3    3     -1.49      0.00
   -1    3    3      9.89      0.00
    0    3    3    -23.13      0.00
    1    3    3     41.57      0.00
    2    3    3    -22.61      0.00
    3    3    3    -18.02      0.00
    4    3    3      6.47      0.00
    5    3    3     -2.95      0.00
    6    3    3      5.29      0.00
    7    3    3    -10.10      0.00
    8    3    3      4.12      0.00
    9    3    3      6.16      0.00
   10    3    3     -2.13      0.00
   11    3    3     -0.82      0.00
   12    3    3     -1.87      0.00
   13    3    3     -0.75      0.00
   14    3    3      1.29      0.00
   15    3    3      2.13      0.00
   16    3    3      2.26      0.00
   17    3    3      1.50      0.00
  -17    4    3     -0.25      0.00
  -16    4    3      1.75      0.00
  -15    4    3      1.17      0.00
  -14    4    3      0.58      0.00
  -13    4    3     -2.63      0.00
  -12    4    3     -0.97      0.00
  -11    4    3     -0.48      0.00
  -10    4    3     -2.66      0.00
   -9    4    3     -3.06      0.00
   -8    4    3      2.91      0.00
   -7    4    3     10.67      0.00
   -6    4    3     -5.97      0.00
   -5    4    3      3.66      0.00
   -4    4    3      8.09      0.00
   -3    4    3      1.28      0.00
   -2    4    3    -14.51      0.00
   -1    4    3    -17.01      0.00
    0    4    3     48.24      0.00
    1    4    3    -15.03      0.00
    2    4    3    -14.77      0.00
    3    4    3     -1.10      0.00
    4    4    3    -12.05      0.00
    5    4    3      7.99      0.00
    6    4    3    -10.13      0.00
    7    4    3      2.54      0.00
    8    4    3      3.74      0.00
    9    4    3      2.12      0.00
   10    4    3      2.11      0.00
   11    4    3     -1.17      0.00
   12    4    3     -0.12      0.00
   13    4    3     -1.36      0.00
   14    4    3      1.11      0.00
   15    4    3      1.65      0.00
   16    4    3     -0.31      0.00
  -17    5    3      0.44      0.00
  -16    5    3      0.60      0.00
  -15    5    3      4.82      0.00
  -14    5    3     -0.58      0.00
  -13    5    3     -1.62      0.00
  -12    5    3     -2.56      0.00
  -11    5    3     -2.88      0.00
  -10    5    3     -2.87      0.00
   -9    5    3     -2.04      0.00
   -8    5    3     -0.67      0.00
   -7    5    3     -2.15      0.00
   -6    5    3     11.92      0.00
   -5    5    3      5.39      0.00
   -4    5    3     -2.69      0.00
   -3    5    3      2.44      0.00
   -2    5    3     -3.82      0.00
   -1    5    3     11.46      0.00
    0    5    3    -18.74      0.00
    1    5    3     15.63      0.00
    2    5    3     10.88      0.00
    3    5    3    -27.09      0.00
    4    5    3     -0.96      0.00
    5    5    3     -6.15      0.00
    6    5    3      2.62      0.00
    7    5    3     -5.89      0.00
    8    5    3     -1.06      0.00
    9    5    3      5.58      0.00
   10    5    3      2.47      0.00
   11    5    3      0.33      0.00
   12    5    3     -1.20      0.00
   13    5    3     -1.57      0.00
   14    5    3     -2.18      0.00
   15    5    3      0.22      0.00
   16    5    3      1.68      0.00
  -17    6    3     -2.66      0.00
  -16    6    3      1.90      0.00
  -15    6    3      0.68      0.00
  -14    6    3      4.32      0.00
  -13    6    3     -1.42      0.00
  -12    6    3     -2.01      0.00
  -11    6    3     -0.22      0.00
  -10    6    3     -2.31      0.00
   -9    6    3     -6.16      0.00
   -8    6    3     -4.81      0.00
   -7    6    3      6.21      0.00
   -6    6    3      1.53      0.00
   -5    6    3     -3.13      0.00
   -4    6    3      7.65      0.00
   -3    6    3      9.89      0.00
   -2    6    3      0.16      0.00
   -1    6    3    -18.46      0.00
    0    6    3     20.48      0.00
    1    6    3     15.86      0.00
    2    6    3    -13.58      0.00
    3    6    3      1.62      0.00
    4    6    3    -11.46      0.00
    5    6    3      0.99      0.00
    6    6    3     -4.27      0.00
    7    6    3     -4.12      0.00
    8    6    3      0.99      0.00
    9    6    3      2.52      0.00
   10    6    3      3.65      0.00
   11    6    3      0.02      0.00
   12    6    3     -1.04      0.00
   13    6    3     -1.57      0.00
   14    6    3      0.15      0.00
   15    6    3      1.53      0.00
   16    6    3     -3.94      0.00
  -16    7    3     -1.22      0.00
  -15    7    3      3.84      0.00
  -14    7    3      0.88      0.00
  -13    7    3      1.30      0.00
  -12    7    3     -1.45      0.00
  -11    7    3     -0.49      0.00
  -10    7    3     -2.02      0.00
   -9    7    3     -1.02      0.00
   -8    7    3     -2.85      0.00
   -7    7    3     -6.24      0.00
   -6    7    3      2.44      0.00
   -5    7    3      7.03      0.00
   -4    7    3     -0.98      0.00
   -3    7    3     -0.30      0.00
   -2    7    3     -0.99      0.00
   -1    7    3     10.78      0.00
    0    7    3     -5.37      0.00
    1    7    3      2.59      0.00
    2    7    3     20.68      0.00
    3    7    3     -8.00      0.00
    4    7    3     -5.54      0.00
    5    7    3     -2.68      0.00
    6    7    3     -1.29      0.00
    7    7    3     -0.74      0.00
    8    7    3     -4.33      0.00
    9    7    3      2.81      0.00
   10    7    3      2.59      0.00
   11    7    3      0.41      0.00
   12    7    3      2.18      0.00
   13    7    3      0.46      0.00
   14    7    3     -2.33      0.00
   15    7    3     -2.09      0.00
  -15    8    3     -0.37      0.00
  -14    8    3      4.35      0.00
  -13    8    3      0.89      0.00
  -12    8    3      1.70      0.00
  -11    8    3     -0.94      0.00
  -10    8    3      2.09      0.00
   -9    8    3     -2.82      0.00
   -8    8    3     -7.35      0.00
   -7    8    3      0.99      0.00
   -6    8    3      2.80      0.00
   -5    8    3     -2.96      0.00
   -4    8    3     -2.32      0.00
   -3    8    3      4.76      0.00
   -2    8    3      6.83      0.00
   -1    8    3    -13.73      0.00
    0    8    3      2.06      0.00
    1    8    3     16.17      0.00
    2    8    3     -0.67      0.00
    3    8    3      2.51      0.00
    4    8    3     -2.96      0.00
    5    8    3     -2.15      0.00
    6    8    3      0.27      0.00
    7    8    3     -5.58      0.00
    8    8    3     -2.76      0.00
    9    8    3      1.14      0.00
   10    8    3      3.23      0.00
   11    8    3      2.39      0.00
   12    8    3      2.07      0.00
   13    8    3     -2.73      0.00
   14    8    3      0.44      0.00
  -15    9    3      5.99      0.00
  -14    9    3      2.14      0.00
  -13    9    3      2.31      0.00
  -12    9    3     -2.04      0.00
  -11    9    3      0.85      0.00
  -10    9    3     -1.65      0.00
   -9    9    3     -0.78      0.00
   -8    9    3      1.68      0.00
   -7    9    3     -5.49      0.00
   -6    9    3     -1.39      0.00
   -5    9    3      4.02      0.00
   -4    9    3      1.08      0.00
   -3    9    3     -0.95      0.00
   -2    9    3     -4.52      0.00
   -1    9    3      5.96      0.00
    0    9    3     -0.77      0.00
    1    9    3     -4.65      0.00
    2    9    3     11.11      0.00
    3    9    3      2.55      0.00
    4    9    3     -2.34      0.00
    5    9    3      0.87      0.00
    6    9    3     -0.88      0.00
    7    9    3     -0.09      0.00
    8    9    3     -4.25      0.00
    9    9    3     -1.97      0.00
   10    9    3      0.32      0.00
   11    9    3      2.94      0.00
   12    9    3      0.78      0.00
   13    9    3      3.48      0.00
  -14   10    3      3.00      0.00
  -13   10    3     -0.17      0.00
  -12   10    3      1.05      0.00
  -11   10    3     -1.69      0.00
  -10   10    3     -0.96      0.00
   -9   10    3      2.67      0.00
   -8   10    3     -4.89      0.00
   -7   10    3     -2.49      0.00
   -6   10    3      3.53      0.00
   -5   10    3      1.63      0.00
   -4   10    3     -1.88      0.00
   -3   10    3     -2.09      0.00
   -2   10    3      6.68      0.00
   -1   10    3     -6.20      0.00
    0   10    3     -6.23      0.00
    1   10    3      7.98      0.00
    2   10    3      2.76      0.00
    3   10    3      1.09      0.00
    4   10    3      1.30      0.00
    5   10    3     -0.53      0.00
    6   10    3      1.87      0.00
    7   10    3     -0.70      0.00
    8   10    3     -2.94      0.00
    9   10    3     -2.36      0.00
   10   10    3      3.30      0.00
   11   10    3     -0.73      0.00
   12   10    3      3.25      0.00
  -12   11    3     -0.82      0.00
  -11   11    3     -1.89      0.00
  -10   11    3      0.83      0.00
   -9   11    3     -3.00      0.00
   -8   11    3      1.49      0.00
   -7   11    3     -0.89      0.00
   -6   11    3     -3.57      0.00
   -5   11    3      2.91      0.00
   -4   11    3      1.78      0.00
   -3   11    3      1.58      0.00
   -2   11    3     -5.24      0.00
   -1   11    3     -0.78      0.00
    0   11    3      1.42      0.00
    1   11    3     -5.47      0.00
    2   11    3      3.80      0.00
    3   11    3      1.08      0.00
    4   11    3      0.29      0.00
    5   11    3      0.77      0.00
    6   11    3      0.21      0.00
    7   11    3      2.56      0.00
    8   11    3     -2.19      0.00
    9   11    3     -0.54      0.00
   10   11    3     -0.12      0.00
   11   11    3      1.79      0.00
  -11   12    3      1.54      0.00
  -10   12    3     -1.98      0.00
   -9   12    3      2.95      0.00
   -8   12    3     -1.60      0.00
   -7   12    3     -7.13      0.00
   -6   12    3     -0.38      0.00
   -5   12    3      1.32      0.00
   -4   12    3      4.07      0.00
   -3   12    3     -4.85      0.00
   -2   12    3      3.91      0.00
   -1   12    3     -0.19      0.00
    0   12    3     -8.61      0.00
    1   12    3      1.86      0.00
    2   12    3      0.63      0.00
    3   12    3      0.39      0.00
    4   12    3      3.56      0.00
    5   12    3     -4.87      0.00
    6   12    3      1.69      0.00
    7   12    3     -0.97      0.00
    8   12    3     -1.19      0.00
    9   12    3     -0.79      0.00
   10   12    3      2.59      0.00
   -9   13    3     -1.07      0.00
   -8   13    3     -0.61      0.00
   -7   13    3     -0.99      0.00
   -6   13    3     -4.33      0.00
   -5   13    3      1.31      0.00
   -4   13    3     -2.46      0.00
   -3   13    3      4.74      0.00
   -2   13    3     -2.53      0.00
   -1   13    3     -0.20      0.00
    0   13    3      0.98      0.00
    1   13    3      0.32      0.00
    2   13    3     -2.55      0.00
    3   13    3      2.44      0.00
    4   13    3     -5.15      0.00
    5   13    3      3.06      0.00
    6   13    3     -4.11      0.00
    7   13    3     -0.17      0.00
    8   13    3      0.95      0.00
   -7   14    3     -1.28      0.00
   -6   14    3     -2.57      0.00
   -5   14    3     -0.15      0.00
   -4   14    3      4.43      0.00
   -3   14    3     -2.17      0.00
   -2   14    3      1.23      0.00
   -1   14    3      1.83      0.00
    0   14    3      1.41      0.00
    1   14    3     -0.21      0.00
    2   14    3      3.38      0.00
    3   14    3     -2.41      0.00
    4   14    3      3.62      0.00
    5   14    3     -1.76      0.00
    6   14    3     -4.58      0.00
   -2   15    3      1.06      0.00
   -1   15    3      1.21      0.00
    0   15    3      1.32      0.00
    1   15    3      4.54      0.00
  -18    0    4     -2.37      0.00
  -16    0    4     -0.60      0.00
  -14    0    4      5.38      0.00
  -12    0    4      0.70      0.00
  -10    0    4      0.45      0.00
   -8    0    4     -3.21      0.00
   -6    0    4      8.54      0.00
   -4    0    4     -7.81      0.00
   -2    0    4     -1.71      0.00
    0    0    4    -67.65      0.00
    2    0    4     35.64      0.00
    4    0    4      0.46      0.00
    6    0    4     11.48      0.00
    8    0    4    -11.51      0.00
   10    0    4      1.76      0.00
   12    0    4     -0.79      0.00
   14    0    4     -3.60      0.00
   16    0    4      1.11      0.00
  -18    1    4      0.43      0.00
  -17    1    4     -2.62      0.00
  -16    1    4      0.45      0.00
  -15    1    4      0.24      0.00
  -14    1    4      0.75      0.00
  -13    1    4      5.13      0.00
  -12    1    4     -0.35      0.00
  -11    1    4      0.30      0.00
  -10    1    4      0.03      0.00
   -9    1    4     -0.83      0.00
   -8    1    4     -3.40      0.00
   -7    1    4      3.09      0.00
   -6    1    4      1.26      0.00
   -5    1    4     -6.70      0.00
   -4    1    4      3.52      0.00
   -3    1    4     10.06      0.00
   -2    1    4     25.33      0.00
   -1    1    4    -50.49      0.00
    0    1    4     -9.04      0.00
    1    1    4     18.09      0.00
    2    1    4     -9.22      0.00
    3    1    4     19.04      0.00
    4    1    4     -2.45      0.00
    5    1    4      3.99      0.00
    6    1    4      0.82      0.00
    7    1    4     -0.67      0.00
    8    1    4      1.79      0.00
    9    1    4     -3.28      0.00
   10    1    4     -0.03      0.00
   11    1    4      0.08      0.00
   12    1    4      0.82      0.00
   13    1    4      0.13      0.00
   14    1    4     -0.21      0.00
   15    1    4      1.25      0.00
   16    1    4     -1.43      0.00
   17    1    4     -1.99      0.00
  -18    2    4     -2.62      0.00
  -17    2    4     -1.58      0.00
  -16    2    4     -3.05      0.00
  -15    2    4     -2.46      0.00
  -14    2    4      4.08      0.00
  -13    2    4      1.13      0.00
  -12    2    4      1.84      0.00
  -11    2    4     -0.40      0.00
  -10    2    4      0.70      0.00
   -9    2    4     -0.27      0.00
   -8    2    4     -1.32      0.00
   -7    2    4     -8.47      0.00
   -6    2    4     -4.75      0.00
   -5    2    4     12.91      0.00
   -4    2    4    -11.40      0.00
   -3    2    4      3.77      0.00
   -2    2    4      1.39      0.00
   -1    2    4     27.72      0.00
    0    2    4    -11.46      0.00
    1    2    4    -39.89      0.00
    2    2    4     41.58      0.00
    3    2    4      5.16      0.00
    4    2    4      3.62      0.00
    5    2    4     -4.72      0.00
    6    2    4      3.11      0.00
    7    2    4      8.36      0.00
    8    2    4     -7.49      0.00
    9    2    4     -3.51      0.00
   10    2    4      2.99      0.00
   11    2    4      1.26      0.00
   12    2    4      1.15      0.00
   13    2    4      0.77      0.00
   14    2    4     -0.52      0.00
   15    2    4     -3.35      0.00
   16    2    4     -0.05      0.00
   17    2    4     -0.18      0.00
  -18    3    4      0.99      0.00
  -17    3    4     -0.34      0.00
  -16    3    4     -2.94      0.00
  -15    3    4     -1.61      0.00
  -14    3    4     -2.56      0.00
  -13    3    4      2.62      0.00
  -12    3    4      1.45      0.00
  -11    3    4      0.61      0.00
  -10    3    4      2.41      0.00
   -9    3    4      2.59      0.00
   -8    3    4     -4.99      0.00
   -7    3    4     -6.00      0.00
   -6    3    4      2.99      0.00
   -5    3    4    -14.91      0.00
   -4    3    4      1.30      0.00
   -3    3    4     -6.25      0.00
   -2    3    4     22.51      0.00
   -1    3    4     -5.35      0.00
    0    3    4    -29.09      0.00
    1    3    4     29.42      0.00
    2    3    4    -11.79      0.00
    3    3    4     15.46      0.00
    4    3    4      8.26      0.00
    5    3    4     -3.04      0.00
    6    3    4      5.38      0.00
    7    3    4     -4.73      0.00
    8    3    4      1.23      0.00
    9    3    4     -1.73      0.00
   10    3    4     -3.53      0.00
   11    3    4      1.01      0.00
   12    3    4     -0.62      0.00
   13    3    4      1.27      0.00
   14    3    4     -0.19      0.00
   15    3    4     -1.04      0.00
   16    3    4      1.11      0.00
  -17    4    4      0.41      0.00
  -16    4    4     -1.21      0.00
  -15    4    4     -4.12      0.00
  -14    4    4     -0.38      0.00
  -13    4    4      1.44      0.00
  -12    4    4      2.10      0.00
  -11    4    4      1.97      0.00
  -10    4    4      2.76      0.00
   -9    4    4      2.85      0.00
   -8    4    4      3.31      0.00
   -7    4    4     -2.90      0.00
   -6    4    4    -17.71      0.00
   -5    4    4      6.61      0.00
   -4    4    4     -4.33      0.00
   -3    4    4     -6.01      0.00
   -2    4    4     -7.26      0.00
   -1    4    4      7.34      0.00
    0    4    4     19.83      0.00
    1    4    4    -41.18      0.00
    2    4    4     10.37      0.00
    3    4    4     18.55      0.00
    4    4    4      3.71      0.00
    5    4    4      6.36      0.00
    6    4    4     -3.37      0.00
    7    4    4     10.29      0.00
    8    4    4     -1.26      0.00
    9    4    4     -7.86      0.00
   10    4    4     -1.13      0.00
   11    4    4     -1.46      0.00
   12    4    4      0.86      0.00
   13    4    4      2.29      0.00
   14    4    4      1.16      0.00
   15    4    4     -0.95      0.00
   16    4    4     -1.76      0.00
  -17    5    4      2.27      0.00
  -16    5    4     -1.34      0.00
  -15    5    4     -2.43      0.00
  -14    5    4     -4.54      0.00
  -13    5    4      0.21      0.00
  -12    5    4      1.52      0.00
  -11    5    4      1.39      0.00
  -10    5    4      3.41      0.00
   -9    5    4      6.25      0.00
   -8    5    4      3.39      0.00
   -7    5    4     -5.00      0.00
   -6    5    4      3.70      0.00
   -5    5    4     -7.86      0.00
   -4    5    4     -7.28      0.00
   -3    5    4     -7.15      0.00
   -2    5    4      2.87      0.00
   -1    5    4     10.72      0.00
    0    5    4    -29.43      0.00
    1    5    4      9.54      0.00
    2    5    4     -3.26      0.00
    3    5    4     -3.26      0.00
    4    5    4     18.00      0.00
    5    5    4     -1.89      0.00
    6    5    4      8.94      0.00
    7    5    4     -0.07      0.00
    8    5    4      1.02      0.00
    9    5    4     -0.64      0.00
   10    5    4     -5.08      0.00
   11    5    4     -0.08      0.00
   12    5    4     -0.07      0.00
   13    5    4      1.52      0.00
   14    5    4      0.10      0.00
   15    5    4      0.23      0.00
   16    5    4      1.13      0.00
  -17    6    4      0.11      0.00
  -16    6    4      2.30      0.00
  -15    6    4     -4.22      0.00
  -14    6    4     -2.35      0.00
  -13    6    4     -2.17      0.00
  -12    6    4      0.72      0.00
  -11    6    4      0.87      0.00
  -10    6    4     -0.34      0.00
   -9    6    4      1.86      0.00
   -8    6    4      6.09      0.00
   -7    6    4      7.61      0.00
   -6    6    4    -10.31      0.00
   -5    6    4     -3.56      0.00
   -4    6    4      5.34      0.00
   -3    6    4     -4.16      0.00
   -2    6    4     -8.09      0.00
   -1    6    4     -7.97      0.00
    0    6    4     17.96      0.00
    1    6    4    -20.07      0.00
    2    6    4    -20.64      0.00
    3    6    4     13.42      0.00
    4    6    4     -0.47      0.00
    5    6    4      7.54      0.00
    6    6    4     -3.79      0.00
    7    6    4      6.04      0.00
    8    6    4      3.99      0.00
    9    6    4     -3.05      0.00
   10    6    4     -1.18      0.00
   11    6    4     -2.05      0.00
   12    6    4     -1.59      0.00
   13    6    4     -0.19      0.00
   14    6    4      2.13      0.00
   15    6    4     -0.14      0.00
  -16    7    4     -0.10      0.00
  -15    7    4      0.59      0.00
  -14    7    4     -6.04      0.00
  -13    7    4     -2.29      0.00
  -12    7    4     -1.87      0.00
  -11    7    4     -0.88      0.00
  -10    7    4     -1.13      0.00
   -9    7    4      3.46      0.00
   -8    7    4      4.56      0.00
   -7    7    4     -1.06      0.00
   -6    7    4      2.12      0.00
   -5    7    4      2.90      0.00
   -4    7    4     -3.68      0.00
   -3    7    4     -3.78      0.00
   -2    7    4     -0.74      0.00
   -1    7    4     11.43      0.00
    0    7    4    -13.13      0.00
    1    7    4     -6.80      0.00
    2    7    4      0.37      0.00
    3    7    4    -13.13      0.00
    4    7    4      7.32      0.00
    5    7    4     -0.66      0.00
    6    7    4      4.24      0.00
    7    7    4      2.87      0.00
    8    7    4      1.72      0.00
    9    7    4      1.68      0.00
   10    7    4     -4.67      0.00
   11    7    4     -1.95      0.00
   12    7    4      0.62      0.00
   13    7    4     -1.04      0.00
   14    7    4     -1.04      0.00
   15    7    4     -0.89      0.00
  -15    8    4     -4.34      0.00
  -14    8    4     -1.46      0.00
  -13    8    4     -3.85      0.00
  -12    8    4      0.09      0.00
  -11    8    4     -1.70      0.00
  -10    8    4      0.93      0.00
   -9    8    4     -2.75      0.00
   -8    8    4      1.92      0.00
   -7    8    4      9.10      0.00
   -6    8    4     -1.67      0.00
   -5    8    4     -7.21      0.00
   -4    8    4      4.07      0.00
   -3    8    4      4.17      0.00
   -2    8    4     -0.80      0.00
   -1    8    4     -7.78      0.00
    0    8    4     12.66      0.00
    1    8    4      1.22      0.00
    2    8    4    -18.21      0.00
    3    8    4      1.66      0.00
    4    8    4     -1.33      0.00
    5    8    4      2.68      0.00
    6    8    4     -0.58      0.00
    7    8    4      0.55      0.00
    8    8    4      6.31      0.00
    9    8    4      1.43      0.00
   10    8    4     -1.43      0.00
   11    8    4     -0.22      0.00
   12    8    4     -3.74      0.00
   13    8    4     -3.00      0.00
   14    8    4      2.57      0.00
  -15    9    4      0.75      0.00
  -14    9    4     -3.99      0.00
  -13    9    4     -1.08      0.00
  -12    9    4     -2.20      0.00
  -11    9    4      2.34      0.00
  -10    9    4     -2.09      0.00
   -9    9    4      1.29      0.00
   -8    9    4      4.63      0.00
   -7    9    4     -0.57      0.00
   -6    9    4     -0.06      0.00
   -5    9    4      0.75      0.00
   -4    9    4      0.09      0.00
   -3    9    4     -1.77      0.00
   -2    9    4     -2.65      0.00
   -1    9    4      9.28      0.00
    0    9    4      0.20      0.00
    1    9    4     -6.51      0.00
    2    9    4      3.53      0.00
    3    9    4     -7.31      0.00
    4    9    4     -0.52      0.00
    5    9    4      0.23      0.00
    6    9    4     -1.68      0.00
    7    9    4      1.67      0.00
    8    9    4      2.79      0.00
    9    9    4      2.63      0.00
   10    9    4     -0.32      0.00
   11    9    4     -0.93      0.00
   12    9    4     -3.17      0.00
   13    9    4      0.67      0.00
  -14   10    4      0.00      0.00
  -13   10    4     -1.64      0.00
  -12   10    4      2.24      0.00
  -11   10    4     -1.48      0.00
  -10   10    4      2.86      0.00
   -9   10    4     -0.02      0.00
   -8   10    4     -3.30      0.00
   -7   10    4      6.19      0.00
   -6   10    4      3.71      0.00
   -5   10    4     -4.93      0.00
   -4   10    4     -3.10      0.00
   -3   10    4      2.80      0.00
   -2   10    4      3.26      0.00
   -1   10    4     -4.64      0.00
    0   10    4      4.19      0.00
    1   10    4      8.31      0.00
    2   10    4     -8.38      0.00
    3   10    4     -1.39      0.00
    4   10    4      0.00      0.00
    5   10    4     -1.43      0.00
    6   10    4     -0.64      0.00
    7   10    4     -2.46      0.00
    8   10    4      3.34      0.00
    9   10    4      3.16      0.00
   10   10    4      1.06      0.00
   11   10    4     -2.85      0.00
   12   10    4     -1.15      0.00
  -12   11    4     -2.86      0.00
  -11   11    4      1.23      0.00
  -10   11    4     -0.59      0.00
   -9   11    4     -1.65      0.00
   -8   11    4      4.17      0.00
   -7   11    4      3.65      0.00
   -6   11    4      0.21      0.00
   -5   11    4     -1.09      0.00
   -4   11    4     -0.79      0.00
   -3   11    4     -0.83      0.00
   -2   11    4     -3.75      0.00
   -1   11    4      4.59      0.00
    0   11    4      7.39      0.00
    1   11    4     -4.06      0.00
    2   11    4      2.72      0.00
    3   11    4     -3.47      0.00
    4   11    4      0.10      0.00
    5   11    4      0.67      0.00
    6   11    4     -0.05      0.00
    7   11    4      0.35      0.00
    8   11    4      0.96      0.00
    9   11    4      2.99      0.00
   10   11    4     -1.71      0.00
   11   11    4     -0.29      0.00
  -11   12    4     -1.15      0.00
  -10   12    4     -0.61      0.00
   -9   12    4      1.16      0.00
   -8   12    4     -1.83      0.00
   -7   12    4      1.59      0.00
   -6   12    4      7.18      0.00
   -5   12    4     -0.26      0.00
   -4   12    4     -3.34      0.00
   -3   12    4     -3.36      0.00
   -2   12    4      2.63      0.00
   -1   12    4     -1.28      0.00
    0   12    4     -1.83      0.00
    1   12    4      8.43      0.00
    2   12    4     -3.53      0.00
    3   12    4      1.98      0.00
    4   12    4     -0.79      0.00
    5   12    4     -1.33      0.00
    6   12    4      3.34      0.00
    7   12    4     -2.30      0.00
    8   12    4      2.58      0.00
    9   12    4      4.52      0.00
   -9   13    4     -3.83      0.00
   -8   13    4     -0.63      0.00
   -7   13    4      3.96      0.00
   -6   13    4      0.91      0.00
   -5   13    4      1.28      0.00
   -4   13    4     -4.65      0.00
   -3   13    4      3.39      0.00
   -2   13    4     -5.34      0.00
   -1   13    4     -1.47      0.00
    0   13    4      2.85      0.00
    1   13    4     -2.24      0.00
    2   13    4     -0.40      0.00
    3   13    4     -0.05      0.00
    4   13    4     -4.41      0.00
    5   13    4      6.06      0.00
    6   13    4     -1.83      0.00
    7   13    4      2.55      0.00
    8   13    4      0.77      0.00
   -7   14    4     -0.98      0.00
   -6   14    4      1.89      0.00
   -5   14    4      0.15      0.00
   -4   14    4      1.36      0.00
   -3   14    4     -5.90      0.00
   -2   14    4      1.82      0.00
   -1   14    4     -2.93      0.00
    0   14    4     -2.53      0.00
    1   14    4     -3.64      0.00
    2   14    4     -1.03      0.00
    3   14    4     -3.45      0.00
    4   14    4      2.83      0.00
    5   14    4     -5.41      0.00
  -17    0    5      1.08      0.00
  -15    0    5      1.43      0.00
  -13    0    5     -6.15      0.00
  -11    0    5      1.36      0.00
   -9    0    5      0.03      0.00
   -7    0    5      3.83      0.00
   -5    0    5     -2.99      0.00
   -3    0    5     -8.48      0.00
   -1    0    5     18.22      0.00
    1    0    5     15.89      0.00
    3    0    5    -19.72      0.00
    5    0    5      1.60      0.00
    7    0    5     -3.66      0.00
    9    0    5      7.09      0.00
   11    0    5     -1.35      0.00
   13    0    5     -0.48      0.00
   15    0    5      2.78      0.00
  -18    1    5      2.25      0.00
  -17    1    5      0.95      0.00
  -16    1    5      3.25      0.00
  -15    1    5      0.42      0.00
  -14    1    5     -2.38      0.00
  -13    1    5     -0.88      0.00
  -12    1    5     -2.46      0.00
  -11    1    5      0.20      0.00
  -10    1    5     -0.60      0.00
   -9    1    5     -1.76      0.00
   -8    1    5      5.38      0.00
   -7    1    5      7.34      0.00
   -6    1    5     -4.19      0.00
   -5    1    5     -1.50      0.00
   -4    1    5      9.91      0.00
   -3    1    5      3.22      0.00
   -2    1    5    -17.83      0.00
   -1    1    5    -29.60      0.00
    0    1    5     43.39      0.00
    1    1    5      6.09      0.00
    2    1    5    -26.60      0.00
    3    1    5     -3.87      0.00
    4    1    5     -4.77      0.00
    5    1    5      3.48      0.00
    6    1    5     -6.85      0.00
    7    1    5     -2.40      0.00
    8    1    5      7.61      0.00
    9    1    5      0.47      0.00
   10    1    5     -1.76      0.00
   11    1    5     -1.45      0.00
   12    1    5     -0.51      0.00
   13    1    5     -2.48      0.00
   14    1    5      3.69      0.00
   15    1    5      0.85      0.00
   16    1    5     -1.52      0.00
  -18    2    5     -1.01      0.00
  -17    2    5      2.82      0.00
  -16    2    5      1.39      0.00
  -15    2    5      4.51      0.00
  -14    2    5      3.22      0.00
  -13    2    5     -4.43      0.00
  -12    2    5     -1.26      0.00
  -11    2    5     -0.86      0.00
  -10    2    5     -1.33      0.00
   -9    2    5     -1.74      0.00
   -8    2    5      1.44      0.00
   -7    2    5      3.88      0.00
   -6    2    5      9.97      0.00
   -5    2    5      7.60      0.00
   -4    2    5     -1.57      0.00
   -3    2    5      6.35      0.00
   -2    2    5    -13.10      0.00
   -1    2    5     14.35      0.00
    0    2    5    -10.62      0.00
    1    2    5     -4.95      0.00
    2    2    5     14.95      0.00
    3    2    5    -23.30      0.00
    4    2    5     -4.89      0.00
    5    2    5     -1.39      0.00
    6    2    5      3.20      0.00
    7    2    5     -1.36      0.00
    8    2    5     -3.78      0.00
    9    2    5      4.38      0.00
   10    2    5      1.83      0.00
   11    2    5     -0.66      0.00
   12    2    5     -0.52      0.00
   13    2    5     -0.65      0.00
   14    2    5     -1.13      0.00
   15    2    5     -0.25      0.00
   16    2    5      0.70      0.00
  -18    3    5     -0.39      0.00
  -17    3    5     -0.66      0.00
  -16    3    5      1.89      0.00
  -15    3    5      3.94      0.00
  -14    3    5     -0.22      0.00
  -13    3    5      0.95      0.00
  -12    3    5     -2.13      0.00
  -11    3    5     -1.76      0.00
  -10    3    5     -2.12      0.00
   -9    3    5     -4.57      0.00
   -8    3    5     -3.29      0.00
   -7    3    5      9.57      0.00
   -6    3    5     10.87      0.00
   -5    3    5     -5.74      0.00
   -4    3    5     12.74      0.00
   -3    3    5      8.22      0.00
   -2    3    5     11.12      0.00
   -1    3    5    -26.84      0.00
    0    3    5      7.86      0.00
    1    3    5     33.24      0.00
    2    3    5    -20.90      0.00
    3    3    5     -3.82      0.00
    4    3    5    -10.68      0.00
    5    3    5     -1.24      0.00
    6    3    5     -2.56      0.00
    7    3    5     -8.37      0.00
    8    3    5      5.04      0.00
    9    3    5      4.35      0.00
   10    3    5      0.94      0.00
   11    3    5      1.19      0.00
   12    3    5     -0.27      0.00
   13    3    5     -1.64      0.00
   14    3    5     -0.51      0.00
   15    3    5      1.54      0.00
   16    3    5      1.35      0.00
  -18    4    5     -1.56      0.00
  -17    4    5     -2.00      0.00
  -16    4    5      0.55      0.00
  -15    4    5      1.87      0.00
  -14    4    5      5.37      0.00
  -13    4    5     -0.14      0.00
  -12    4    5     -2.29      0.00
  -11    4    5     -1.73      0.00
  -10    4    5     -3.08      0.00
   -9    4    5     -6.29      0.00
   -8    4    5     -3.12      0.00
   -7    4    5     -1.00      0.00
   -6    4    5      1.92      0.00
   -5    4    5     16.90      0.00
   -4    4    5     -2.91      0.00
   -3    4    5     10.28      0.00
   -2    4    5     -4.04      0.00
   -1    4    5     10.35      0.00
    0    4    5      9.69      0.00
    1    4    5    -15.54      0.00
    2    4    5     24.90      0.00
    3    4    5     -8.47      0.00
    4    4    5    -13.52      0.00
    5    4    5     -3.90      0.00
    6    4    5     -5.74      0.00
    7    4    5      0.72      0.00
    8    4    5     -5.02      0.00
    9    4    5      1.00      0.00
   10    4    5      6.19      0.00
   11    4    5      0.40      0.00
   12    4    5      0.45      0.00
   13    4    5     -0.92      0.00
   14    4    5     -2.73      0.00
   15    4    5      0.99      0.00
   16    4    5     -1.80      0.00
  -17    5    5     -1.58      0.00
  -16    5    5     -1.63      0.00
  -15    5    5      3.15      0.00
  -14    5    5      2.72      0.00
  -13    5    5      2.11      0.00
  -12    5    5      0.02      0.00
  -11    5    5     -0.37      0.00
  -10    5    5     -0.36      0.00
   -9    5    5     -3.26      0.00
   -8    5    5     -9.48      0.00
   -7    5    5     -4.25      0.00
   -6    5    5     12.73      0.00
   -5    5    5     -4.88      0.00
   -4    5    5      1.57      0.00
   -3    5    5      6.02      0.00
   -2    5    5     13.95      0.00
   -1    5    5     -3.53      0.00
    0    5    5    -14.93      0.00
    1    5    5     36.39      0.00
    2    5    5      0.88      0.00
    3    5    5     -2.05      0.00
    4    5    5     -0.96      0.00
    5    5    5     -6.92      0.00
    6    5    5      2.37      0.00
    7    5    5     -9.47      0.00
    8    5    5     -2.64      0.00
    9    5    5      2.86      0.00
   10    5    5      0.05      0.00
   11    5    5      2.96      0.00
   12    5    5      1.08      0.00
   13    5    5     -0.81      0.00
   14    5    5     -1.15      0.00
   15    5    5      0.19      0.00
  -17    6    5     -4.76      0.00
  -16    6    5     -1.11      0.00
  -15    6    5     -0.54      0.00
  -14    6    5      5.09      0.00
  -13    6    5      4.24      0.00
  -12    6    5      0.85      0.00
  -11    6    5      1.11      0.00
  -10    6    5      0.21      0.00
   -9    6    5     -1.77      0.00
   -8    6    5     -3.45      0.00
   -7    6    5     -2.43      0.00
   -6    6    5     -8.24      0.00
   -5    6    5      8.11      0.00
   -4    6    5      2.25      0.00
   -3    6    5     -0.41      0.00
   -2    6    5     -0.48      0.00
   -1    6    5     -1.39      0.00
    0    6    5     17.70      0.00
    1    6    5    -11.44      0.00
    2    6    5     15.15      0.00
    3    6    5     15.65      0.00
    4    6    5     -8.70      0.00
    5    6    5      2.47      0.00
    6    6    5     -6.10      0.00
    7    6    5      1.77      0.00
    8    6    5     -4.36      0.00
    9    6    5     -2.55      0.00
   10    6    5      5.16      0.00
   11    6    5     -0.43      0.00
   12    6    5      0.64      0.00
   13    6    5      1.32      0.00
   14    6    5      1.09      0.00
   15    6    5      0.03      0.00
  -16    7    5     -3.62      0.00
  -15    7    5      1.58      0.00
  -14    7    5      1.59      0.00
  -13    7    5      3.50      0.00
  -12    7    5      1.96      0.00
  -11    7    5      0.82      0.00
  -10    7    5      2.47      0.00
   -9    7    5      2.47      0.00
   -8    7    5     -5.47      0.00
   -7    7    5     -9.61      0.00
   -6    7    5      6.64      0.00
   -5    7    5      2.23      0.00
   -4    7    5     -7.07      0.00
   -3    7    5     -1.17      0.00
   -2    7    5      4.75      0.00
   -1    7    5      3.12      0.00
    0    7    5    -19.72      0.00
    1    7    5     11.80      0.00
    2    7    5     13.37      0.00
    3    7    5     -2.23      0.00
    4    7    5      6.67      0.00
    5    7    5     -5.26      0.00
    6    7    5      4.38      0.00
    7    7    5     -4.60      0.00
    8    7    5     -4.52      0.00
    9    7    5      0.21      0.00
   10    7    5     -1.55      0.00
   11    7    5      2.56      0.00
   12    7    5      2.83      0.00
   13    7    5      0.59      0.00
   14    7    5     -0.33      0.00
  -15    8    5     -1.19      0.00
  -14    8    5      3.87      0.00
  -13    8    5      1.74      0.00
  -12    8    5      1.49      0.00
  -11    8    5     -0.53      0.00
  -10    8    5      1.11      0.00
   -9    8    5     -2.11      0.00
   -8    8    5     -0.89      0.00
   -7    8    5     -0.72      0.00
   -6    8    5     -5.90      0.00
   -5    8    5      0.31      0.00
   -4    8    5      5.69      0.00
   -3    8    5     -1.55      0.00
   -2    8    5     -1.91      0.00
   -1    8    5     -7.38      0.00
    0    8    5      7.80      0.00
    1    8    5     -7.37      0.00
    2    8    5     -2.67      0.00
    3    8    5     13.28      0.00
    4    8    5     -2.46      0.00
    5    8    5      3.04      0.00
    6    8    5     -2.41      0.00
    7    8    5      1.04      0.00
    8    8    5     -1.66      0.00
    9    8    5     -4.96      0.00
   10    8    5      2.08      0.00
   11    8    5      1.53      0.00
   12    8    5     -2.07      0.00
   13    8    5      2.53      0.00
   14    8    5      1.98      0.00
  -15    9    5      0.94      0.00
  -14    9    5     -1.47      0.00
  -13    9    5      0.43      0.00
  -12    9    5     -0.89      0.00
  -11    9    5      0.72      0.00
  -10    9    5     -2.48      0.00
   -9    9    5      3.21      0.00
   -8    9    5      0.16      0.00
   -7    9    5     -9.73      0.00
   -6    9    5     -0.55      0.00
   -5    9    5      5.90      0.00
   -4    9    5     -0.65      0.00
   -3    9    5     -2.31      0.00
   -2    9    5      1.21      0.00
   -1    9    5      6.51      0.00
    0    9    5    -12.47      0.00
    1    9    5     -3.97      0.00
    2    9    5      9.78      0.00
    3    9    5     -2.88      0.00
    4    9    5      4.41      0.00
    5    9    5     -0.28      0.00
    6    9    5      2.66      0.00
    7    9    5      1.80      0.00
    8    9    5     -3.05      0.00
    9    9    5     -3.13      0.00
   10    9    5     -0.35      0.00
   11    9    5     -0.90      0.00
   12    9    5      2.29      0.00
   13    9    5      4.23      0.00
  -14   10    5      0.60      0.00
  -13   10    5      0.42      0.00
  -12   10    5      1.13      0.00
  -11   10    5     -1.62      0.00
  -10   10    5      2.36      0.00
   -9   10    5     -1.79      0.00
   -8   10    5     -3.01      0.00
   -7   10    5      0.85      0.00
   -6   10    5     -4.29      0.00
   -5   10    5     -1.69      0.00
   -4   10    5      3.66      0.00
   -3   10    5      3.59      0.00
   -2   10    5      1.02      0.00
   -1   10    5     -5.66      0.00
    0   10    5      0.32      0.00
    1   10    5      0.23      0.00
    2   10    5     -6.52      0.00
    3   10    5      5.95      0.00
    4   10    5      0.26      0.00
    5   10    5     -0.54      0.00
    6   10    5      0.78      0.00
    7   10    5      1.04      0.00
    8   10    5      0.30      0.00
    9   10    5     -3.71      0.00
   10   10    5     -0.52      0.00
   11   10    5      0.04      0.00
   12   10    5      2.75      0.00
  -12   11    5      0.11      0.00
  -11   11    5      3.36      0.00
  -10   11    5     -1.98      0.00
   -9   11    5      1.40      0.00
   -8   11    5      3.75      0.00
   -7   11    5     -5.80      0.00
   -6   11    5     -6.39      0.00
   -5   11    5      1.20      0.00
   -4   11    5      4.94      0.00
   -3   11    5     -0.02      0.00
   -2   11    5      0.69      0.00
   -1   11    5      4.83      0.00
    0   11    5     -3.77      0.00
    1   11    5     -9.91      0.00
    2   11    5      5.36      0.00
    3   11    5     -2.12      0.00
    4   11    5      2.22      0.00
    5   11    5     -0.31      0.00
    6   11    5      0.23      0.00
    7   11    5      1.59      0.00
    8   11    5     -3.27      0.00
    9   11    5     -3.35      0.00
   10   11    5     -2.70      0.00
   11   11    5      1.48      0.00
  -11   12    5     -1.10      0.00
  -10   12    5      2.94      0.00
   -9   12    5      1.67      0.00
   -8   12    5     -0.65      0.00
   -7   12    5     -1.14      0.00
   -6   12    5     -1.52      0.00
   -5   12    5     -2.16      0.00
   -4   12    5     -0.16      0.00
   -3   12    5      3.55      0.00
   -2   12    5      3.31      0.00
   -1   12    5      0.90      0.00
    0   12    5     -3.90      0.00
    1   12    5      3.95      0.00
    2   12    5     -5.79      0.00
    3   12    5      5.63      0.00
    4   12    5     -2.80      0.00
    5   12    5      0.66      0.00
    6   12    5     -1.15      0.00
    7   12    5     -0.67      0.00
    8   12    5      1.85      0.00
    9   12    5     -3.72      0.00
   -9   13    5      0.88      0.00
   -8   13    5      3.61      0.00
   -7   13    5      2.35      0.00
   -6   13    5     -5.36      0.00
   -5   13    5     -1.32      0.00
   -4   13    5      1.21      0.00
   -3   13    5      3.62      0.00
   -2   13    5     -1.26      0.00
   -1   13    5      3.36      0.00
    0   13    5      5.26      0.00
    1   13    5     -3.69      0.00
    2   13    5      5.13      0.00
    3   13    5     -1.92      0.00
    4   13    5      2.64      0.00
    5   13    5      3.19      0.00
    6   13    5     -3.47      0.00
    7   13    5      4.13      0.00
   -6   14    5      0.68      0.00
   -5   14    5     -2.39      0.00
   -4   14    5      1.50      0.00
   -3   14    5     -3.60      0.00
   -2   14    5      3.73      0.00
   -1   14    5      0.50      0.00
    0   14    5      1.28      0.00
    1   14    5      3.37      0.00
    2   14    5      3.00      0.00
    3   14    5      2.54      0.00
    4   14    5      4.89      0.00
  -18    0    6     -0.96      0.00
  -16    0    6     -0.98      0.00
  -14    0    6     -0.17      0.00
  -12    0    6      4.21      0.00
  -10    0    6      0.53      0.00
   -8    0    6     -5.17      0.00
   -6    0    6     -2.98      0.00
   -4    0    6     -7.74      0.00
   -2    0    6     22.89      0.00
    0    0    6    -25.61      0.00
    2    0    6     12.45      0.00
    4    0    6      8.44      0.00
    6    0    6      1.50      0.00
    8    0    6     -5.80      0.00
   10    0    6     -0.20      0.00
   12    0    6      3.41      0.00
   14    0    6     -2.12      0.00
   16    0    6      0.48      0.00
  -18    1    6     -0.37      0.00
  -17    1    6     -1.20      0.00
  -16    1    6     -1.43      0.00
  -15    1    6     -5.37      0.00
  -14    1    6     -1.85      0.00
  -13    1    6      4.69      0.00
  -12    1    6      1.65      0.00
  -11    1    6      0.10      0.00
  -10    1    6      0.72      0.00
   -9    1    6      3.41      0.00
   -8    1    6      2.74      0.00
   -7    1    6    -10.84      0.00
   -6    1    6    -10.74      0.00
   -5    1    6      0.99      0.00
   -4    1    6     -2.10      0.00
   -3    1    6     -7.32      0.00
   -2    1    6     -3.21      0.00
   -1    1    6      6.76      0.00
    0    1    6     18.74      0.00
    1    1    6    -19.64      0.00
    2    1    6     -3.71      0.00
    3    1    6     21.22      0.00
    4    1    6      5.45      0.00
    5    1    6     -2.09      0.00
    6    1    6     -2.15      0.00
    7    1    6      4.62      0.00
    8    1    6      3.41      0.00
    9    1    6     -7.10      0.00
   10    1    6     -0.53      0.00
   11    1    6      2.18      0.00
   12    1    6      0.06      0.00
   13    1    6      2.60      0.00
   14    1    6      3.11      0.00
   15    1    6     -3.37      0.00
   16    1    6      0.36      0.00
  -18    2    6     -0.33      0.00
  -17    2    6      0.64      0.00
  -16    2    6     -3.08      0.00
  -15    2    6     -1.07      0.00
  -14    2    6     -2.77      0.00
  -13    2    6     -2.38      0.00
  -12    2    6      3.60      0.00
  -11    2    6      1.81      0.00
  -10    2    6      1.69      0.00
   -9    2    6      5.44      0.00
   -8    2    6      0.28      0.00
   -7    2    6     -6.54      0.00
   -6    2    6     -5.39      0.00
   -5    2    6     -6.96      0.00
   -4    2    6     -9.32      0.00
   -3    2    6    -12.54      0.00
   -2    2    6     -1.35      0.00
   -1    2    6     20.11      0.00
    0    2    6    -24.59      0.00
    1    2    6     -5.75      0.00
    2    2    6      9.35      0.00
    3    2    6     -0.45      0.00
    4    2    6     11.79      0.00
    5    2    6      1.91      0.00
    6    2    6      4.74      0.00
    7    2    6      2.68      0.00
    8    2    6     -3.58      0.00
    9    2    6     -0.63      0.00
   10    2    6     -1.06      0.00
   11    2    6     -0.71      0.00
   12    2    6      0.10      0.00
   13    2    6      1.65      0.00
   14    2    6     -1.35      0.00
   15    2    6     -0.92      0.00
   16    2    6      1.20      0.00
  -18    3    6      2.62      0.00
  -17    3    6      1.20      0.00
  -16    3    6      1.60      0.00
  -15    3    6     -3.29      0.00
  -14    3    6     -5.22      0.00
  -13    3    6      1.78      0.00
  -12    3    6      1.56      0.00
  -11    3    6      1.50      0.00
  -10    3    6      2.84      0.00
   -9    3    6      4.96      0.00
   -8    3    6      7.65      0.00
   -7    3    6      2.37      0.00
   -6    3    6    -12.80      0.00
   -5    3    6    -10.53      0.00
   -4    3    6      3.43      0.00
   -3    3    6    -10.59      0.00
   -2    3    6     -6.70      0.00
   -1    3    6    -16.58      0.00
    0    3    6     16.06      0.00
    1    3    6     -5.95      0.00
    2    3    6    -24.08      0.00
    3    3    6     13.16      0.00
    4    3    6      8.94      0.00
    5    3    6      7.05      0.00
    6    3    6     -0.08      0.00
    7    3    6      3.34      0.00
    8    3    6      7.07      0.00
    9    3    6     -4.56      0.00
   10    3    6     -4.18      0.00
   11    3    6     -0.91      0.00
   12    3    6     -0.82      0.00
   13    3    6      1.56      0.00
   14    3    6      2.32      0.00
   15    3    6      0.36      0.00
   16    3    6     -0.88      0.00
  -17    4    6      2.40      0.00
  -16    4    6      1.12      0.00
  -15    4    6     -1.63      0.00
  -14    4    6     -0.61      0.00
  -13    4    6     -4.09      0.00
  -12    4    6      0.20      0.00
  -11    4    6      1.91      0.00
  -10    4    6      0.55      0.00
   -9    4    6      5.15      0.00
   -8    4    6     10.03      0.00
   -7    4    6      1.38      0.00
   -6    4    6     -4.35      0.00
   -5    4    6      1.52      0.00
   -4    4    6     -8.28      0.00
   -3    4    6     -2.94      0.00
   -2    4    6    -15.57      0.00
   -1    4    6     14.99      0.00
    0    4    6    -10.04      0.00
    1    4    6    -21.37      0.00
    2    4    6      5.74      0.00
    3    4    6    -10.44      0.00
    4    4    6      6.54      0.00
    5    4    6      4.06      0.00
    6    4    6      3.39      0.00
    7    4    6      8.37      0.00
    8    4    6     -0.38      0.00
    9    4    6      0.57      0.00
   10    4    6     -1.07      0.00
   11    4    6     -2.78      0.00
   12    4    6     -0.91      0.00
   13    4    6      0.79      0.00
   14    4    6      1.34      0.00
   15    4    6      0.81      0.00
  -17    5    6      2.63      0.00
  -16    5    6      2.24      0.00
  -15    5    6      1.08      0.00
  -14    5    6     -5.84      0.00
  -13    5    6     -2.76      0.00
  -12    5    6     -0.28      0.00
  -11    5    6     -0.25      0.00
  -10    5    6     -0.75      0.00
   -9    5    6      1.24      0.00
   -8    5    6      4.09      0.00
   -7    5    6     10.40      0.00
   -6    5    6      3.85      0.00
   -5    5    6    -13.87      0.00
   -4    5    6      5.27      0.00
   -3    5    6     -0.68      0.00
   -2    5    6      0.70      0.00
   -1    5    6    -14.17      0.00
    0    5    6     -1.49      0.00
    1    5    6     13.33      0.00
    2    5    6    -31.08      0.00
    3    5    6     -4.99      0.00
    4    5    6      1.66      0.00
    5    5    6      1.05      0.00
    6    5    6      1.41      0.00
    7    5    6     -1.78      0.00
    8    5    6      7.25      0.00
    9    5    6      2.07      0.00
   10    5    6     -3.86      0.00
   11    5    6      0.13      0.00
   12    5    6     -1.11      0.00
   13    5    6     -1.75      0.00
   14    5    6      1.23      0.00
   15    5    6     -1.18      0.00
  -17    6    6      1.38      0.00
  -16    6    6      4.73      0.00
  -15    6    6      0.17      0.00
  -14    6    6     -0.63      0.00
  -13    6    6     -3.47      0.00
  -12    6    6     -3.11      0.00
  -11    6    6     -0.63      0.00
  -10    6    6     -3.21      0.00
   -9    6    6     -1.19      0.00
   -8    6    6      6.74      0.00
   -7    6    6      6.64      0.00
   -6    6    6     -4.96      0.00
   -5    6    6      6.06      0.00
   -4    6    6     -0.55      0.00
   -3    6    6      0.72      0.00
   -2    6    6     -5.45      0.00
   -1    6    6      4.74      0.00
    0    6    6     12.69      0.00
    1    6    6    -21.67      0.00
    2    6    6      2.84      0.00
    3    6    6     -8.38      0.00
    4    6    6     -7.17      0.00
    5    6    6      2.23      0.00
    6    6    6     -3.83      0.00
    7    6    6      5.63      0.00
    8    6    6      1.12      0.00
    9    6    6      1.50      0.00
   10    6    6      1.32      0.00
   11    6    6     -3.73      0.00
   12    6    6     -1.15      0.00
   13    6    6     -0.74      0.00
   14    6    6     -0.04      0.00
  -16    7    6      0.04      0.00
  -15    7    6      2.47      0.00
  -14    7    6     -1.96      0.00
  -13    7    6     -3.38      0.00
  -12    7    6      0.28      0.00
  -11    7    6     -0.57      0.00
  -10    7    6      0.38      0.00
   -9    7    6     -1.18      0.00
   -8    7    6     -1.44      0.00
   -7    7    6      5.40      0.00
   -6    7    6     11.20      0.00
   -5    7    6     -8.64      0.00
   -4    7    6     -3.01      0.00
   -3    7    6      5.17      0.00
   -2    7    6      4.10      0.00
   -1    7    6     -0.41      0.00
    0    7    6     -6.94      0.00
    1    7    6     20.96      0.00
    2    7    6     -7.24      0.00
    3    7    6    -11.49      0.00
    4    7    6      2.39      0.00
    5    7    6     -3.67      0.00
    6    7    6      3.54      0.00
    7    7    6     -4.76      0.00
    8    7    6      3.59      0.00
    9    7    6      3.71      0.00
   10    7    6     -4.49      0.00
   11    7    6      1.55      0.00
   12    7    6      0.99      0.00
   13    7    6     -1.73      0.00
   14    7    6     -0.82      0.00
  -15    8    6      0.44      0.00
  -14    8    6      1.45      0.00
  -13    8    6     -0.06      0.00
  -12    8    6     -0.52      0.00
  -11    8    6      0.97      0.00
  -10    8    6     -0.39      0.00
   -9    8    6     -3.25      0.00
   -8    8    6      3.62      0.00
   -7    8    6      7.51      0.00
   -6    8    6     -1.87      0.00
   -5    8    6     -0.54      0.00
   -4    8    6      1.47      0.00
   -3    8    6     -2.04      0.00
   -2    8    6     -2.62      0.00
   -1    8    6     -2.61      0.00
    0    8    6     15.51      0.00
    1    8    6     -6.40      0.00
    2    8    6      0.88      0.00
    3    8    6      2.82      0.00
    4    8    6     -7.36      0.00
    5    8    6      1.87      0.00
    6    8    6     -5.08      0.00
    7    8    6      1.17      0.00
    8    8    6      0.71      0.00
    9    8    6      0.48      0.00
   10    8    6      3.26      0.00
   11    8    6     -1.55      0.00
   12    8    6     -2.32      0.00
   13    8    6      1.14      0.00
  -14    9    6     -0.26      0.00
  -13    9    6      0.09      0.00
  -12    9    6      1.00      0.00
  -11    9    6      0.22      0.00
  -10    9    6     -0.52      0.00
   -9    9    6      2.24      0.00
   -8    9    6     -2.03      0.00
   -7    9    6     -0.10      0.00
   -6    9    6      9.89      0.00
   -5    9    6      0.58      0.00
   -4    9    6     -7.81      0.00
   -3    9    6     -0.83      0.00
   -2    9    6      0.39      0.00
   -1    9    6      2.05      0.00
    0    9    6     -9.11      0.00
    1    9    6     11.27      0.00
    2    9    6      4.43      0.00
    3    9    6     -7.65      0.00
    4    9    6      2.24      0.00
    5    9    6     -2.97      0.00
    6    9    6      1.48      0.00
    7    9    6     -4.28      0.00
    8    9    6     -0.41      0.00
    9    9    6      3.86      0.00
   10    9    6     -0.23      0.00
   11    9    6     -2.21      0.00
   12    9    6      2.81      0.00
  -13   10    6     -0.03      0.00
  -12   10    6     -1.98      0.00
  -11   10    6     -1.13      0.00
  -10   10    6      0.30      0.00
   -9   10    6     -3.41      0.00
   -8   10    6     -1.73      0.00
   -7   10    6      7.46      0.00
   -6   10    6      2.74      0.00
   -5   10    6     -0.41      0.00
   -4   10    6     -0.71      0.00
   -3   10    6     -2.08      0.00
   -2   10    6     -3.22      0.00
   -1   10    6     -6.30      0.00
    0   10    6      9.84      0.00
    1   10    6      2.86      0.00
    2   10    6     -3.29      0.00
    3   10    6      3.83      0.00
    4   10    6     -2.87      0.00
    5   10    6     -0.17      0.00
    6   10    6     -0.93      0.00
    7   10    6      0.09      0.00
    8   10    6      0.62      0.00
    9   10    6      2.44      0.00
   10   10    6      1.57      0.00
   11   10    6      0.57      0.00
  -12   11    6     -1.17      0.00
  -11   11    6     -1.04      0.00
  -10   11    6     -3.62      0.00
   -9   11    6      0.44      0.00
   -8   11    6      0.20      0.00
   -7   11    6     -3.91      0.00
   -6   11    6      5.21      0.00
   -5   11    6      5.25      0.00
   -4   11    6     -1.69      0.00
   -3   11    6     -4.57      0.00
   -2   11    6     -1.82      0.00
   -1   11    6      1.28      0.00
    0   11    6     -3.27      0.00
    1   11    6      2.55      0.00
    2   11    6      6.28      0.00
    3   11    6     -3.85      0.00
    4   11    6      0.98      0.00
    5   11    6      0.13      0.00
    6   11    6      1.31      0.00
    7   11    6     -2.09      0.00
    8   11    6     -2.03      0.00
    9   11    6      5.12      0.00
   10   11    6      2.29      0.00
  -11   12    6     -1.83      0.00
  -10   12    6      1.87      0.00
   -9   12    6     -3.02      0.00
   -8   12    6     -5.17      0.00
   -7   12    6      0.91      0.00
   -6   12    6      3.52      0.00
   -5   12    6      2.29      0.00
   -4   12    6     -1.84      0.00
   -3   12    6      1.06      0.00
   -2   12    6     -2.01      0.00
   -1   12    6     -4.50      0.00
    0   12    6     -2.00      0.00
    1   12    6      5.94      0.00
    2   12    6     -4.82      0.00
    3   12    6      3.24      0.00
    4   12    6     -5.10      0.00
    5   12    6      2.09      0.00
    6   12    6     -1.68      0.00
    7   12    6     -0.37      0.00
    8   12    6      0.55      0.00
    9   12    6     -0.02      0.00
   -9   13    6     -0.46      0.00
   -8   13    6     -1.62      0.00
   -7   13    6     -1.83      0.00
   -6   13    6     -1.39      0.00
   -5   13    6      3.52      0.00
   -4   13    6      3.01      0.00
   -3   13    6     -1.34      0.00
   -2   13    6     -0.45      0.00
   -1   13    6     -2.44      0.00
    0   13    6      0.13      0.00
    1   13    6     -6.56      0.00
    2   13    6      2.43      0.00
    3   13    6     -7.80      0.00
    4   13    6      2.60      0.00
    5   13    6     -3.06      0.00
    6   13    6      1.50      0.00
    7   13    6      0.03      0.00
   -6   14    6      2.91      0.00
   -5   14    6      1.21      0.00
   -4   14    6      2.06      0.00
   -3   14    6     -1.21      0.00
   -2   14    6      3.25      0.00
   -1   14    6      0.12      0.00
    0   14    6     -2.56      0.00
    1   14    6      1.01      0.00
    2   14    6     -3.94      0.00
    3   14    6      0.51      0.00
    4   14    6     -3.55      0.00
  -17    0    7     -0.40      0.00
  -15    0    7      3.89      0.00
  -13    0    7     -3.41      0.00
  -11    0    7     -1.35      0.00
   -9    0    7     -7.09      0.00
   -7    0    7     14.37      0.00
   -5    0    7      4.33      0.00
   -3    0    7     14.56      0.00
   -1    0    7    -21.08      0.00
    1    0    7     18.75      0.00
    3    0    7    -19.09      0.00
    5    0    7     -0.22      0.00
    7    0    7     -4.84      0.00
    9    0    7      7.75      0.00
   11    0    7     -1.26      0.00
   13    0    7     -6.41      0.00
   15    0    7      3.36      0.00
  -18    1    7     -0.31      0.00
  -17    1    7      0.82      0.00
  -16    1    7     -0.73      0.00
  -15    1    7      0.85      0.00
  -14    1    7      4.98      0.00
  -13    1    7      2.18      0.00
  -12    1    7     -5.19      0.00
  -11    1    7     -1.99      0.00
  -10    1    7     -1.30      0.00
   -9    1    7     -2.95      0.00
   -8    1    7     -2.56      0.00
   -7    1    7     -1.22      0.00
   -6    1    7     13.39      0.00
   -5    1    7      8.53      0.00
   -4    1    7      6.43      0.00
   -3    1    7      7.90      0.00
   -2    1    7     -1.47      0.00
   -1    1    7     -0.14      0.00
    0    1    7      9.20      0.00
    1    1    7     -3.48      0.00
    2    1    7      2.28      0.00
    3    1    7      1.92      0.00
    4    1    7    -14.03      0.00
    5    1    7     -4.32      0.00
    6    1    7     -0.39      0.00
    7    1    7     -1.99      0.00
    8    1    7      1.37      0.00
    9    1    7     -2.10      0.00
   10    1    7      2.98      0.00
   11    1    7      0.95      0.00
   12    1    7     -1.90      0.00
   13    1    7      0.80      0.00
   14    1    7     -0.37      0.00
   15    1    7     -1.29      0.00
   16    1    7      0.62      0.00
  -18    2    7     -2.13      0.00
  -17    2    7     -2.20      0.00
  -16    2    7     -1.42      0.00
  -15    2    7      4.26      0.00
  -14    2    7      2.54      0.00
  -13    2    7     -0.86      0.00
  -12    2    7     -0.28      0.00
  -11    2    7     -2.07      0.00
  -10    2    7     -1.51      0.00
   -9    2    7     -5.96      0.00
   -8    2    7    -10.80      0.00
   -7    2    7      3.18      0.00
   -6    2    7     11.47      0.00
   -5    2    7      4.68      0.00
   -4    2    7      2.53      0.00
   -3    2    7      9.84      0.00
   -2    2    7     17.59      0.00
   -1    2    7      1.38      0.00
    0    2    7    -16.11      0.00
    1    2    7     21.21      0.00
    2    2    7     12.49      0.00
    3    2    7    -10.23      0.00
    4    2    7     -6.43      0.00
    5    2    7     -4.53      0.00
    6    2    7     -0.62      0.00
    7    2    7     -5.67      0.00
    8    2    7     -5.52      0.00
    9    2    7      5.78      0.00
   10    2    7      2.50      0.00
   11    2    7     -0.01      0.00
   12    2    7      1.97      0.00
   13    2    7     -2.04      0.00
   14    2    7     -3.11      0.00
   15    2    7      2.38      0.00
  -18    3    7     -0.65      0.00
  -17    3    7     -2.80      0.00
  -16    3    7     -0.99      0.00
  -15    3    7     -2.65      0.00
  -14    3    7      2.32      0.00
  -13    3    7      5.41      0.00
  -12    3    7     -2.33      0.00
  -11    3    7     -2.46      0.00
  -10    3    7     -0.45      0.00
   -9    3    7     -5.54      0.00
   -8    3    7     -7.52      0.00
   -7    3    7     -7.18      0.00
   -6    3    7      0.15      0.00
   -5    3    7      9.40      0.00
   -4    3    7      4.45      0.00
   -3    3    7      3.94      0.00
   -2    3    7      6.86      0.00
   -1    3    7     -3.34      0.00
    0    3    7     18.66      0.00
    1    3    7     -0.63      0.00
    2    3    7      4.38      0.00
    3    3    7     12.48      0.00
    4    3    7     -7.91      0.00
    5    3    7     -5.60      0.00
    6    3    7     -5.54      0.00
    7    3    7     -3.30      0.00
    8    3    7     -0.33      0.00
    9    3    7     -2.53      0.00
   10    3    7      2.59      0.00
   11    3    7      2.51      0.00
   12    3    7      0.56      0.00
   13    3    7      0.25      0.00
   14    3    7     -2.51      0.00
   15    3    7      0.41      0.00
  -17    4    7     -1.50      0.00
  -16    4    7     -3.40      0.00
  -15    4    7      0.53      0.00
  -14    4    7      4.35      0.00
  -13    4    7      0.09      0.00
  -12    4    7      0.97      0.00
  -11    4    7      0.12      0.00
  -10    4    7     -0.39      0.00
   -9    4    7      0.05      0.00
   -8    4    7     -8.72      0.00
   -7    4    7    -12.04      0.00
   -6    4    7      2.11      0.00
   -5    4    7      7.40      0.00
   -4    4    7     -5.07      0.00
   -3    4    7      1.00      0.00
   -2    4    7      4.27      0.00
   -1    4    7     16.82      0.00
    0    4    7    -17.51      0.00
    1    4    7      6.91      0.00
    2    4    7     23.49      0.00
    3    4    7      1.28      0.00
    4    4    7      2.25      0.00
    5    4    7     -2.69      0.00
    6    4    7      2.08      0.00
    7    4    7     -1.14      0.00
    8    4    7     -8.95      0.00
    9    4    7      0.80      0.00
   10    4    7      1.31      0.00
   11    4    7      0.61      0.00
   12    4    7      2.01      0.00
   13    4    7     -0.05      0.00
   14    4    7     -0.46      0.00
   15    4    7     -1.69      0.00
  -17    5    7     -2.76      0.00
  -16    5    7     -2.56      0.00
  -15    5    7     -1.50      0.00
  -14    5    7     -1.41      0.00
  -13    5    7      6.47      0.00
  -12    5    7      1.99      0.00
  -11    5    7     -0.18      0.00
  -10    5    7      2.45      0.00
   -9    5    7      0.43      0.00
   -8    5    7     -4.85      0.00
   -7    5    7     -5.01      0.00
   -6    5    7     -5.37      0.00
   -5    5    7     -2.63      0.00
   -4    5    7      6.60      0.00
   -3    5    7     -3.94      0.00
   -2    5    7      4.25      0.00
   -1    5    7    -11.27      0.00
    0    5    7      8.92      0.00
    1    5    7      7.64      0.00
    2    5    7     -6.71      0.00
    3    5    7     19.12      0.00
    4    5    7      3.78      0.00
    5    5    7      2.20      0.00
    6    5    7      0.32      0.00
    7    5    7     -2.63      0.00
    8    5    7      0.84      0.00
    9    5    7     -4.51      0.00
   10    5    7     -0.35      0.00
   11    5    7      2.83      0.00
   12    5    7      1.47      0.00
   13    5    7      1.77      0.00
   14    5    7     -0.15      0.00
   15    5    7     -1.30      0.00
  -17    6    7     -0.19      0.00
  -16    6    7     -1.81      0.00
  -15    6    7     -3.95      0.00
  -14    6    7      3.01      0.00
  -13    6    7      1.18      0.00
  -12    6    7      0.87      0.00
  -11    6    7     -0.33      0.00
  -10    6    7      0.38      0.00
   -9    6    7      4.14      0.00
   -8    6    7      0.99      0.00
   -7    6    7    -10.58      0.00
   -6    6    7     -7.80      0.00
   -5    6    7     10.34      0.00
   -4    6    7     -2.94      0.00
   -3    6    7     -3.62      0.00
   -2    6    7     -4.10      0.00
   -1    6    7      8.60      0.00
    0    6    7     -5.23      0.00
    1    6    7    -19.38      0.00
    2    6    7     17.49      0.00
    3    6    7      1.53      0.00
    4    6    7      3.15      0.00
    5    6    7      1.21      0.00
    6    6    7      0.84      0.00
    7    6    7      4.70      0.00
    8    6    7     -5.03      0.00
    9    6    7     -0.80      0.00
   10    6    7      2.00      0.00
   11    6    7     -0.81      0.00
   12    6    7      0.20      0.00
   13    6    7      1.11      0.00
   14    6    7      0.57      0.00
  -16    7    7     -2.96      0.00
  -15    7    7     -0.66      0.00
  -14    7    7     -2.28      0.00
  -13    7    7      0.79      0.00
  -12    7    7      1.82      0.00
  -11    7    7     -1.86      0.00
  -10    7    7      1.53      0.00
   -9    7    7      0.84      0.00
   -8    7    7     -2.26      0.00
   -7    7    7     -3.16      0.00
   -6    7    7     -0.92      0.00
   -5    7    7     -6.94      0.00
   -4    7    7      6.00      0.00
   -3    7    7      2.07      0.00
   -2    7    7      1.52      0.00
   -1    7    7     -4.70      0.00
    0    7    7     -6.82      0.00
    1    7    7      9.38      0.00
    2    7    7    -14.19      0.00
    3    7    7      2.32      0.00
    4    7    7      6.00      0.00
    5    7    7     -0.49      0.00
    6    7    7      3.50      0.00
    7    7    7     -2.40      0.00
    8    7    7      3.22      0.00
    9    7    7     -2.47      0.00
   10    7    7     -2.09      0.00
   11    7    7      4.34      0.00
   12    7    7     -0.56      0.00
   13    7    7     -0.91      0.00
  -15    8    7     -2.86      0.00
  -14    8    7     -0.44      0.00
  -13    8    7      0.59      0.00
  -12    8    7     -1.90      0.00
  -11    8    7     -0.36      0.00
  -10    8    7     -1.60      0.00
   -9    8    7      0.91      0.00
   -8    8    7      5.32      0.00
   -7    8    7     -4.29      0.00
   -6    8    7    -11.82      0.00
   -5    8    7      4.64      0.00
   -4    8    7      4.99      0.00
   -3    8    7     -0.49      0.00
   -2    8    7     -0.39      0.00
   -1    8    7      5.38      0.00
    0    8    7      7.62      0.00
    1    8    7    -17.96      0.00
    2    8    7      2.87      0.00
    3    8    7      2.45      0.00
    4    8    7     -1.82      0.00
    5    8    7      3.69      0.00
    6    8    7     -1.77      0.00
    7    8    7      5.89      0.00
    8    8    7     -0.96      0.00
    9    8    7     -3.04      0.00
   10    8    7      3.77      0.00
   11    8    7     -1.01      0.00
   12    8    7     -1.94      0.00
   13    8    7      1.16      0.00
  -14    9    7     -1.25      0.00
  -13    9    7      0.39      0.00
  -12    9    7      1.59      0.00
  -11    9    7     -0.09      0.00
  -10    9    7      1.31      0.00
   -9    9    7      3.01      0.00
   -8    9    7     -1.61      0.00
   -7    9    7     -2.86      0.00
   -6    9    7     -1.32      0.00
   -5    9    7     -5.18      0.00
   -4    9    7      0.03      0.00
   -3    9    7      5.75      0.00
   -2    9    7      3.80      0.00
   -1    9    7      2.92      0.00
    0    9    7     -8.05      0.00
    1    9    7      8.04      0.00
    2    9    7     -5.62      0.00
    3    9    7     -3.78      0.00
    4    9    7      4.45      0.00
    5    9    7     -1.16      0.00
    6    9    7      2.39      0.00
    7    9    7     -2.38      0.00
    8    9    7      2.08      0.00
    9    9    7     -0.85      0.00
   10    9    7     -3.56      0.00
   11    9    7      1.24      0.00
   12    9    7      3.67      0.00
  -13   10    7      3.19      0.00
  -12   10    7      0.00      0.00
  -11   10    7      3.07      0.00
  -10   10    7      1.41      0.00
   -9   10    7     -0.65      0.00
   -8   10    7      3.52      0.00
   -7   10    7      3.62      0.00
   -6   10    7     -9.15      0.00
   -5   10    7     -4.85      0.00
   -4   10    7      3.04      0.00
   -3   10    7      1.55      0.00
   -2   10    7      0.54      0.00
   -1   10    7      1.17      0.00
    0   10    7      9.22      0.00
    1   10    7    -10.76      0.00
    2   10    7     -3.12      0.00
    3   10    7      3.24      0.00
    4   10    7     -2.14      0.00
    5   10    7      0.88      0.00
    6   10    7     -1.53      0.00
    7   10    7      3.98      0.00
    8   10    7     -1.25      0.00
    9   10    7     -3.53      0.00
   10   10    7     -2.31      0.00
   11   10    7      1.58      0.00
  -12   11    7      4.32      0.00
  -11   11    7     -0.84      0.00
  -10   11    7      1.41      0.00
   -9   11    7      3.15      0.00
   -8   11    7      3.33      0.00
   -7   11    7     -2.00      0.00
   -6   11    7      0.30      0.00
   -5   11    7     -3.46      0.00
   -4   11    7     -3.49      0.00
   -3   11    7      0.77      0.00
   -2   11    7      2.08      0.00
   -1   11    7      5.93      0.00
    0   11    7     -4.95      0.00
    1   11    7      0.81      0.00
    2   11    7     -0.20      0.00
    3   11    7     -1.24      0.00
    4   11    7      0.94      0.00
    5   11    7      1.00      0.00
    6   11    7     -0.07      0.00
    7   11    7     -2.47      0.00
    8   11    7      2.05      0.00
    9   11    7     -0.24      0.00
   10   11    7     -3.70      0.00
  -11   12    7      1.01      0.00
  -10   12    7      1.26      0.00
   -9   12    7     -0.34      0.00
   -8   12    7      0.92      0.00
   -7   12    7      6.73      0.00
   -6   12    7     -1.36      0.00
   -5   12    7     -4.99      0.00
   -4   12    7     -2.83      0.00
   -3   12    7      1.32      0.00
   -2   12    7     -0.22      0.00
   -1   12    7      0.32      0.00
    0   12    7      5.98      0.00
    1   12    7      1.16      0.00
    2   12    7     -1.82      0.00
    3   12    7      3.95      0.00
    4   12    7     -0.38      0.00
    5   12    7      1.02      0.00
    6   12    7     -3.09      0.00
    7   12    7      3.62      0.00
    8   12    7      2.96      0.00
   -8   13    7      3.01      0.00
   -7   13    7      0.85      0.00
   -6   13    7     -0.39      0.00
   -5   13    7     -2.06      0.00
   -4   13    7     -1.02      0.00
   -3   13    7     -2.61      0.00
   -2   13    7     -0.04      0.00
   -1   13    7     -0.24      0.00
    0   13    7      4.03      0.00
    1   13    7     -2.15      0.00
    2   13    7      5.10      0.00
    3   13    7     -0.75      0.00
    4   13    7      7.35      0.00
    5   13    7     -1.40      0.00
    6   13    7      2.77      0.00
   -5   14    7     -2.25      0.00
   -4   14    7     -2.91      0.00
   -3   14    7     -0.82      0.00
   -2   14    7     -0.84      0.00
   -1   14    7     -1.08      0.00
    0   14    7     -3.25      0.00
    1   14    7      2.17      0.00
    2   14    7     -2.18      0.00
    3   14    7      4.27      0.00
  -18    0    8      0.14      0.00
  -16    0    8      3.62      0.00
  -14    0    8     -6.19      0.00
  -12    0    8      6.00      0.00
  -10    0    8      1.15      0.00
   -8    0    8     10.66      0.00
   -6    0    8    -20.10      0.00
   -4    0    8     -7.84      0.00
   -2    0    8    -10.67      0.00
    0    0    8      5.42      0.00
    2    0    8    -10.35      0.00
    4    0    8     16.90      0.00
    6    0    8      1.15      0.00
    8    0    8      3.55      0.00
   10    0    8     -5.15      0.00
   12    0    8     -0.84      0.00
   14    0    8      4.02      0.00
  -18    1    8      0.92      0.00
  -17    1    8      2.60      0.00
  -16    1    8     -0.54      0.00
  -15    1    8     -0.90      0.00
  -14    1    8     -1.20      0.00
  -13    1    8     -1.18      0.00
  -12    1    8     -0.58      0.00
  -11    1    8      3.11      0.00
  -10    1    8      0.76      0.00
   -9    1    8      7.96      0.00
   -8    1    8      6.65      0.00
   -7    1    8     -3.57      0.00
   -6    1    8     -0.90      0.00
   -5    1    8    -11.76      0.00
   -4    1    8     -2.08      0.00
   -3    1    8    -13.63      0.00
   -2    1    8    -10.93      0.00
   -1    1    8      7.55      0.00
    0    1    8      1.81      0.00
    1    1    8    -16.55      0.00
    2    1    8     -6.00      0.00
    3    1    8      6.56      0.00
    4    1    8      0.54      0.00
    5    1    8      6.38      0.00
    6    1    8      2.14      0.00
    7    1    8      5.15      0.00
    8    1    8      3.89      0.00
    9    1    8     -5.49      0.00
   10    1    8      0.59      0.00
   11    1    8     -1.91      0.00
   12    1    8     -1.91      0.00
   13    1    8      3.55      0.00
   14    1    8      0.43      0.00
   15    1    8     -2.86      0.00
  -18    2    8      1.43      0.00
  -17    2    8      1.09      0.00
  -16    2    8      4.45      0.00
  -15    2    8      2.93      0.00
  -14    2    8     -4.72      0.00
  -13    2    8     -4.40      0.00
  -12    2    8      3.36      0.00
  -11    2    8      1.85      0.00
  -10    2    8      0.77      0.00
   -9    2    8      1.98      0.00
   -8    2    8      9.51      0.00
   -7    2    8     13.25      0.00
   -6    2    8     -6.58      0.00
   -5    2    8     -9.78      0.00
   -4    2    8     -2.61      0.00
   -3    2    8     -1.43      0.00
   -2    2    8     -5.57      0.00
   -1    2    8    -11.45      0.00
    0    2    8     -5.61      0.00
    1    2    8      5.48      0.00
    2    2    8    -12.80      0.00
    3    2    8    -11.82      0.00
    4    2    8      9.46      0.00
    5    2    8      6.13      0.00
    6    2    8      2.48      0.00
    7    2    8      1.65      0.00
    8    2    8      1.71      0.00
    9    2    8      3.57      0.00
   10    2    8     -4.77      0.00
   11    2    8     -1.59      0.00
   12    2    8     -0.42      0.00
   13    2    8     -1.45      0.00
   14    2    8      2.01      0.00
   15    2    8      2.58      0.00
  -18    3    8      1.69      0.00
  -17    3    8      2.22      0.00
  -16    3    8      2.31      0.00
  -15    3    8     -1.15      0.00
  -14    3    8      0.11      0.00
  -13    3    8     -0.37      0.00
  -12    3    8     -3.12      0.00
  -11    3    8      2.09      0.00
  -10    3    8     -0.10      0.00
   -9    3    8      1.09      0.00
   -8    3    8     10.18      0.00
   -7    3    8      7.91      0.00
   -6    3    8      2.04      0.00
   -5    3    8     -2.50      0.00
   -4    3    8     -1.41      0.00
   -3    3    8      0.56      0.00
   -2    3    8    -10.31      0.00
   -1    3    8     -2.21      0.00
    0    3    8     10.88      0.00
    1    3    8    -14.77      0.00
    2    3    8    -11.11      0.00
    3    3    8     -2.58      0.00
    4    3    8     -4.18      0.00
    5    3    8      2.30      0.00
    6    3    8     -0.67      0.00
    7    3    8      3.87      0.00
    8    3    8      5.97      0.00
    9    3    8     -1.55      0.00
   10    3    8     -0.34      0.00
   11    3    8     -0.65      0.00
   12    3    8     -1.77      0.00
   13    3    8      0.35      0.00
   14    3    8      1.83      0.00
   15    3    8      2.20      0.00
  -17    4    8      0.98      0.00
  -16    4    8      1.03      0.00
  -15    4    8      4.14      0.00
  -14    4    8     -0.88      0.00
  -13    4    8     -6.95      0.00
  -12    4    8     -0.09      0.00
  -11    4    8      1.05      0.00
  -10    4    8     -1.74      0.00
   -9    4    8     -0.49      0.00
   -8    4    8      1.58      0.00
   -7    4    8     10.56      0.00
   -6    4    8      9.04      0.00
   -5    4    8     -4.76      0.00
   -4    4    8     -4.63      0.00
   -3    4    8      4.12      0.00
   -2    4    8      2.48      0.00
   -1    4    8      1.36      0.00
    0    4    8    -13.90      0.00
    1    4    8     10.14      0.00
    2    4    8     -3.82      0.00
    3    4    8    -18.46      0.00
    4    4    8     -3.37      0.00
    5    4    8     -1.27      0.00
    6    4    8      0.80      0.00
    7    4    8     -0.97      0.00
    8    4    8      0.19      0.00
    9    4    8      6.71      0.00
   10    4    8     -0.43      0.00
   11    4    8     -1.39      0.00
   12    4    8     -1.47      0.00
   13    4    8     -3.11      0.00
   14    4    8      2.20      0.00
   15    4    8     -0.39      0.00
  -17    5    8     -0.90      0.00
  -16    5    8      3.23      0.00
  -15    5    8      1.12      0.00
  -14    5    8     -1.53      0.00
  -13    5    8      0.59      0.00
  -12    5    8     -3.36      0.00
  -11    5    8      0.37      0.00
  -10    5    8     -0.25      0.00
   -9    5    8     -5.01      0.00
   -8    5    8      1.48      0.00
   -7    5    8      9.44      0.00
   -6    5    8      3.82      0.00
   -5    5    8     -2.71      0.00
   -4    5    8      1.48      0.00
   -3    5    8      0.60      0.00
   -2    5    8      1.61      0.00
   -1    5    8     -8.53      0.00
    0    5    8     17.66      0.00
    1    5    8      0.10      0.00
    2    5    8    -10.56      0.00
    3    5    8      1.56      0.00
    4    5    8     -7.44      0.00
    5    5    8     -0.84      0.00
    6    5    8     -4.23      0.00
    7    5    8     -2.34      0.00
    8    5    8      4.90      0.00
    9    5    8     -0.39      0.00
   10    5    8      1.19      0.00
   11    5    8      0.44      0.00
   12    5    8     -0.91      0.00
   13    5    8     -1.08      0.00
   14    5    8     -2.57      0.00
  -16    6    8      0.44      0.00
  -15    6    8      2.13      0.00
  -14    6    8      4.28      0.00
  -13    6    8     -4.85      0.00
  -12    6    8     -0.43      0.00
  -11    6    8      0.68      0.00
  -10    6    8      0.54      0.00
   -9    6    8     -0.01      0.00
   -8    6    8     -1.99      0.00
   -7    6    8      1.33      0.00
   -6    6    8      9.14      0.00
   -5    6    8      4.45      0.00
   -4    6    8     -9.86      0.00
   -3    6    8     -0.58      0.00
   -2    6    8      0.92      0.00
   -1    6    8      8.11      0.00
    0    6    8     -7.11      0.00
    1    6    8      1.08      0.00
    2    6    8     17.82      0.00
    3    6    8     -9.48      0.00
    4    6    8     -1.21      0.00
    5    6    8     -2.19      0.00
    6    6    8      0.56      0.00
    7    6    8     -0.36      0.00
    8    6    8     -4.35      0.00
    9    6    8      4.62      0.00
   10    6    8     -0.19      0.00
   11    6    8     -2.54      0.00
   12    6    8      0.64      0.00
   13    6    8     -0.04      0.00
   14    6    8      1.24      0.00
  -16    7    8     -0.70      0.00
  -15    7    8      3.66      0.00
  -14    7    8     -1.02      0.00
  -13    7    8      1.17      0.00
  -12    7    8     -0.14      0.00
  -11    7    8      1.68      0.00
  -10    7    8      2.02      0.00
   -9    7    8     -4.05      0.00
   -8    7    8     -3.02      0.00
   -7    7    8      5.83      0.00
   -6    7    8      8.27      0.00
   -5    7    8     -4.57      0.00
   -4    7    8      0.39      0.00
   -3    7    8     -2.84      0.00
   -2    7    8     -1.22      0.00
   -1    7    8     -9.17      0.00
    0    7    8      1.62      0.00
    1    7    8     13.20      0.00
    2    7    8     -8.09      0.00
    3    7    8      6.24      0.00
    4    7    8     -0.81      0.00
    5    7    8     -1.69      0.00
    6    7    8     -0.36      0.00
    7    7    8     -5.17      0.00
    8    7    8      3.03      0.00
    9    7    8     -1.41      0.00
   10    7    8     -0.53      0.00
   11    7    8      1.12      0.00
   12    7    8      0.16      0.00
   13    7    8      1.39      0.00
  -15    8    8      0.65      0.00
  -14    8    8      2.04      0.00
  -13    8    8     -0.92      0.00
  -12    8    8     -2.08      0.00
  -11    8    8      0.57      0.00
  -10    8    8     -0.91      0.00
   -9    8    8      0.47      0.00
   -8    8    8     -0.12      0.00
   -7    8    8     -1.87      0.00
   -6    8    8      3.97      0.00
   -5    8    8     10.75      0.00
   -4    8    8     -5.17      0.00
   -3    8    8     -5.87      0.00
   -2    8    8     -2.91      0.00
   -1    8    8      1.70      0.00
    0    8    8     -2.95      0.00
    1    8    8    -10.34      0.00
    2    8    8     12.66      0.00
    3    8    8      0.41      0.00
    4    8    8     -2.56      0.00
    5    8    8     -0.25      0.00
    6    8    8     -1.42      0.00
    7    8    8      2.58      0.00
    8    8    8     -4.56      0.00
    9    8    8      2.67      0.00
   10    8    8      4.10      0.00
   11    8    8     -5.40      0.00
   12    8    8     -0.65      0.00
  -14    9    8     -1.58      0.00
  -13    9    8     -2.22      0.00
  -12    9    8     -1.19      0.00
  -11    9    8     -1.35      0.00
  -10    9    8     -0.58      0.00
   -9    9    8     -0.42      0.00
   -8    9    8     -5.55      0.00
   -7    9    8      0.54      0.00
   -6    9    8      8.96      0.00
   -5    9    8      2.59      0.00
   -4    9    8      0.92      0.00
   -3    9    8      0.08      0.00
   -2    9    8     -1.01      0.00
   -1    9    8     -6.38      0.00
    0    9    8     -6.52      0.00
    1    9    8     11.57      0.00
    2    9    8     -4.18      0.00
    3    9    8      1.03      0.00
    4    9    8      2.48      0.00
    5    9    8     -2.30      0.00
    6    9    8      1.06      0.00
    7    9    8     -3.01      0.00
    8    9    8      2.55      0.00
    9    9    8      3.22      0.00
   10    9    8     -1.02      0.00
   11    9    8      1.20      0.00
  -13   10    8     -3.39      0.00
  -12   10    8     -3.29      0.00
  -11   10    8     -0.10      0.00
  -10   10    8     -2.36      0.00
   -9   10    8     -2.32      0.00
   -8   10    8      0.36      0.00
   -7   10    8     -1.92      0.00
   -6   10    8     -1.77      0.00
   -5   10    8      8.55      0.00
   -4   10    8      4.97      0.00
   -3   10    8     -1.72      0.00
   -2   10    8     -2.46      0.00
   -1   10    8     -0.57      0.00
    0   10    8      2.90      0.00
    1   10    8     -7.93      0.00
    2   10    8      4.91      0.00
    3   10    8      2.15      0.00
    4   10    8     -2.20      0.00
    5   10    8      0.25      0.00
    6   10    8     -0.23      0.00
    7   10    8      3.81      0.00
    8   10    8     -4.60      0.00
    9   10    8      1.91      0.00
   10   10    8      5.34      0.00
  -12   11    8      0.55      0.00
  -11   11    8     -2.92      0.00
  -10   11    8      0.73      0.00
   -9   11    8     -0.25      0.00
   -8   11    8     -2.68      0.00
   -7   11    8     -6.68      0.00
   -6   11    8      2.80      0.00
   -5   11    8      4.30      0.00
   -4   11    8      2.79      0.00
   -3   11    8      2.03      0.00
   -2   11    8      1.30      0.00
   -1   11    8     -1.56      0.00
    0   11    8     -9.85      0.00
    1   11    8      5.49      0.00
    2   11    8     -0.52      0.00
    3   11    8     -2.25      0.00
    4   11    8     -0.31      0.00
    5   11    8      1.61      0.00
    6   11    8     -0.13      0.00
    7   11    8     -3.80      0.00
    8   11    8      2.22      0.00
    9   11    8      0.60      0.00
  -10   12    8     -1.33      0.00
   -9   12    8     -1.06      0.00
   -8   12    8     -2.17      0.00
   -7   12    8      0.37      0.00
   -6   12    8     -4.01      0.00
   -5   12    8      2.38      0.00
   -4   12    8      4.86      0.00
   -3   12    8      1.51      0.00
   -2   12    8      0.70      0.00
   -1   12    8     -3.39      0.00
    0   12    8      0.88      0.00
    1   12    8     -4.55      0.00
    2   12    8     -1.09      0.00
    3   12    8     -3.47      0.00
    4   12    8     -2.03      0.00
    5   12    8     -2.92      0.00
    6   12    8      1.32      0.00
    7   12    8      5.14      0.00
   -8   13    8      0.35      0.00
   -7   13    8     -4.64      0.00
   -6   13    8     -0.63      0.00
   -5   13    8      2.07      0.00
   -4   13    8      4.07      0.00
   -3   13    8      0.01      0.00
   -2   13    8      0.88      0.00
   -1   13    8      1.98      0.00
    0   13    8     -1.05      0.00
    1   13    8     -1.63      0.00
    2   13    8      1.31      0.00
    3   13    8     -3.31      0.00
    4   13    8     -1.65      0.00
    5   13    8     -3.42      0.00
   -4   14    8      0.69      0.00
   -3   14    8      1.37      0.00
   -2   14    8      0.51      0.00
   -1   14    8      3.35      0.00
    0   14    8      0.45      0.00
    1   14    8      5.14      0.00
    2   14    8      0.23      0.00
  -17    0    9     -0.75      0.00
  -15    0    9     -2.00      0.00
  -13    0    9      4.36      0.00
  -11    0    9     -4.88      0.00
   -9    0    9     -6.98      0.00
   -7    0    9     -7.25      0.00
   -5    0    9     17.88      0.00
   -3    0    9     12.14      0.00
   -1    0    9      1.19      0.00
    1    0    9      9.78      0.00
    3    0    9      3.49      0.00
    5    0    9     -9.52      0.00
    7    0    9     -5.75      0.00
    9    0    9      0.30      0.00
   11    0    9      3.41      0.00
   13    0    9     -0.45      0.00
   15    0    9      0.73      0.00
  -18    1    9     -0.63      0.00
  -17    1    9     -0.21      0.00
  -16    1    9     -5.65      0.00
  -15    1    9     -0.80      0.00
  -14    1    9      5.14      0.00
  -13    1    9      2.45      0.00
  -12    1    9     -2.75      0.00
  -11    1    9     -0.94      0.00
  -10    1    9     -0.44      0.00
   -9    1    9      0.68      0.00
   -8    1    9    -14.61      0.00
   -7    1    9     -9.59      0.00
   -6    1    9     10.16      0.00
   -5    1    9      1.20      0.00
   -4    1    9      7.23      0.00
   -3    1    9     -3.07      0.00
   -2    1    9     13.55      0.00
   -1    1    9      8.24      0.00
    0    1    9     -4.67      0.00
    1    1    9     -1.60      0.00
    2    1    9     16.27      0.00
    3    1    9      8.09      0.00
    4    1    9     -9.41      0.00
    5    1    9     -1.48      0.00
    6    1    9     -2.58      0.00
    7    1    9     -0.13      0.00
    8    1    9     -5.09      0.00
    9    1    9     -2.48      0.00
   10    1    9      5.72      0.00
   11    1    9     -0.83      0.00
   12    1    9      2.87      0.00
   13    1    9      1.68      0.00
   14    1    9     -4.21      0.00
   15    1    9     -1.55      0.00
  -18    2    9     -1.13      0.00
  -17    2    9     -2.14      0.00
  -16    2    9      0.70      0.00
  -15    2    9     -2.14      0.00
  -14    2    9     -2.08      0.00
  -13    2    9      3.68      0.00
  -12    2    9      3.18      0.00
  -11    2    9     -3.12      0.00
  -10    2    9      0.06      0.00
   -9    2    9     -2.44      0.00
   -8    2    9     -5.15      0.00
   -7    2    9     -8.12      0.00
   -6    2    9    -10.73      0.00
   -5    2    9      8.55      0.00
   -4    2    9      2.01      0.00
   -3    2    9      3.32      0.00
   -2    2    9      3.48      0.00
   -1    2    9     -1.76      0.00
    0    2    9      0.94      0.00
    1    2    9      8.95      0.00
    2    2    9      3.98      0.00
    3    2    9      5.19      0.00
    4    2    9      7.34      0.00
    5    2    9     -4.62      0.00
    6    2    9     -1.26      0.00
    7    2    9     -3.01      0.00
    8    2    9     -3.59      0.00
    9    2    9      2.11      0.00
   10    2    9     -1.92      0.00
   11    2    9      2.62      0.00
   12    2    9      0.20      0.00
   13    2    9     -0.54      0.00
   14    2    9     -2.04      0.00
   15    2    9     -0.58      0.00
  -18    3    9      0.93      0.00
  -17    3    9      0.95      0.00
  -16    3    9     -2.54      0.00
  -15    3    9     -3.41      0.00
  -14    3    9      3.15      0.00
  -13    3    9      4.46      0.00
  -12    3    9     -1.04      0.00
  -11    3    9      0.13      0.00
  -10    3    9     -0.37      0.00
   -9    3    9      3.06      0.00
   -8    3    9     -3.31      0.00
   -7    3    9    -14.26      0.00
   -6    3    9     -4.48      0.00
   -5    3    9      3.62      0.00
   -4    3    9      2.79      0.00
   -3    3    9     -3.93      0.00
   -2    3    9     -2.94      0.00
   -1    3    9      9.51      0.00
    0    3    9      0.74      0.00
    1    3    9    -10.58      0.00
    2    3    9      8.89      0.00
    3    3    9     15.00      0.00
    4    3    9      0.94      0.00
    5    3    9      0.86      0.00
    6    3    9     -0.43      0.00
    7    3    9      1.96      0.00
    8    3    9     -2.86      0.00
    9    3    9     -6.51      0.00
   10    3    9      1.55      0.00
   11    3    9     -0.38      0.00
   12    3    9      1.53      0.00
   13    3    9      1.36      0.00
   14    3    9     -0.56      0.00
  -17    4    9      0.00      0.00
  -16    4    9      0.03      0.00
  -15    4    9      0.85      0.00
  -14    4    9     -2.17      0.00
  -13    4    9      0.67      0.00
  -12    4    9      5.95      0.00
  -11    4    9     -1.45      0.00
  -10    4    9      0.00      0.00
   -9    4    9      3.06      0.00
   -8    4    9     -1.27      0.00
   -7    4    9     -4.83      0.00
   -6    4    9     -8.36      0.00
   -5    4    9     -1.86      0.00
   -4    4    9      4.34      0.00
   -3    4    9      0.68      0.00
   -2    4    9      1.99      0.00
   -1    4    9     -3.07      0.00
    0    4    9     -9.06      0.00
    1    4    9      6.84      0.00
    2    4    9     -0.07      0.00
    3    4    9      1.10      0.00
    4    4    9      9.37      0.00
    5    4    9      2.23      0.00
    6    4    9      2.92      0.00
    7    4    9     -0.30      0.00
    8    4    9     -3.00      0.00
    9    4    9     -0.81      0.00
   10    4    9     -3.60      0.00
   11    4    9     -0.65      0.00
   12    4    9     -0.27      0.00
   13    4    9      2.81      0.00
   14    4    9      2.37      0.00
  -17    5    9      0.80      0.00
  -16    5    9      0.53      0.00
  -15    5    9     -4.72      0.00
  -14    5    9     -1.16      0.00
  -13    5    9      4.59      0.00
  -12    5    9      0.81      0.00
  -11    5    9     -0.24      0.00
  -10    5    9     -1.43      0.00
   -9    5    9      0.71      0.00
   -8    5    9      4.38      0.00
   -7    5    9     -4.54      0.00
   -6    5    9    -11.23      0.00
   -5    5    9     -0.06      0.00
   -4    5    9      7.59      0.00
   -3    5    9      0.87      0.00
   -2    5    9     -3.02      0.00
   -1    5    9     -1.69      0.00
    0    5    9     10.39      0.00
    1    5    9    -14.54      0.00
    2    5    9     -7.19      0.00
    3    5    9      8.48      0.00
    4    5    9      0.44      0.00
    5    5    9      1.60      0.00
    6    5    9     -1.50      0.00
    7    5    9      3.10      0.00
    8    5    9      2.94      0.00
    9    5    9     -5.32      0.00
   10    5    9      0.29      0.00
   11    5    9     -0.01      0.00
   12    5    9     -0.32      0.00
   13    5    9      0.61      0.00
   14    5    9     -1.07      0.00
  -16    6    9     -1.29      0.00
  -15    6    9     -0.88      0.00
  -14    6    9     -0.93      0.00
  -13    6    9     -2.73      0.00
  -12    6    9      3.56      0.00
  -11    6    9     -1.89      0.00
  -10    6    9     -0.81      0.00
   -9    6    9      2.53      0.00
   -8    6    9      0.50      0.00
   -7    6    9     -3.42      0.00
   -6    6    9     -4.70      0.00
   -5    6    9     -3.71      0.00
   -4    6    9      0.62      0.00
   -3    6    9      6.32      0.00
   -2    6    9      4.06      0.00
   -1    6    9      6.58      0.00
    0    6    9     -9.46      0.00
    1    6    9      0.30      0.00
    2    6    9      3.56      0.00
    3    6    9    -11.07      0.00
    4    6    9      3.97      0.00
    5    6    9     -0.25      0.00
    6    6    9      2.70      0.00
    7    6    9      1.64      0.00
    8    6    9     -1.16      0.00
    9    6    9      2.56      0.00
   10    6    9     -2.14      0.00
   11    6    9     -0.52      0.00
   12    6    9     -1.32      0.00
   13    6    9     -1.45      0.00
  -16    7    9      0.10      0.00
  -15    7    9     -1.09      0.00
  -14    7    9     -4.18      0.00
  -13    7    9      3.77      0.00
  -12    7    9      0.88      0.00
  -11    7    9      1.22      0.00
  -10    7    9     -1.94      0.00
   -9    7    9     -2.17      0.00
   -8    7    9      4.31      0.00
   -7    7    9      2.20      0.00
   -6    7    9     -8.71      0.00
   -5    7    9     -9.24      0.00
   -4    7    9      6.51      0.00
   -3    7    9      4.58      0.00
   -2    7    9      1.89      0.00
   -1    7    9     -1.04      0.00
    0    7    9     11.87      0.00
    1    7    9      4.49      0.00
    2    7    9    -13.73      0.00
    3    7    9      4.67      0.00
    4    7    9     -1.50      0.00
    5    7    9      2.53      0.00
    6    7    9     -1.03      0.00
    7    7    9     -0.69      0.00
    8    7    9      5.82      0.00
    9    7    9     -5.59      0.00
   10    7    9      0.07      0.00
   11    7    9      2.86      0.00
   12    7    9     -0.55      0.00
  -15    8    9     -2.60      0.00
  -14    8    9      1.28      0.00
  -13    8    9      0.66      0.00
  -12    8    9      2.39      0.00
  -11    8    9      0.92      0.00
  -10    8    9      0.24      0.00
   -9    8    9      2.42      0.00
   -8    8    9      1.85      0.00
   -7    8    9     -0.90      0.00
   -6    8    9     -5.80      0.00
   -5    8    9     -3.72      0.00
   -4    8    9     -6.61      0.00
   -3    8    9      2.32      0.00
   -2    8    9      3.43      0.00
   -1    8    9      7.37      0.00
    0    8    9      0.08      0.00
    1    8    9     -3.37      0.00
    2    8    9      8.95      0.00
    3    8    9     -6.28      0.00
    4    8    9     -0.35      0.00
    5    8    9      1.59      0.00
    6    8    9      0.40      0.00
    7    8    9      1.87      0.00
    8    8    9     -4.19      0.00
    9    8    9      1.50      0.00
   10    8    9     -1.85      0.00
   11    8    9     -2.26      0.00
   12    8    9      2.30      0.00
  -14    9    9      0.58      0.00
  -13    9    9      3.38      0.00
  -12    9    9      3.17      0.00
  -11    9    9      1.84      0.00
  -10    9    9      1.22      0.00
   -9    9    9      0.14      0.00
   -8    9    9     -0.33      0.00
   -7    9    9      5.40      0.00
   -6    9    9     -0.56      0.00
   -5    9    9    -12.34      0.00
   -4    9    9     -3.37      0.00
   -3    9    9      0.91      0.00
   -2    9    9     -0.39      0.00
   -1    9    9     -3.18      0.00
    0    9    9      4.58      0.00
    1    9    9      9.28      0.00
    2    9    9     -7.86      0.00
    3    9    9      1.18      0.00
    4    9    9     -0.04      0.00
    5    9    9      0.69      0.00
    6    9    9     -0.45      0.00
    7    9    9     -1.98      0.00
    8    9    9      4.37      0.00
    9    9    9     -2.97      0.00
   10    9    9     -6.92      0.00
   11    9    9      3.19      0.00
  -13   10    9      1.84      0.00
  -12   10    9      2.47      0.00
  -11   10    9      0.31      0.00
  -10   10    9      1.30      0.00
   -9   10    9      0.40      0.00
   -8   10    9      3.97      0.00
   -7   10    9      3.75      0.00
   -6   10    9     -0.99      0.00
   -5   10    9     -1.88      0.00
   -4   10    9     -6.93      0.00
   -3   10    9     -4.47      0.00
   -2   10    9     -1.96      0.00
   -1   10    9      4.87      0.00
    0   10    9      4.54      0.00
    1   10    9     -5.97      0.00
    2   10    9      5.42      0.00
    3   10    9      0.90      0.00
    4   10    9     -1.86      0.00
    5   10    9      0.74      0.00
    6   10    9      1.35      0.00
    7   10    9      1.70      0.00
    8   10    9     -3.37      0.00
    9   10    9      0.64      0.00
   10   10    9     -0.66      0.00
  -12   11    9      1.77      0.00
  -11   11    9     -1.15      0.00
  -10   11    9      1.81      0.00
   -9   11    9      1.45      0.00
   -8   11    9     -0.30      0.00
   -7   11    9      2.94      0.00
   -6   11    9      7.15      0.00
   -5   11    9     -4.01      0.00
   -4   11    9     -5.58      0.00
   -3   11    9     -2.51      0.00
   -2   11    9      0.24      0.00
   -1   11    9     -1.29      0.00
    0   11    9      0.90      0.00
    1   11    9      8.65      0.00
    2   11    9     -0.76      0.00
    3   11    9      1.75      0.00
    4   11    9      3.28      0.00
    5   11    9      0.88      0.00
    6   11    9     -2.81      0.00
    7   11    9     -3.72      0.00
    8   11    9      6.59      0.00
  -10   12    9     -1.19      0.00
   -9   12    9      1.63      0.00
   -8   12    9      0.53      0.00
   -7   12    9      4.72      0.00
   -6   12    9      0.57      0.00
   -5   12    9     -0.36      0.00
   -4   12    9     -3.54      0.00
   -3   12    9     -2.36      0.00
   -2   12    9     -1.66      0.00
   -1   12    9     -1.53      0.00
    0   12    9      6.55      0.00
    1   12    9     -2.39      0.00
    2   12    9      1.41      0.00
    3   12    9      3.00      0.00
    4   12    9      4.34      0.00
    5   12    9     -0.30      0.00
    6   12    9      3.57      0.00
    7   12    9      1.62      0.00
   -8   13    9      2.23      0.00
   -7   13    9     -0.61      0.00
   -6   13    9      5.16      0.00
   -5   13    9      0.24      0.00
   -4   13    9     -2.61      0.00
   -3   13    9     -2.63      0.00
   -2   13    9     -1.56      0.00
   -1   13    9     -0.71      0.00
    0   13    9     -4.15      0.00
    1   13    9     -0.84      0.00
    2   13    9     -2.09      0.00
    3   13    9      0.72      0.00
    4   13    9      2.95      0.00
   -3   14    9     -0.33      0.00
   -2   14    9      0.09      0.00
   -1   14    9     -2.71      0.00
  -18    0   10     -0.36      0.00
  -16    0   10      3.47      0.00
  -14    0   10     -4.53      0.00
  -12    0   10      0.01      0.00
  -10    0   10      1.21      0.00
   -8    0   10     15.22      0.00
   -6    0   10      0.29      0.00
   -4    0   10     -8.98      0.00
   -2    0   10    -12.49      0.00
    0    0   10      4.02      0.00
    2    0   10    -16.28      0.00
    4    0   10      2.12      0.00
    6    0   10      3.28      0.00
    8    0   10      7.17      0.00
   10    0   10     -2.54      0.00
   12    0   10     -3.29      0.00
   14    0   10      3.83      0.00
  -18    1   10      0.91      0.00
  -17    1   10     -0.57      0.00
  -16    1   10     -1.05      0.00
  -15    1   10      4.11      0.00
  -14    1   10      1.26      0.00
  -13    1   10     -6.82      0.00
  -12    1   10     -2.48      0.00
  -11    1   10      3.95      0.00
  -10    1   10     -0.03      0.00
   -9    1   10      1.70      0.00
   -8    1   10     -0.86      0.00
   -7    1   10     15.79      0.00
   -6    1   10      9.33      0.00
   -5    1   10    -12.79      0.00
   -4    1   10      0.16      0.00
   -3    1   10     -4.82      0.00
   -2    1   10      3.70      0.00
   -1    1   10     -5.12      0.00
    0    1   10     -1.96      0.00
    1    1   10     -2.29      0.00
    2    1   10      0.45      0.00
    3    1   10    -11.02      0.00
    4    1   10     -5.62      0.00
    5    1   10      6.23      0.00
    6    1   10      0.15      0.00
    7    1   10      2.91      0.00
    8    1   10     -0.10      0.00
    9    1   10      2.38      0.00
   10    1   10      0.86      0.00
   11    1   10     -2.83      0.00
   12    1   10      1.24      0.00
   13    1   10     -0.89      0.00
   14    1   10      0.12      0.00
  -18    2   10     -0.57      0.00
  -17    2   10     -0.78      0.00
  -16    2   10      3.21      0.00
  -15    2   10      0.84      0.00
  -14    2   10     -3.13      0.00
  -13    2   10     -1.08      0.00
  -12    2   10     -1.69      0.00
  -11    2   10     -0.01      0.00
  -10    2   10      0.52      0.00
   -9    2   10     -3.64      0.00
   -8    2   10      6.85      0.00
   -7    2   10      9.70      0.00
   -6    2   10      2.40      0.00
   -5    2   10      4.89      0.00
   -4    2   10     -7.53      0.00
   -3    2   10      5.34      0.00
   -2    2   10     -5.29      0.00
   -1    2   10     -4.53      0.00
    0    2   10      4.86      0.00
    1    2   10      6.22      0.00
    2    2   10     -9.43      0.00
    3    2   10     -8.38      0.00
    4    2   10     -0.16      0.00
    5    2   10     -2.56      0.00
    6    2   10      1.38      0.00
    7    2   10     -1.31      0.00
    8    2   10      4.44      0.00
    9    2   10      4.94      0.00
   10    2   10     -3.03      0.00
   11    2   10      2.33      0.00
   12    2   10     -1.59      0.00
   13    2   10     -0.89      0.00
   14    2   10      2.23      0.00
  -17    3   10     -1.12      0.00
  -16    3   10     -3.12      0.00
  -15    3   10      0.46      0.00
  -14    3   10      4.32      0.00
  -13    3   10     -4.14      0.00
  -12    3   10     -5.43      0.00
  -11    3   10      2.04      0.00
  -10    3   10      0.38      0.00
   -9    3   10     -1.01      0.00
   -8    3   10     -2.57      0.00
   -7    3   10      5.07      0.00
   -6    3   10     15.27      0.00
   -5    3   10     -1.70      0.00
   -4    3   10     -4.75      0.00
   -3    3   10     -3.73      0.00
   -2    3   10      2.29      0.00
   -1    3   10      4.27      0.00
    0    3   10     -1.98      0.00
    1    3   10     -1.34      0.00
    2    3   10      5.13      0.00
    3    3   10     -3.51      0.00
    4    3   10    -10.92      0.00
    5    3   10     -0.11      0.00
    6    3   10     -0.91      0.00
    7    3   10      1.36      0.00
    8    3   10      1.78      0.00
    9    3   10      2.63      0.00
   10    3   10      5.37      0.00
   11    3   10     -0.02      0.00
   12    3   10      1.76      0.00
   13    3   10     -3.33      0.00
   14    3   10     -0.39      0.00
  -17    4   10     -1.55      0.00
  -16    4   10      0.79      0.00
  -15    4   10      2.61      0.00
  -14    4   10     -1.39      0.00
  -13    4   10     -2.10      0.00
  -12    4   10     -1.03      0.00
  -11    4   10     -2.38      0.00
  -10    4   10      2.27      0.00
   -9    4   10     -2.18      0.00
   -8    4   10     -2.47      0.00
   -7    4   10      6.35      0.00
   -6    4   10      6.87      0.00
   -5    4   10      3.10      0.00
   -4    4   10     -4.42      0.00
   -3    4   10     -2.36      0.00
   -2    4   10      1.35      0.00
   -1    4   10     -6.68      0.00
    0    4   10      0.17      0.00
    1    4   10     12.16      0.00
    2    4   10      0.61      0.00
    3    4   10     -5.29      0.00
    4    4   10      0.28      0.00
    5    4   10     -2.20      0.00
    6    4   10      0.72      0.00
    7    4   10     -3.46      0.00
    8    4   10      0.16      0.00
    9    4   10      5.32      0.00
   10    4   10      0.30      0.00
   11    4   10      2.11      0.00
   12    4   10     -0.01      0.00
   13    4   10      0.95      0.00
  -17    5   10     -0.37      0.00
  -16    5   10     -0.85      0.00
  -15    5   10     -0.44      0.00
  -14    5   10      4.85      0.00
  -13    5   10      1.08      0.00
  -12    5   10     -5.03      0.00
  -11    5   10     -0.13      0.00
  -10    5   10      0.82      0.00
   -9    5   10     -0.11      0.00
   -8    5   10     -0.84      0.00
   -7    5   10     -0.42      0.00
   -6    5   10      8.33      0.00
   -5    5   10      8.21      0.00
   -4    5   10     -3.00      0.00
   -3    5   10     -8.06      0.00
   -2    5   10     -5.88      0.00
   -1    5   10      0.49      0.00
    0    5   10      4.33      0.00
    1    5   10     -6.99      0.00
    2    5   10      6.10      0.00
    3    5   10      8.09      0.00
    4    5   10     -4.44      0.00
    5    5   10     -1.33      0.00
    6    5   10     -1.04      0.00
    7    5   10      0.14      0.00
    8    5   10     -1.13      0.00
    9    5   10     -1.81      0.00
   10    5   10      3.13      0.00
   11    5   10      0.58      0.00
   12    5   10      3.33      0.00
   13    5   10     -0.52      0.00
  -16    6   10     -1.81      0.00
  -15    6   10      3.76      0.00
  -14    6   10      1.78      0.00
  -13    6   10     -1.71      0.00
  -12    6   10     -1.39      0.00
  -11    6   10     -2.00      0.00
  -10    6   10      2.59      0.00
   -9    6   10      0.47      0.00
   -8    6   10     -4.52      0.00
   -7    6   10     -0.25      0.00
   -6    6   10      9.48      0.00
   -5    6   10      6.22      0.00
   -4    6   10     -1.41      0.00
   -3    6   10     -4.18      0.00
   -2    6   10     -2.87      0.00
   -1    6   10     -4.12      0.00
    0    6   10    -13.30      0.00
    1    6   10      5.08      0.00
    2    6   10      5.86      0.00
    3    6   10     -4.37      0.00
    4    6   10      3.29      0.00
    5    6   10     -2.68      0.00
    6    6   10      2.08      0.00
    7    6   10     -2.32      0.00
    8    6   10     -3.45      0.00
    9    6   10      3.37      0.00
   10    6   10     -1.00      0.00
   11    6   10     -0.45      0.00
   12    6   10      0.66      0.00
   13    6   10      3.07      0.00
  -15    7   10      0.64      0.00
  -14    7   10      0.68      0.00
  -13    7   10      1.88      0.00
  -12    7   10     -4.65      0.00
  -11    7   10     -1.03      0.00
  -10    7   10     -2.28      0.00
   -9    7   10     -0.65      0.00
   -8    7   10      0.32      0.00
   -7    7   10     -1.80      0.00
   -6    7   10      2.50      0.00
   -5    7   10     10.22      0.00
   -4    7   10      6.83      0.00
   -3    7   10     -4.09      0.00
   -2    7   10     -5.88      0.00
   -1    7   10     -4.66      0.00
    0    7   10      2.77      0.00
    1    7   10     -6.64      0.00
    2    7   10     -8.01      0.00
    3    7   10      9.57      0.00
    4    7   10     -2.48      0.00
    5    7   10     -0.56      0.00
    6    7   10     -2.33      0.00
    7    7   10      1.07      0.00
    8    7   10      2.18      0.00
    9    7   10     -3.35      0.00
   10    7   10      4.73      0.00
   11    7   10     -0.27      0.00
   12    7   10     -0.84      0.00
  -15    8   10     -0.49      0.00
  -14    8   10      2.28      0.00
  -13    8   10     -3.46      0.00
  -12    8   10     -2.75      0.00
  -11    8   10     -3.04      0.00
  -10    8   10     -0.28      0.00
   -9    8   10      1.24      0.00
   -8    8   10     -2.92      0.00
   -7    8   10     -4.51      0.00
   -6    8   10      2.96      0.00
   -5    8   10     11.13      0.00
   -4    8   10      3.56      0.00
   -3    8   10      2.58      0.00
   -2    8   10      1.62      0.00
   -1    8   10      1.89      0.00
    0    8   10     -8.99      0.00
    1    8   10     -4.93      0.00
    2    8   10      5.80      0.00
    3    8   10     -4.53      0.00
    4    8   10      2.83      0.00
    5    8   10     -2.01      0.00
    6    8   10      0.70      0.00
    7    8   10      1.69      0.00
    8    8   10     -5.03      0.00
    9    8   10      6.55      0.00
   10    8   10      0.92      0.00
   11    8   10     -1.49      0.00
  -14    9   10     -1.09      0.00
  -13    9   10     -1.25      0.00
  -12    9   10     -2.14      0.00
  -11    9   10     -0.91      0.00
  -10    9   10     -2.12      0.00
   -9    9   10     -1.68      0.00
   -8    9   10     -1.27      0.00
   -7    9   10     -3.11      0.00
   -6    9   10     -2.69      0.00
   -5    9   10      2.51      0.00
   -4    9   10     11.31      0.00
   -3    9   10      4.60      0.00
   -2    9   10     -0.05      0.00
   -1    9   10     -2.17      0.00
    0    9   10      2.38      0.00
    1    9   10      0.98      0.00
    2    9   10     -9.29      0.00
    3    9   10      2.73      0.00
    4    9   10     -0.16      0.00
    5    9   10     -0.14      0.00
    6    9   10     -2.78      0.00
    7    9   10      0.85      0.00
    8    9   10      2.68      0.00
    9    9   10     -3.97      0.00
   10    9   10      2.55      0.00
  -13   10   10     -1.58      0.00
  -12   10   10     -0.82      0.00
  -11   10   10     -1.00      0.00
  -10   10   10      0.00      0.00
   -9   10   10     -2.08      0.00
   -8   10   10      0.75      0.00
   -7   10   10     -6.17      0.00
   -6   10   10     -7.70      0.00
   -5   10   10      3.87      0.00
   -4   10   10      4.04      0.00
   -3   10   10      3.33      0.00
   -2   10   10      3.56      0.00
   -1   10   10      4.22      0.00
    0   10   10     -4.14      0.00
    1   10   10     -8.09      0.00
    2   10   10      3.99      0.00
    3   10   10     -4.74      0.00
    4   10   10     -1.11      0.00
    5   10   10     -0.04      0.00
    6   10   10      2.84      0.00
    7   10   10     -0.45      0.00
    8   10   10     -4.71      0.00
    9   10   10      1.33      0.00
  -11   11   10      0.53      0.00
  -10   11   10     -1.24      0.00
   -9   11   10     -1.29      0.00
   -8   11   10     -1.61      0.00
   -7   11   10     -2.70      0.00
   -6   11   10     -3.18      0.00
   -5   11   10     -4.29      0.00
   -4   11   10      4.42      0.00
   -3   11   10      3.82      0.00
   -2   11   10      3.45      0.00
   -1   11   10     -2.25      0.00
    0   11   10     -2.70      0.00
    1   11   10      3.45      0.00
    2   11   10     -4.57      0.00
    3   11   10     -3.89      0.00
    4   11   10     -1.40      0.00
    5   11   10     -2.03      0.00
    6   11   10     -2.96      0.00
    7   11   10      1.34      0.00
    8   11   10      5.34      0.00
   -9   12   10     -1.73      0.00
   -8   12   10     -0.57      0.00
   -7   12   10     -0.53      0.00
   -6   12   10     -6.92      0.00
   -5   12   10     -0.74      0.00
   -4   12   10      2.68      0.00
   -3   12   10      3.40      0.00
   -2   12   10      0.64      0.00
   -1   12   10      3.65      0.00
    0   12   10      3.30      0.00
    1   12   10     -3.74      0.00
    2   12   10      3.25      0.00
    3   12   10     -0.86      0.00
    4   12   10     -5.61      0.00
    5   12   10     -4.09      0.00
    6   12   10      1.66      0.00
   -7   13   10     -3.82      0.00
   -6   13   10     -2.39      0.00
   -5   13   10     -3.93      0.00
   -4   13   10      2.12      0.00
   -3   13   10      1.83      0.00
   -2   13   10      2.41      0.00
   -1   13   10      5.05      0.00
    0   13   10      0.70      0.00
    1   13   10      6.26      0.00
    2   13   10      4.27      0.00
    3   13   10      2.07      0.00
  -17    0   11      2.25      0.00
  -15    0   11     -4.14      0.00
  -13    0   11      8.84      0.00
  -11    0   11     -2.82      0.00
   -9    0   11      0.97      0.00
   -7    0   11    -19.92      0.00
   -5    0   11      6.01      0.00
   -3    0   11      1.46      0.00
   -1    0   11      5.69      0.00
    1    0   11     -2.94      0.00
    3    0   11     13.76      0.00
    5    0   11     -3.60      0.00
    7    0   11     -1.56      0.00
    9    0   11     -5.59      0.00
   11    0   11      1.47      0.00
   13    0   11      2.29      0.00
  -18    1   11      0.01      0.00
  -17    1   11     -0.60      0.00
  -16    1   11     -1.36      0.00
  -15    1   11      0.13      0.00
  -14    1   11      1.76      0.00
  -13    1   11      0.25      0.00
  -12    1   11      4.46      0.00
  -11    1   11      1.37      0.00
  -10    1   11     -1.71      0.00
   -9    1   11      2.77      0.00
   -8    1   11     -7.17      0.00
   -7    1   11     -0.32      0.00
   -6    1   11    -11.45      0.00
   -5    1   11     -5.40      0.00
   -4    1   11      9.25      0.00
   -3    1   11     -1.38      0.00
   -2    1   11      5.25      0.00
   -1    1   11     -1.12      0.00
    0    1   11     -2.96      0.00
    1    1   11     -3.19      0.00
    2    1   11      7.17      0.00
    3    1   11      1.20      0.00
    4    1   11      4.03      0.00
    5    1   11      2.24      0.00
    6    1   11     -2.60      0.00
    7    1   11      1.13      0.00
    8    1   11     -5.49      0.00
    9    1   11     -0.81      0.00
   10    1   11      0.33      0.00
   11    1   11     -0.83      0.00
   12    1   11      1.13      0.00
   13    1   11      0.05      0.00
   14    1   11     -2.72      0.00
  -17    2   11      2.12      0.00
  -16    2   11      3.03      0.00
  -15    2   11     -2.99      0.00
  -14    2   11     -3.53      0.00
  -13    2   11      6.37      0.00
  -12    2   11      3.08      0.00
  -11    2   11     -0.84      0.00
  -10    2   11     -0.72      0.00
   -9    2   11      0.93      0.00
   -8    2   11      6.27      0.00
   -7    2   11    -11.29      0.00
   -6    2   11    -12.81      0.00
   -5    2   11      3.79      0.00
   -4    2   11      0.36      0.00
   -3    2   11      6.11      0.00
   -2    2   11     -6.26      0.00
   -1    2   11      3.71      0.00
    0    2   11      2.38      0.00
    1    2   11     -3.00      0.00
    2    2   11     -6.84      0.00
    3    2   11      6.86      0.00
    4    2   11      7.45      0.00
    5    2   11     -1.39      0.00
    6    2   11      0.33      0.00
    7    2   11     -1.44      0.00
    8    2   11     -0.27      0.00
    9    2   11     -5.62      0.00
   10    2   11     -4.23      0.00
   11    2   11      0.78      0.00
   12    2   11     -2.23      0.00
   13    2   11      1.50      0.00
  -17    3   11     -0.07      0.00
  -16    3   11     -0.10      0.00
  -15    3   11      0.04      0.00
  -14    3   11      2.25      0.00
  -13    3   11     -2.39      0.00
  -12    3   11      4.53      0.00
  -11    3   11      2.58      0.00
  -10    3   11     -1.66      0.00
   -9    3   11      1.95      0.00
   -8    3   11     -0.50      0.00
   -7    3   11     -1.84      0.00
   -6    3   11     -5.41      0.00
   -5    3   11    -11.49      0.00
   -4    3   11      5.99      0.00
   -3    3   11      1.16      0.00
   -2    3   11      5.47      0.00
   -1    3   11      2.69      0.00
    0    3   11     -2.87      0.00
    1    3   11     -5.37      0.00
    2    3   11      0.91      0.00
    3    3   11      0.59      0.00
    4    3   11     -0.01      0.00
    5    3   11      4.44      0.00
    6    3   11     -1.31      0.00
    7    3   11      2.14      0.00
    8    3   11     -2.50      0.00
    9    3   11     -5.14      0.00
   10    3   11     -0.71      0.00
   11    3   11     -3.24      0.00
   12    3   11     -1.07      0.00
   13    3   11      0.05      0.00
  -17    4   11      0.76      0.00
  -16    4   11      2.14      0.00
  -15    4   11      0.10      0.00
  -14    4   11     -6.04      0.00
  -13    4   11      1.50      0.00
  -12    4   11      4.84      0.00
  -11    4   11      0.69      0.00
  -10    4   11      0.17      0.00
   -9    4   11     -1.03      0.00
   -8    4   11      3.64      0.00
   -7    4   11      0.52      0.00
   -6    4   11    -12.87      0.00
   -5    4   11     -5.62      0.00
   -4    4   11      1.03      0.00
   -3    4   11      7.88      0.00
   -2    4   11      3.20      0.00
   -1    4   11     -1.57      0.00
    0    4   11      5.14      0.00
    1    4   11      2.60      0.00
    2    4   11     -8.97      0.00
    3    4   11     -4.65      0.00
    4    4   11      6.00      0.00
    5    4   11      0.05      0.00
    6    4   11      0.61      0.00
    7    4   11     -0.95      0.00
    8    4   11      2.53      0.00
    9    4   11     -0.38      0.00
   10    4   11     -3.92      0.00
   11    4   11     -0.66      0.00
   12    4   11     -3.36      0.00
   13    4   11      1.42      0.00
  -16    5   11     -0.38      0.00
  -15    5   11     -2.00      0.00
  -14    5   11     -0.11      0.00
  -13    5   11     -1.70      0.00
  -12    5   11      1.04      0.00
  -11    5   11      3.71      0.00
  -10    5   11     -0.94      0.00
   -9    5   11      0.51      0.00
   -8    5   11      2.51      0.00
   -7    5   11     -0.83      0.00
   -6    5   11     -4.22      0.00
   -5    5   11    -10.06      0.00
   -4    5   11     -2.76      0.00
   -3    5   11      3.39      0.00
   -2    5   11      5.28      0.00
   -1    5   11      9.49      0.00
    0    5   11      5.58      0.00
    1    5   11     -5.00      0.00
    2    5   11      0.76      0.00
    3    5   11      0.46      0.00
    4    5   11     -3.89      0.00
    5    5   11      2.54      0.00
    6    5   11     -0.21      0.00
    7    5   11      2.37      0.00
    8    5   11      2.17      0.00
    9    5   11     -1.72      0.00
   10    5   11      1.23      0.00
   11    5   11     -0.55      0.00
   12    5   11     -1.04      0.00
  -16    6   11      0.40      0.00
  -15    6   11      1.48      0.00
  -14    6   11     -4.30      0.00
  -13    6   11     -1.31      0.00
  -12    6   11      3.41      0.00
  -11    6   11      3.29      0.00
  -10    6   11      2.04      0.00
   -9    6   11     -0.73      0.00
   -8    6   11      0.90      0.00
   -7    6   11      4.71      0.00
   -6    6   11     -3.79      0.00
   -5    6   11    -12.35      0.00
   -4    6   11     -6.14      0.00
   -3    6   11      3.28      0.00
   -2    6   11      6.26      0.00
   -1    6   11      1.99      0.00
    0    6   11      0.80      0.00
    1    6   11     12.65      0.00
    2    6   11      0.82      0.00
    3    6   11     -7.41      0.00
    4    6   11      2.80      0.00
    5    6   11      1.86      0.00
    6    6   11      1.58      0.00
    7    6   11     -2.61      0.00
    8    6   11      0.99      0.00
    9    6   11      1.46      0.00
   10    6   11     -3.20      0.00
   11    6   11      0.71      0.00
   12    6   11     -1.15      0.00
  -15    7   11     -2.07      0.00
  -14    7   11     -1.05      0.00
  -13    7   11      0.98      0.00
  -12    7   11      1.73      0.00
  -11    7   11      3.56      0.00
  -10    7   11      0.05      0.00
   -9    7   11      1.00      0.00
   -8    7   11      2.77      0.00
   -7    7   11      3.41      0.00
   -6    7   11     -2.27      0.00
   -5    7   11     -7.22      0.00
   -4    7   11     -8.97      0.00
   -3    7   11     -4.39      0.00
   -2    7   11     -0.74      0.00
   -1    7   11      2.18      0.00
    0    7   11      8.55      0.00
    1    7   11     -0.42      0.00
    2    7   11     -0.24      0.00
    3    7   11      5.24      0.00
    4    7   11     -4.84      0.00
    5    7   11      2.57      0.00
    6    7   11     -1.39      0.00
    7    7   11      0.25      0.00
    8    7   11      0.89      0.00
    9    7   11     -3.86      0.00
   10    7   11      0.44      0.00
   11    7   11      0.06      0.00
  -14    8   11     -0.16      0.00
  -13    8   11     -1.69      0.00
  -12    8   11      2.37      0.00
  -11    8   11      1.26      0.00
  -10    8   11      3.08      0.00
   -9    8   11      0.77      0.00
   -8    8   11     -1.13      0.00
   -7    8   11      4.78      0.00
   -6    8   11      4.87      0.00
   -5    8   11     -6.13      0.00
   -4    8   11    -11.65      0.00
   -3    8   11     -3.44      0.00
   -2    8   11     -0.73      0.00
   -1    8   11     -1.26      0.00
    0    8   11     -5.62      0.00
    1    8   11      4.90      0.00
    2    8   11      7.79      0.00
    3    8   11     -3.95      0.00
    4    8   11      0.64      0.00
    5    8   11      0.40      0.00
    6    8   11      2.31      0.00
    7    8   11     -1.74      0.00
    8    8   11     -2.44      0.00
    9    8   11      5.75      0.00
   10    8   11     -6.12      0.00
  -13    9   11      0.77      0.00
  -12    9   11      0.88      0.00
  -11    9   11     -0.23      0.00
  -10    9   11      0.20      0.00
   -9    9   11      0.98      0.00
   -8    9   11      1.05      0.00
   -7    9   11      5.56      0.00
   -6    9   11      6.62      0.00
   -5    9   11     -0.75      0.00
   -4    9   11     -3.17      0.00
   -3    9   11     -6.98      0.00
   -2    9   11     -4.92      0.00
   -1    9   11     -3.56      0.00
    0    9   11      4.97      0.00
    1    9   11      1.35      0.00
    2    9   11     -2.36      0.00
    3    9   11      6.24      0.00
    4    9   11     -1.16      0.00
    5    9   11      0.62      0.00
    6    9   11     -0.50      0.00
    7    9   11      0.79      0.00
    8    9   11      3.62      0.00
    9    9   11     -3.50      0.00
   10    9   11      1.21      0.00
  -12   10   11      0.72      0.00
  -11   10   11     -0.98      0.00
  -10   10   11      1.37      0.00
   -9   10   11      1.29      0.00
   -8   10   11      0.41      0.00
   -7   10   11      1.31      0.00
   -6   10   11      7.40      0.00
   -5   10   11      6.48      0.00
   -4   10   11     -4.46      0.00
   -3   10   11     -3.88      0.00
   -2   10   11     -1.04      0.00
   -1   10   11      0.11      0.00
    0   10   11     -2.65      0.00
    1   10   11     -2.10      0.00
    2   10   11      7.32      0.00
    3   10   11      0.18      0.00
    4   10   11      3.70      0.00
    5   10   11      0.15      0.00
    6   10   11      3.32      0.00
    7   10   11     -5.17      0.00
    8   10   11     -1.78      0.00
  -11   11   11      1.07      0.00
  -10   11   11     -1.11      0.00
   -9   11   11      2.80      0.00
   -8   11   11     -1.17      0.00
   -7   11   11      0.50      0.00
   -6   11   11      6.88      0.00
   -5   11   11      1.90      0.00
   -4   11   11      0.68      0.00
   -3   11   11     -1.95      0.00
   -2   11   11     -2.44      0.00
   -1   11   11     -5.22      0.00
    0   11   11      0.58      0.00
    1   11   11      4.58      0.00
    2   11   11     -6.74      0.00
    3   11   11      4.71      0.00
    4   11   11      4.65      0.00
    5   11   11      1.92      0.00
    6   11   11     -1.55      0.00
    7   11   11      2.76      0.00
   -9   12   11      1.29      0.00
   -8   12   11      0.80      0.00
   -7   12   11      0.88      0.00
   -6   12   11      2.21      0.00
   -5   12   11      6.17      0.00
   -4   12   11     -0.85      0.00
   -3   12   11     -2.65      0.00
   -2   12   11     -4.39      0.00
   -1   12   11     -2.01      0.00
    0   12   11     -1.90      0.00
    1   12   11     -7.64      0.00
    2   12   11     -1.11      0.00
    3   12   11     -1.49      0.00
    4   12   11      1.84      0.00
    5   12   11      6.06      0.00
   -6   13   11      5.80      0.00
   -5   13   11      4.33      0.00
   -4   13   11      0.38      0.00
   -3   13   11     -3.85      0.00
   -2   13   11     -1.48      0.00
   -1   13   11     -4.18      0.00
    0   13   11     -6.85      0.00
    1   13   11     -0.14      0.00
    2   13   11     -7.29      0.00
  -16    0   12      0.03      0.00
  -14    0   12      0.17      0.00
  -12    0   12     -8.35      0.00
  -10    0   12      1.21      0.00
   -8    0   12      0.06      0.00
   -6    0   12     18.73      0.00
   -4    0   12     -7.62      0.00
   -2    0   12     -0.58      0.00
    0    0   12      1.87      0.00
    2    0   12     -1.26      0.00
    4    0   12     -7.52      0.00
    6    0   12      2.15      0.00
    8    0   12      3.36      0.00
   10    0   12      1.23      0.00
   12    0   12     -0.92      0.00
  -17    1   12     -1.99      0.00
  -16    1   12     -0.89      0.00
  -15    1   12      4.24      0.00
  -14    1   12      1.86      0.00
  -13    1   12     -6.28      0.00
  -12    1   12     -1.81      0.00
  -11    1   12     -0.82      0.00
  -10    1   12     -0.46      0.00
   -9    1   12     -2.04      0.00
   -8    1   12     -4.91      0.00
   -7    1   12     13.33      0.00
   -6    1   12      2.82      0.00
   -5    1   12      3.98      0.00
   -4    1   12      0.21      0.00
   -3    1   12     -3.95      0.00
   -2    1   12      0.78      0.00
   -1    1   12     -3.93      0.00
    0    1   12     -1.07      0.00
    1    1   12      4.92      0.00
    2    1   12      4.79      0.00
    3    1   12     -8.20      0.00
    4    1   12     -2.10      0.00
    5    1   12     -0.30      0.00
    6    1   12     -0.71      0.00
    7    1   12      0.83      0.00
    8    1   12     -1.02      0.00
    9    1   12      7.48      0.00
   10    1   12      1.25      0.00
   11    1   12     -1.02      0.00
   12    1   12      1.85      0.00
   13    1   12     -2.20      0.00
  -17    2   12      1.03      0.00
  -16    2   12     -0.51      0.00
  -15    2   12     -1.80      0.00
  -14    2   12      0.86      0.00
  -13    2   12      2.81      0.00
  -12    2   12     -6.15      0.00
  -11    2   12     -2.81      0.00
  -10    2   12      1.99      0.00
   -9    2   12     -1.25      0.00
   -8    2   12      1.27      0.00
   -7    2   12     -6.20      0.00
   -6    2   12     13.36      0.00
   -5    2   12     11.52      0.00
   -4    2   12     -5.54      0.00
   -3    2   12     -1.93      0.00
   -2    2   12     -6.05      0.00
   -1    2   12      1.59      0.00
    0    2   12     -0.90      0.00
    1    2   12      1.43      0.00
    2    2   12      0.12      0.00
    3    2   12      3.56      0.00
    4    2   12     -3.45      0.00
    5    2   12     -3.72      0.00
    6    2   12      1.59      0.00
    7    2   12     -1.29      0.00
    8    2   12      3.28      0.00
    9    2   12      2.56      0.00
   10    2   12      2.80      0.00
   11    2   12      2.79      0.00
   12    2   12      0.89      0.00
   13    2   12     -0.01      0.00
  -17    3   12     -1.36      0.00
  -16    3   12     -1.99      0.00
  -15    3   12      0.66      0.00
  -14    3   12      4.53      0.00
  -13    3   12     -3.88      0.00
  -12    3   12     -1.08      0.00
  -11    3   12     -2.88      0.00
  -10    3   12     -0.16      0.00
   -9    3   12      0.62      0.00
   -8    3   12     -6.10      0.00
   -7    3   12      4.43      0.00
   -6    3   12      8.21      0.00
   -5    3   12      4.20      0.00
   -4    3   12      4.95      0.00
   -3    3   12     -7.41      0.00
   -2    3   12      1.37      0.00
   -1    3   12     -4.65      0.00
    0    3   12     -4.95      0.00
    1    3   12      0.14      0.00
    2    3   12      7.61      0.00
    3    3   12      0.35      0.00
    4    3   12     -3.61      0.00
    5    3   12      0.40      0.00
    6    3   12     -0.92      0.00
    7    3   12      0.86      0.00
    8    3   12     -2.64      0.00
    9    3   12      3.37      0.00
   10    3   12      4.53      0.00
   11    3   12     -0.25      0.00
   12    3   12      2.51      0.00
   13    3   12      0.57      0.00
  -17    4   12      3.26      0.00
  -16    4   12     -0.18      0.00
  -15    4   12      0.19      0.00
  -14    4   12     -1.80      0.00
  -13    4   12      5.58      0.00
  -12    4   12     -2.86      0.00
  -11    4   12     -4.50      0.00
  -10    4   12      0.13      0.00
   -9    4   12     -0.48      0.00
   -8    4   12      0.37      0.00
   -7    4   12     -3.72      0.00
   -6    4   12      2.34      0.00
   -5    4   12     15.09      0.00
   -4    4   12      2.71      0.00
   -3    4   12     -1.14      0.00
   -2    4   12     -8.13      0.00
   -1    4   12     -6.30      0.00
    0    4   12     -1.30      0.00
    1    4   12     -1.00      0.00
    2    4   12     -1.97      0.00
    3    4   12      3.18      0.00
    4    4   12      4.17      0.00
    5    4   12     -5.11      0.00
    6    4   12      1.02      0.00
    7    4   12     -2.67      0.00
    8    4   12     -0.74      0.00
    9    4   12      0.64      0.00
   10    4   12     -0.72      0.00
   11    4   12      0.90      0.00
   12    4   12      2.43      0.00
  -16    5   12     -0.82      0.00
  -15    5   12     -1.42      0.00
  -14    5   12      4.62      0.00
  -13    5   12      0.43      0.00
  -12    5   12     -2.08      0.00
  -11    5   12     -2.14      0.00
  -10    5   12     -2.54      0.00
   -9    5   12      0.86      0.00
   -8    5   12     -2.74      0.00
   -7    5   12     -4.35      0.00
   -6    5   12      5.82      0.00
   -5    5   12      7.32      0.00
   -4    5   12      8.93      0.00
   -3    5   12     -1.39      0.00
   -2    5   12     -3.91      0.00
   -1    5   12     -1.57      0.00
    0    5   12     -7.96      0.00
    1    5   12     -9.39      0.00
    2    5   12      2.60      0.00
    3    5   12      4.30      0.00
    4    5   12     -3.51      0.00
    5    5   12     -0.34      0.00
    6    5   12     -1.57      0.00
    7    5   12      2.06      0.00
    8    5   12     -2.21      0.00
    9    5   12     -0.86      0.00
   10    5   12      3.01      0.00
   11    5   12     -0.72      0.00
   12    5   12      1.35      0.00
  -16    6   12     -0.76      0.00
  -15    6   12      0.88      0.00
  -14    6   12     -1.21      0.00
  -13    6   12      2.21      0.00
  -12    6   12     -0.42      0.00
  -11    6   12     -3.14      0.00
  -10    6   12     -1.83      0.00
   -9    6   12     -1.36      0.00
   -8    6   12     -1.48      0.00
   -7    6   12     -2.80      0.00
   -6    6   12     -3.39      0.00
   -5    6   12      8.92      0.00
   -4    6   12     10.88      0.00
   -3    6   12      6.23      0.00
   -2    6   12     -0.66      0.00
   -1    6   12     -5.71      0.00
    0    6   12     -4.51      0.00
    1    6   12      0.88      0.00
    2    6   12     -5.89      0.00
    3    6   12     -2.28      0.00
    4    6   12      5.98      0.00
    5    6   12     -2.25      0.00
    6    6   12     -0.08      0.00
    7    6   12      0.11      0.00
    8    6   12      0.93      0.00
    9    6   12      2.15      0.00
   10    6   12      0.52      0.00
   11    6   12     -0.19      0.00
  -15    7   12     -2.75      0.00
  -14    7   12      2.90      0.00
  -13    7   12      1.57      0.00
  -12    7   12     -0.74      0.00
  -11    7   12     -1.92      0.00
  -10    7   12     -2.37      0.00
   -9    7   12      0.70      0.00
   -8    7   12      0.57      0.00
   -7    7   12     -5.64      0.00
   -6    7   12     -3.81      0.00
   -5    7   12      6.18      0.00
   -4    7   12      9.12      0.00
   -3    7   12      6.16      0.00
   -2    7   12      2.11      0.00
   -1    7   12      3.48      0.00
    0    7   12      3.14      0.00
    1    7   12     -7.79      0.00
    2    7   12     -3.58      0.00
    3    7   12      4.02      0.00
    4    7   12     -1.12      0.00
    5    7   12      0.56      0.00
    6    7   12     -2.57      0.00
    7    7   12      4.17      0.00
    8    7   12     -0.35      0.00
    9    7   12     -0.86      0.00
   10    7   12      3.54      0.00
   11    7   12     -0.38      0.00
  -14    8   12      0.62      0.00
  -13    8   12      0.45      0.00
  -12    8   12      1.26      0.00
  -11    8   12      0.32      0.00
  -10    8   12      0.61      0.00
   -9    8   12     -1.42      0.00
   -8    8   12     -0.26      0.00
   -7    8   12     -3.00      0.00
   -6    8   12     -6.68      0.00
   -5    8   12     -2.55      0.00
   -4    8   12      6.51      0.00
   -3    8   12      8.91      0.00
   -2    8   12      3.66      0.00
   -1    8   12      1.90      0.00
    0    8   12     -2.37      0.00
    1    8   12      3.75      0.00
    2    8   12     -0.64      0.00
    3    8   12     -5.98      0.00
    4    8   12      2.84      0.00
    5    8   12     -1.17      0.00
    6    8   12     -1.21      0.00
    7    8   12     -0.83      0.00
    8    8   12     -0.82      0.00
    9    8   12      1.80      0.00
   10    8   12     -2.29      0.00
  -13    9   12      1.40      0.00
  -12    9   12     -0.09      0.00
  -11    9   12      0.92      0.00
  -10    9   12     -0.25      0.00
   -9    9   12     -1.02      0.00
   -8    9   12      1.67      0.00
   -7    9   12     -1.89      0.00
   -6    9   12     -9.04      0.00
   -5    9   12     -5.26      0.00
   -4    9   12      2.98      0.00
   -3    9   12      0.98      0.00
   -2    9   12      2.95      0.00
   -1    9   12      0.78      0.00
    0    9   12      6.23      0.00
    1    9   12     -2.23      0.00
    2    9   12     -3.31      0.00
    3    9   12     -0.93      0.00
    4    9   12     -2.19      0.00
    5    9   12     -1.21      0.00
    6    9   12     -1.22      0.00
    7    9   12      2.00      0.00
    8    9   12      1.83      0.00
    9    9   12     -6.52      0.00
  -12   10   12     -0.99      0.00
  -11   10   12      0.96      0.00
  -10   10   12      1.07      0.00
   -9   10   12     -2.00      0.00
   -8   10   12      1.30      0.00
   -7   10   12      0.45      0.00
   -6   10   12     -4.56      0.00
   -5   10   12     -5.73      0.00
   -4   10   12     -3.64      0.00
   -3   10   12      2.53      0.00
   -2   10   12      2.09      0.00
   -1   10   12      3.29      0.00
    0   10   12     -4.38      0.00
    1   10   12      1.31      0.00
    2   10   12      5.13      0.00
    3   10   12     -5.82      0.00
    4   10   12     -2.10      0.00
    5   10   12     -1.98      0.00
    6   10   12     -0.26      0.00
    7   10   12     -2.77      0.00
  -10   11   12     -0.28      0.00
   -9   11   12     -0.47      0.00
   -8   11   12     -0.27      0.00
   -7   11   12      2.60      0.00
   -6   11   12     -1.68      0.00
   -5   11   12     -6.92      0.00
   -4   11   12      0.05      0.00
   -3   11   12      1.14      0.00
   -2   11   12      1.66      0.00
   -1   11   12      0.50      0.00
    0   11   12      3.91      0.00
    1   11   12      4.70      0.00
    2   11   12     -2.06      0.00
    3   11   12      3.93      0.00
    4   11   12     -6.83      0.00
    5   11   12     -4.55      0.00
    6   11   12     -5.63      0.00
   -8   12   12     -0.57      0.00
   -7   12   12      1.42      0.00
   -6   12   12     -4.48      0.00
   -5   12   12     -2.98      0.00
   -4   12   12     -1.90      0.00
   -3   12   12      1.71      0.00
   -2   12   12      2.47      0.00
   -1   12   12      6.80      0.00
    0   12   12      3.30      0.00
    1   12   12     -1.78      0.00
    2   12   12     10.42      0.00
    3   12   12     -0.77      0.00
    4   12   12     -1.81      0.00
   -4   13   12     -2.35      0.00
   -3   13   12      2.46      0.00
   -2   13   12      3.93      0.00
   -1   13   12      2.68      0.00
  -17    0   13      0.72      0.00
  -15    0   13     -4.50      0.00
  -13    0   13      4.55      0.00
  -11    0   13      5.18      0.00
   -9    0   13      3.26      0.00
   -7    0   13     -4.46      0.00
   -5    0   13    -11.85      0.00
   -3    0   13      5.82      0.00
   -1    0   13      2.17      0.00
    1    0   13     -4.88      0.00
    3    0   13      4.82      0.00
    5    0   13      4.04      0.00
    7    0   13      1.32      0.00
    9    0   13     -5.88      0.00
   11    0   13      1.67      0.00
  -17    1   13     -0.79      0.00
  -16    1   13      1.14      0.00
  -15    1   13      0.95      0.00
  -14    1   13     -3.23      0.00
  -13    1   13     -2.30      0.00
  -12    1   13      7.62      0.00
  -11    1   13      1.47      0.00
  -10    1   13     -0.92      0.00
   -9    1   13     -0.93      0.00
   -8    1   13      4.19      0.00
   -7    1   13      5.03      0.00
   -6    1   13    -17.24      0.00
   -5    1   13     -5.10      0.00
   -4    1   13      1.56      0.00
   -3    1   13      2.61      0.00
   -2    1   13      2.52      0.00
   -1    1   13      1.19      0.00
    0    1   13      1.54      0.00
    1    1   13      0.70      0.00
    2    1   13     -2.76      0.00
    3    1   13     -3.93      0.00
    4    1   13      6.52      0.00
    5    1   13      1.31      0.00
    6    1   13     -0.14      0.00
    7    1   13      1.25      0.00
    8    1   13     -0.95      0.00
    9    1   13     -0.13      0.00
   10    1   13     -4.11      0.00
   11    1   13     -1.57      0.00
   12    1   13      0.53      0.00
  -17    2   13      1.16      0.00
  -16    2   13      1.61      0.00
  -15    2   13     -2.19      0.00
  -14    2   13     -1.08      0.00
  -13    2   13      1.63      0.00
  -12    2   13      0.25      0.00
  -11    2   13      3.32      0.00
  -10    2   13      0.93      0.00
   -9    2   13     -0.42      0.00
   -8    2   13      3.67      0.00
   -7    2   13     -5.69      0.00
   -6    2   13      1.81      0.00
   -5    2   13    -11.07      0.00
   -4    2   13     -6.06      0.00
   -3    2   13      3.74      0.00
   -2    2   13      1.29      0.00
   -1    2   13      4.68      0.00
    0    2   13      2.71      0.00
    1    2   13     -0.13      0.00
    2    2   13     -4.64      0.00
    3    2   13      1.97      0.00
    4    2   13     -0.89      0.00
    5    2   13      1.91      0.00
    6    2   13      0.57      0.00
    7    2   13     -0.57      0.00
    8    2   13      2.84      0.00
    9    2   13     -6.09      0.00
   10    2   13     -2.80      0.00
   11    2   13      0.96      0.00
   12    2   13     -3.53      0.00
  -17    3   13     -3.36      0.00
  -16    3   13      0.30      0.00
  -15    3   13      2.77      0.00
  -14    3   13      0.17      0.00
  -13    3   13     -4.76      0.00
  -12    3   13      4.63      0.00
  -11    3   13      3.34      0.00
  -10    3   13      0.09      0.00
   -9    3   13     -0.92      0.00
   -8    3   13     -1.13      0.00
   -7    3   13      9.73      0.00
   -6    3   13     -8.11      0.00
   -5    3   13    -11.73      0.00
   -4    3   13     -2.80      0.00
   -3    3   13     -0.82      0.00
   -2    3   13      7.35      0.00
   -1    3   13      0.07      0.00
    0    3   13      3.47      0.00
    1    3   13      3.48      0.00
    2    3   13      1.26      0.00
    3    3   13     -6.06      0.00
    4    3   13      0.06      0.00
    5    3   13      2.99      0.00
    6    3   13     -0.71      0.00
    7    3   13      1.33      0.00
    8    3   13      0.21      0.00
    9    3   13      0.29      0.00
   10    3   13     -1.18      0.00
   11    3   13     -2.37      0.00
   12    3   13     -0.95      0.00
  -16    4   13     -1.04      0.00
  -15    4   13      1.28      0.00
  -14    4   13     -3.22      0.00
  -13    4   13      2.48      0.00
  -12    4   13     -1.93      0.00
  -11    4   13      2.88      0.00
  -10    4   13      2.56      0.00
   -9    4   13     -0.69      0.00
   -8    4   13      3.38      0.00
   -7    4   13     -1.34      0.00
   -6    4   13      0.52      0.00
   -5    4   13     -5.17      0.00
   -4    4   13    -11.35      0.00
   -3    4   13      0.11      0.00
   -2    4   13      0.20      0.00
   -1    4   13      4.90      0.00
    0    4   13      7.54      0.00
    1    4   13      5.11      0.00
    2    4   13     -1.66      0.00
    3    4   13     -0.15      0.00
    4    4   13      1.01      0.00
    5    4   13     -0.78      0.00
    6    4   13      2.51      0.00
    7    4   13     -2.15      0.00
    8    4   13      3.47      0.00
    9    4   13     -0.59      0.00
   10    4   13     -3.49      0.00
   11    4   13      1.49      0.00
   12    4   13     -1.09      0.00
  -16    5   13      0.24      0.00
  -15    5   13     -0.22      0.00
  -14    5   13      3.44      0.00
  -13    5   13     -4.64      0.00
  -12    5   13      0.23      0.00
  -11    5   13      3.73      0.00
  -10    5   13      1.03      0.00
   -9    5   13      1.43      0.00
   -8    5   13     -1.33      0.00
   -7    5   13      6.03      0.00
   -6    5   13      3.85      0.00
   -5    5   13    -10.10      0.00
   -4    5   13     -8.49      0.00
   -3    5   13     -7.75      0.00
   -2    5   13      1.69      0.00
   -1    5   13      4.87      0.00
    0    5   13      0.89      0.00
    1    5   13      4.28      0.00
    2    5   13      7.60      0.00
    3    5   13     -1.00      0.00
    4    5   13     -6.10      0.00
    5    5   13      4.14      0.00
    6    5   13     -0.89      0.00
    7    5   13      0.48      0.00
    8    5   13     -1.25      0.00
    9    5   13     -1.82      0.00
   10    5   13     -0.56      0.00
   11    5   13     -0.84      0.00
  -15    6   13      2.32      0.00
  -14    6   13     -2.98      0.00
  -13    6   13     -0.02      0.00
  -12    6   13     -0.25      0.00
  -11    6   13      0.36      0.00
  -10    6   13      2.37      0.00
   -9    6   13     -0.56      0.00
   -8    6   13      0.47      0.00
   -7    6   13      4.14      0.00
   -6    6   13      1.80      0.00
   -5    6   13      0.36      0.00
   -4    6   13    -10.46      0.00
   -3    6   13     -7.66      0.00
   -2    6   13     -4.68      0.00
   -1    6   13     -3.77      0.00
    0    6   13      2.06      0.00
    1    6   13      6.49      0.00
    2    6   13      0.19      0.00
    3    6   13     -1.00      0.00
    4    6   13      0.77      0.00
    5    6   13     -2.45      0.00
    6    6   13      1.61      0.00
    7    6   13     -3.66      0.00
    8    6   13     -0.40      0.00
    9    6   13      0.01      0.00
   10    6   13     -4.11      0.00
   11    6   13      0.56      0.00
  -15    7   13     -1.10      0.00
  -14    7   13      1.62      0.00
  -13    7   13     -2.66      0.00
  -12    7   13     -1.83      0.00
  -11    7   13     -0.57      0.00
  -10    7   13      0.09      0.00
   -9    7   13      0.84      0.00
   -8    7   13     -1.54      0.00
   -7    7   13      1.03      0.00
   -6    7   13      8.94      0.00
   -5    7   13      0.75      0.00
   -4    7   13     -7.07      0.00
   -3    7   13     -8.34      0.00
   -2    7   13     -4.71      0.00
   -1    7   13     -0.35      0.00
    0    7   13     -1.86      0.00
    1    7   13     -4.35      0.00
    2    7   13      4.19      0.00
    3    7   13      4.20      0.00
    4    7   13     -5.19      0.00
    5    7   13      1.94      0.00
    6    7   13      0.50      0.00
    7    7   13      1.80      0.00
    8    7   13     -1.85      0.00
    9    7   13      0.31      0.00
   10    7   13     -0.63      0.00
  -14    8   13     -2.20      0.00
  -13    8   13     -0.87      0.00
  -12    8   13     -0.47      0.00
  -11    8   13     -1.55      0.00
  -10    8   13      0.10      0.00
   -9    8   13     -0.39      0.00
   -8    8   13     -1.64      0.00
   -7    8   13      1.95      0.00
   -6    8   13      6.48      0.00
   -5    8   13      5.05      0.00
   -4    8   13      0.82      0.00
   -3    8   13     -3.48      0.00
   -2    8   13     -3.91      0.00
   -1    8   13     -2.43      0.00
    0    8   13     -3.67      0.00
    1    8   13      2.22      0.00
    2    8   13      1.16      0.00
    3    8   13     -0.14      0.00
    4    8   13      3.11      0.00
    5    8   13     -1.20      0.00
    6    8   13      4.28      0.00
    7    8   13     -1.93      0.00
    8    8   13      1.10      0.00
    9    8   13      2.19      0.00
  -13    9   13      0.03      0.00
  -12    9   13      0.44      0.00
  -11    9   13     -0.60      0.00
  -10    9   13     -1.17      0.00
   -9    9   13      2.22      0.00
   -8    9   13     -0.85      0.00
   -7    9   13     -2.26      0.00
   -6    9   13      5.06      0.00
   -5    9   13      8.43      0.00
   -4    9   13      2.82      0.00
   -3    9   13     -2.92      0.00
   -2    9   13      0.87      0.00
   -1    9   13     -1.47      0.00
    0    9   13      4.64      0.00
    1    9   13     -5.31      0.00
    2    9   13     -1.59      0.00
    3    9   13      4.08      0.00
    4    9   13      1.26      0.00
    5    9   13      1.39      0.00
    6    9   13      3.24      0.00
    7    9   13      0.26      0.00
    8    9   13     -1.47      0.00
  -11   10   13      0.59      0.00
  -10   10   13     -0.68      0.00
   -9   10   13      0.94      0.00
   -8   10   13     -0.15      0.00
   -7   10   13     -3.73      0.00
   -6   10   13      1.91      0.00
   -5   10   13      4.67      0.00
   -4   10   13      2.33      0.00
   -3   10   13      2.91      0.00
   -2   10   13     -2.26      0.00
   -1   10   13      2.10      0.00
    0   10   13     -5.19      0.00
    1   10   13      3.04      0.00
    2   10   13     -2.25      0.00
    3   10   13     -0.58      0.00
    4   10   13      5.37      0.00
    5   10   13      4.04      0.00
    6   10   13      2.04      0.00
    7   10   13     -1.07      0.00
  -10   11   13     -2.34      0.00
   -9   11   13      2.21      0.00
   -8   11   13      0.48      0.00
   -7   11   13     -1.52      0.00
   -6   11   13      0.29      0.00
   -5   11   13      2.91      0.00
   -4   11   13      3.49      0.00
   -3   11   13     -1.50      0.00
   -2   11   13     -1.46      0.00
   -1   11   13     -6.48      0.00
    0   11   13      3.84      0.00
    1   11   13     -1.76      0.00
    2   11   13     -7.13      0.00
    3   11   13      2.15      0.00
    4   11   13      0.87      0.00
    5   11   13      5.59      0.00
   -7   12   13     -0.03      0.00
   -6   12   13     -0.01      0.00
   -5   12   13      6.34      0.00
   -4   12   13      0.85      0.00
   -3   12   13     -1.58      0.00
   -2   12   13     -3.98      0.00
   -1   12   13     -1.78      0.00
    0   12   13     -5.28      0.00
    1   12   13     -2.77      0.00
    2   12   13      1.45      0.00
  -16    0   14     -1.87      0.00
  -14    0   14      4.86      0.00
  -12    0   14     -7.02      0.00
   -8    0   14     -6.20      0.00
   -6    0   14     11.72      0.00
   -4    0   14      3.92      0.00
   -2    0   14     -5.64      0.00
    0    0   14     -3.13      0.00
    2    0   14      5.27      0.00
    4    0   14     -5.12      0.00
    6    0   14     -3.35      0.00
    8    0   14     -4.04      0.00
   10    0   14      4.05      0.00
   12    0   14     -0.25      0.00
  -17    1   14     -0.60      0.00
  -16    1   14     -0.75      0.00
  -15    1   14      2.15      0.00
  -14    1   14      0.53      0.00
  -13    1   14     -0.38      0.00
  -12    1   14      1.56      0.00
  -11    1   14     -6.17      0.00
  -10    1   14      0.34      0.00
   -9    1   14      0.24      0.00
   -8    1   14      2.28      0.00
   -7    1   14     -2.32      0.00
   -6    1   14     -2.91      0.00
   -5    1   14     15.97      0.00
   -4    1   14      4.91      0.00
   -3    1   14     -3.30      0.00
   -2    1   14     -2.23      0.00
   -1    1   14     -3.09      0.00
    0    1   14     -2.61      0.00
    1    1   14      0.15      0.00
    2    1   14      1.08      0.00
    3    1   14      0.17      0.00
    4    1   14      2.62      0.00
    5    1   14     -4.59      0.00
    6    1   14      0.76      0.00
    7    1   14     -1.60      0.00
    8    1   14     -1.26      0.00
    9    1   14      4.05      0.00
   10    1   14      1.02      0.00
   11    1   14     -0.47      0.00
   12    1   14      2.49      0.00
  -17    2   14      2.02      0.00
  -16    2   14     -1.25      0.00
  -15    2   14     -3.35      0.00
  -14    2   14      1.96      0.00
  -13    2   14      2.00      0.00
  -12    2   14     -4.30      0.00
  -11    2   14     -2.16      0.00
  -10    2   14     -0.06      0.00
   -9    2   14      2.65      0.00
   -8    2   14     -2.12      0.00
   -7    2   14     -6.15      0.00
   -6    2   14      9.64      0.00
   -5    2   14      3.98      0.00
   -4    2   14      6.43      0.00
   -3    2   14      1.17      0.00
   -2    2   14     -2.87      0.00
   -1    2   14     -0.98      0.00
    0    2   14     -3.37      0.00
    1    2   14     -3.63      0.00
    2    2   14      0.42      0.00
    3    2   14      5.53      0.00
    4    2   14     -2.99      0.00
    5    2   14      0.81      0.00
    6    2   14     -0.15      0.00
    7    2   14      0.13      0.00
    8    2   14      0.14      0.00
    9    2   14     -1.51      0.00
   10    2   14      5.12      0.00
   11    2   14      1.88      0.00
  -16    3   14      1.05      0.00
  -15    3   14      0.82      0.00
  -14    3   14     -1.46      0.00
  -13    3   14     -0.84      0.00
  -12    3   14      1.67      0.00
  -11    3   14     -3.68      0.00
  -10    3   14     -3.07      0.00
   -9    3   14      0.42      0.00
   -8    3   14      0.72      0.00
   -7    3   14      2.47      0.00
   -6    3   14     -8.35      0.00
   -5    3   14      8.66      0.00
   -4    3   14      9.71      0.00
   -3    3   14      1.48      0.00
   -2    3   14      0.01      0.00
   -1    3   14     -5.04      0.00
    0    3   14     -2.66      0.00
    1    3   14     -4.07      0.00
    2    3   14     -0.45      0.00
    3    3   14     -2.24      0.00
    4    3   14      3.54      0.00
    5    3   14     -2.47      0.00
    6    3   14     -0.08      0.00
    7    3   14      1.73      0.00
    8    3   14     -2.95      0.00
    9    3   14      3.07      0.00
   10    3   14      2.61      0.00
   11    3   14     -2.03      0.00
  -16    4   14      1.16      0.00
  -15    4   14     -0.67      0.00
  -14    4   14     -2.24      0.00
  -13    4   14      4.07      0.00
  -12    4   14     -2.48      0.00
  -11    4   14     -1.91      0.00
  -10    4   14     -1.43      0.00
   -9    4   14     -0.04      0.00
   -8    4   14      1.52      0.00
   -7    4   14     -8.23      0.00
   -6    4   14      2.56      0.00
   -5    4   14      4.32      0.00
   -4    4   14      6.84      0.00
   -3    4   14      7.47      0.00
   -2    4   14     -1.98      0.00
   -1    4   14     -0.40      0.00
    0    4   14     -2.07      0.00
    1    4   14     -6.37      0.00
    2    4   14     -6.22      0.00
    3    4   14      3.53      0.00
    4    4   14      0.53      0.00
    5    4   14     -1.80      0.00
    6    4   14      0.05      0.00
    7    4   14     -0.35      0.00
    8    4   14      1.46      0.00
    9    4   14      0.09      0.00
   10    4   14      1.71      0.00
   11    4   14      3.01      0.00
  -15    5   14     -1.13      0.00
  -14    5   14      2.65      0.00
  -13    5   14     -3.02      0.00
  -12    5   14      2.90      0.00
  -11    5   14     -0.35      0.00
  -10    5   14     -3.62      0.00
   -9    5   14     -0.03      0.00
   -8    5   14     -1.62      0.00
   -7    5   14      1.75      0.00
   -6    5   14     -7.02      0.00
   -5    5   14     -0.92      0.00
   -4    5   14      9.63      0.00
   -3    5   14      7.93      0.00
   -2    5   14      6.37      0.00
   -1    5   14      1.71      0.00
    0    5   14     -3.77      0.00
    1    5   14     -2.57      0.00
    2    5   14     -1.27      0.00
    3    5   14     -3.24      0.00
    4    5   14      1.35      0.00
    5    5   14      3.33      0.00
    6    5   14     -2.14      0.00
    7    5   14      4.25      0.00
    8    5   14     -0.69      0.00
    9    5   14      0.85      0.00
   10    5   14      5.22      0.00
  -15    6   14      1.54      0.00
  -14    6   14     -2.96      0.00
  -13    6   14      3.95      0.00
  -12    6   14      1.03      0.00
  -11    6   14     -1.01      0.00
  -10    6   14      0.67      0.00
   -9    6   14     -1.73      0.00
   -8    6   14      3.09      0.00
   -7    6   14     -3.09      0.00
   -6    6   14     -6.69      0.00
   -5    6   14      0.96      0.00
   -4    6   14      2.42      0.00
   -3    6   14      9.09      0.00
   -2    6   14      5.35      0.00
   -1    6   14      1.50      0.00
    0    6   14      5.40      0.00
    1    6   14      0.85      0.00
    2    6   14     -6.08      0.00
    3    6   14     -0.35      0.00
    4    6   14      4.26      0.00
    5    6   14     -1.11      0.00
    6    6   14      0.23      0.00
    7    6   14     -0.46      0.00
    8    6   14      1.37      0.00
    9    6   14      1.65      0.00
   10    6   14      0.04      0.00
  -14    7   14      3.17      0.00
  -13    7   14     -0.76      0.00
  -12    7   14      1.51      0.00
  -11    7   14      1.88      0.00
  -10    7   14     -0.70      0.00
   -9    7   14      0.28      0.00
   -8    7   14      0.79      0.00
   -7    7   14     -0.10      0.00
   -6    7   14     -3.02      0.00
   -5    7   14     -9.18      0.00
   -4    7   14      0.31      0.00
   -3    7   14      4.82      0.00
   -2    7   14      4.69      0.00
   -1    7   14      4.27      0.00
    0    7   14      0.47      0.00
    1    7   14     -0.34      0.00
    2    7   14      1.74      0.00
    3    7   14     -2.74      0.00
    4    7   14     -1.63      0.00
    5    7   14      1.92      0.00
    6    7   14     -4.49      0.00
    7    7   14      1.36      0.00
    8    7   14     -1.32      0.00
    9    7   14     -1.76      0.00
  -13    8   14      1.20      0.00
  -12    8   14     -0.68      0.00
  -11    8   14     -0.03      0.00
  -10    8   14      0.55      0.00
   -9    8   14     -2.77      0.00
   -8    8   14      1.00      0.00
   -7    8   14      2.21      0.00
   -6    8   14     -7.06      0.00
   -5    8   14     -6.21      0.00
   -4    8   14     -2.12      0.00
   -3    8   14     -0.82      0.00
   -2    8   14      1.40      0.00
   -1    8   14     -1.16      0.00
    0    8   14     -0.36      0.00
    1    8   14      3.83      0.00
    2    8   14     -0.16      0.00
    3    8   14     -3.61      0.00
    4    8   14      0.98      0.00
    5    8   14     -3.43      0.00
    6    8   14     -0.48      0.00
    7    8   14     -4.24      0.00
    8    8   14      2.67      0.00
  -12    9   14     -2.28      0.00
  -11    9   14     -0.83      0.00
  -10    9   14     -0.35      0.00
   -9    9   14     -1.07      0.00
   -8    9   14     -1.00      0.00
   -7    9   14      1.90      0.00
   -6    9   14      0.04      0.00
   -5    9   14     -5.66      0.00
   -4    9   14     -6.36      0.00
   -3    9   14     -1.82      0.00
   -2    9   14      1.66      0.00
   -1    9   14     -1.40      0.00
    0    9   14      0.52      0.00
    1    9   14     -3.46      0.00
    2    9   14      2.65      0.00
    3    9   14      0.34      0.00
    4    9   14     -4.69      0.00
    5    9   14      0.52      0.00
    6    9   14     -4.05      0.00
    7    9   14      0.05      0.00
  -11   10   14     -1.09      0.00
  -10   10   14      1.23      0.00
   -9   10   14     -2.38      0.00
   -8   10   14     -1.09      0.00
   -7   10   14      2.39      0.00
   -6   10   14      0.49      0.00
   -5   10   14     -3.71      0.00
   -4   10   14     -2.44      0.00
   -3   10   14      0.41      0.00
   -2   10   14     -0.87      0.00
   -1   10   14      4.58      0.00
    0   10   14     -6.72      0.00
    1   10   14      3.75      0.00
    2   10   14      1.48      0.00
    3   10   14      0.48      0.00
    4   10   14     -2.55      0.00
    5   10   14     -4.67      0.00
    6   10   14     -5.77      0.00
   -9   11   14      1.17      0.00
   -8   11   14     -3.46      0.00
   -7   11   14      0.69      0.00
   -6   11   14     -1.14      0.00
   -5   11   14     -2.65      0.00
   -4   11   14     -1.33      0.00
   -3   11   14     -0.55      0.00
   -2   11   14      4.91      0.00
   -1   11   14      0.59      0.00
    0   11   14      8.32      0.00
    1   11   14     -5.71      0.00
    2   11   14      3.24      0.00
    3   11   14      3.73      0.00
    4   11   14     -4.98      0.00
   -5   12   14     -1.95      0.00
   -4   12   14     -3.40      0.00
   -3   12   14      1.47      0.00
   -2   12   14      1.67      0.00
   -1   12   14      9.29      0.00
    0   12   14     -1.55      0.00
  -15    0   15     -1.06      0.00
  -13    0   15     -2.23      0.00
  -11    0   15      6.68      0.00
   -9    0   15     -3.79      0.00
   -7    0   15      5.66      0.00
   -5    0   15    -16.11      0.00
   -3    0   15      0.95      0.00
   -1    0   15      6.21      0.00
    1    0   15      2.93      0.00
    3    0   15     -4.40      0.00
    5    0   15      3.71      0.00
    7    0   15      3.34      0.00
    9    0   15      0.63      0.00
   11    0   15     -0.41      0.00
  -16    1   15      2.43      0.00
  -15    1   15      1.78      0.00
  -14    1   15     -2.91      0.00
  -13    1   15     -1.29      0.00
  -12    1   15      4.00      0.00
  -11    1   15     -0.43      0.00
  -10    1   15      1.92      0.00
   -9    1   15     -2.13      0.00
   -8    1   15      1.52      0.00
   -7    1   15     -0.57      0.00
   -6    1   15     -3.48      0.00
   -5    1   15      0.21      0.00
   -4    1   15    -10.39      0.00
   -3    1   15     -3.27      0.00
   -2    1   15      4.49      0.00
   -1    1   15      0.54      0.00
    0    1   15      4.10      0.00
    1    1   15      3.04      0.00
    2    1   15     -2.45      0.00
    3    1   15     -1.59      0.00
    4    1   15      0.83      0.00
    5    1   15     -2.38      0.00
    6    1   15      2.46      0.00
    7    1   15     -3.00      0.00
    8    1   15      3.22      0.00
    9    1   15     -1.14      0.00
   10    1   15     -5.21      0.00
   11    1   15     -0.79      0.00
  -16    2   15     -1.12      0.00
  -15    2   15     -0.39      0.00
  -14    2   15      1.99      0.00
  -13    2   15      0.07      0.00
  -12    2   15     -1.57      0.00
  -11    2   15      6.04      0.00
  -10    2   15      2.62      0.00
   -9    2   15     -0.73      0.00
   -8    2   15     -5.27      0.00
   -7    2   15      3.33      0.00
   -6    2   15      7.63      0.00
   -5    2   15    -10.57      0.00
   -4    2   15     -5.99      0.00
   -3    2   15     -2.70      0.00
   -2    2   15      0.11      0.00
   -1    2   15      2.22      0.00
    0    2   15      1.27      0.00
    1    2   15      3.51      0.00
    2    2   15      2.68      0.00
    3    2   15     -0.13      0.00
    4    2   15     -3.48      0.00
    5    2   15      3.78      0.00
    6    2   15     -2.41      0.00
    7    2   15     -1.44      0.00
    8    2   15      0.14      0.00
    9    2   15     -4.03      0.00
   10    2   15     -1.08      0.00
   11    2   15     -1.07      0.00
  -16    3   15     -2.09      0.00
  -15    3   15      1.25      0.00
  -14    3   15     -0.95      0.00
  -13    3   15     -0.26      0.00
  -12    3   15      1.95      0.00
  -11    3   15      1.69      0.00
  -10    3   15      1.76      0.00
   -9    3   15      0.36      0.00
   -8    3   15      1.21      0.00
   -7    3   15      2.66      0.00
   -6    3   15     -3.40      0.00
   -5    3   15      2.31      0.00
   -4    3   15     -6.97      0.00
   -3    3   15     -6.34      0.00
   -2    3   15      0.44      0.00
   -1    3   15     -0.70      0.00
    0    3   15      2.65      0.00
    1    3   15      4.31      0.00
    2    3   15      3.63      0.00
    3    3   15     -1.99      0.00
    4    3   15      3.30      0.00
    5    3   15     -1.40      0.00
    6    3   15      2.53      0.00
    7    3   15     -0.75      0.00
    8    3   15     -1.93      0.00
    9    3   15      2.00      0.00
   10    3   15     -5.93      0.00
  -15    4   15     -2.44      0.00
  -14    4   15      0.23      0.00
  -13    4   15      1.22      0.00
  -12    4   15     -3.08      0.00
  -11    4   15      1.86      0.00
  -10    4   15      4.21      0.00
   -9    4   15      2.06      0.00
   -8    4   15     -1.48      0.00
   -7    4   15     -1.71      0.00
   -6    4   15     10.20      0.00
   -5    4   15     -2.63      0.00
   -4    4   15     -6.70      0.00
   -3    4   15     -6.81      0.00
   -2    4   15     -6.13      0.00
   -1    4   15      0.92      0.00
    0    4   15     -0.06      0.00
    1    4   15      1.59      0.00
    2    4   15      3.43      0.00
    3    4   15      5.08      0.00
    4    4   15     -4.73      0.00
    5    4   15      1.92      0.00
    6    4   15      0.23      0.00
    7    4   15     -2.69      0.00
    8    4   15      1.98      0.00
    9    4   15     -2.85      0.00
   10    4   15     -3.74      0.00
  -15    5   15     -1.73      0.00
  -14    5   15      1.35      0.00
  -13    5   15     -3.63      0.00
  -12    5   15      1.58      0.00
  -11    5   15     -0.11      0.00
  -10    5   15      0.27      0.00
   -9    5   15      2.25      0.00
   -8    5   15     -0.77      0.00
   -7    5   15      5.10      0.00
   -6    5   15     -0.68      0.00
   -5    5   15      4.35      0.00
   -4    5   15     -1.76      0.00
   -3    5   15     -7.68      0.00
   -2    5   15     -5.61      0.00
   -1    5   15     -4.27      0.00
    0    5   15     -4.98      0.00
    1    5   15      1.90      0.00
    2    5   15      3.59      0.00
    3    5   15     -1.79      0.00
    4    5   15      0.13      0.00
    5    5   15     -1.11      0.00
    6    5   15     -0.61      0.00
    7    5   15      0.65      0.00
    8    5   15     -3.34      0.00
    9    5   15      0.24      0.00
   10    5   15     -1.49      0.00
  -14    6   15     -3.58      0.00
  -13    6   15      2.56      0.00
  -12    6   15     -3.21      0.00
  -11    6   15     -1.37      0.00
  -10    6   15      2.65      0.00
   -9    6   15     -0.08      0.00
   -8    6   15      1.29      0.00
   -7    6   15     -4.16      0.00
   -6    6   15      6.47      0.00
   -5    6   15      6.98      0.00
   -4    6   15     -0.71      0.00
   -3    6   15     -3.34      0.00
   -2    6   15     -6.26      0.00
   -1    6   15     -4.42      0.00
    0    6   15      0.11      0.00
    1    6   15     -4.35      0.00
    2    6   15     -0.90      0.00
    3    6   15      5.14      0.00
    4    6   15     -0.76      0.00
    5    6   15     -1.68      0.00
    6    6   15      2.71      0.00
    7    6   15     -1.74      0.00
    8    6   15      1.17      0.00
    9    6   15      1.81      0.00
  -14    7   15      2.01      0.00
  -13    7   15     -2.91      0.00
  -12    7   15      1.33      0.00
  -11    7   15      0.48      0.00
  -10    7   15     -0.86      0.00
   -9    7   15      3.57      0.00
   -8    7   15     -1.29      0.00
   -7    7   15      0.47      0.00
   -6    7   15      4.59      0.00
   -5    7   15      2.16      0.00
   -4    7   15      6.86      0.00
   -3    7   15      0.32      0.00
   -2    7   15     -2.30      0.00
   -1    7   15      0.19      0.00
    0    7   15     -3.42      0.00
    1    7   15     -1.37      0.00
    2    7   15      1.34      0.00
    3    7   15      0.13      0.00
    4    7   15      2.18      0.00
    5    7   15      0.40      0.00
    6    7   15      2.51      0.00
    7    7   15      3.35      0.00
    8    7   15     -0.37      0.00
  -13    8   15      2.28      0.00
  -12    8   15      1.01      0.00
  -11    8   15      1.20      0.00
  -10    8   15      1.43      0.00
   -9    8   15      1.82      0.00
   -8    8   15      2.77      0.00
   -7    8   15     -1.58      0.00
   -6    8   15     -0.84      0.00
   -5    8   15      9.57      0.00
   -4    8   15      5.37      0.00
   -3    8   15      0.41      0.00
   -2    8   15      0.57      0.00
   -1    8   15     -1.11      0.00
    0    8   15      3.40      0.00
    1    8   15      0.61      0.00
    2    8   15     -3.32      0.00
    3    8   15      2.28      0.00
    4    8   15      1.27      0.00
    5    8   15     -0.85      0.00
    6    8   15      4.90      0.00
    7    8   15     -1.17      0.00
  -11    9   15      1.91      0.00
  -10    9   15     -0.57      0.00
   -9    9   15      2.59      0.00
   -8    9   15      0.81      0.00
   -7    9   15     -1.93      0.00
   -6    9   15      2.03      0.00
   -5    9   15      1.15      0.00
   -4    9   15      2.72      0.00
   -3    9   15      4.54      0.00
   -2    9   15     -1.28      0.00
   -1    9   15     -0.64      0.00
    0    9   15      2.39      0.00
    1    9   15      0.30      0.00
    2    9   15     -1.08      0.00
    3    9   15     -0.37      0.00
    4    9   15      1.45      0.00
    5    9   15      4.55      0.00
    6    9   15     -0.29      0.00
  -10   10   15     -1.46      0.00
   -9   10   15     -1.25      0.00
   -8   10   15      3.12      0.00
   -7   10   15     -0.11      0.00
   -6   10   15     -1.88      0.00
   -5   10   15      2.65      0.00
   -4   10   15      3.10      0.00
   -3   10   15      0.08      0.00
   -2   10   15     -3.08      0.00
   -1   10   15     -2.93      0.00
    0   10   15     -3.58      0.00
    1   10   15      5.95      0.00
    2   10   15     -2.82      0.00
    3   10   15     -1.47      0.00
    4   10   15      3.50      0.00
   -7   11   15      1.35      0.00
   -6   11   15      0.71      0.00
   -5   11   15      2.92      0.00
   -4   11   15      1.12      0.00
   -3   11   15     -0.19      0.00
   -2   11   15     -2.12      0.00
   -1   11   15     -9.55      0.00
    0   11   15      1.91      0.00
    1   11   15     -4.03      0.00
    2   11   15      1.89      0.00
  -16    0   16     -2.65      0.00
  -14    0   16      3.13      0.00
  -12    0   16     -0.61      0.00
  -10    0   16     -3.50      0.00
   -8    0   16      4.52      0.00
   -6    0   16     -2.60      0.00
   -4    0   16     13.61      0.00
   -2    0   16     -3.67      0.00
    0    0   16     -6.21      0.00
    2    0   16     -0.23      0.00
    4    0   16      2.79      0.00
    6    0   16     -1.97      0.00
    8    0   16     -2.58      0.00
   10    0   16      4.32      0.00
  -16    1   16      0.90      0.00
  -15    1   16     -0.57      0.00
  -14    1   16     -1.26      0.00
  -13    1   16      1.64      0.00
  -12    1   16      0.93      0.00
  -11    1   16     -6.74      0.00
  -10    1   16     -1.64      0.00
   -9    1   16      2.23      0.00
   -8    1   16      2.79      0.00
   -7    1   16     -4.16      0.00
   -6    1   16     -3.44      0.00
   -5    1   16      8.38      0.00
   -4    1   16      1.30      0.00
   -3    1   16      4.90      0.00
   -2    1   16      2.80      0.00
   -1    1   16     -4.29      0.00
    0    1   16      0.90      0.00
    1    1   16     -5.29      0.00
    2    1   16     -2.89      0.00
    3    1   16      3.51      0.00
    4    1   16      0.35      0.00
    5    1   16     -1.87      0.00
    6    1   16      3.33      0.00
    7    1   16     -0.61      0.00
    8    1   16      4.32      0.00
    9    1   16      0.09      0.00
   10    1   16      3.39      0.00
  -16    2   16      0.64      0.00
  -15    2   16     -0.34      0.00
  -14    2   16      1.11      0.00
  -13    2   16      0.06      0.00
  -12    2   16     -2.38      0.00
  -11    2   16      0.59      0.00
  -10    2   16     -4.96      0.00
   -9    2   16     -2.08      0.00
   -8    2   16     -0.72      0.00
   -7    2   16      2.86      0.00
   -6    2   16     -1.67      0.00
   -5    2   16     -6.14      0.00
   -4    2   16      8.83      0.00
   -3    2   16      5.35      0.00
   -2    2   16     -0.05      0.00
   -1    2   16      1.55      0.00
    0    2   16     -1.44      0.00
    1    2   16     -2.12      0.00
    2    2   16     -1.46      0.00
    3    2   16     -2.02      0.00
    4    2   16     -0.77      0.00
    5    2   16      1.00      0.00
    6    2   16     -4.56      0.00
    7    2   16      3.20      0.00
    8    2   16     -0.40      0.00
    9    2   16      1.31      0.00
   10    2   16      6.88      0.00
  -15    3   16      3.14      0.00
  -14    3   16     -0.66      0.00
  -13    3   16      0.82      0.00
  -12    3   16      2.19      0.00
  -11    3   16     -3.43      0.00
  -10    3   16     -4.27      0.00
   -9    3   16     -1.89      0.00
   -8    3   16      2.74      0.00
   -7    3   16     -2.23      0.00
   -6    3   16     -7.06      0.00
   -5    3   16      4.12      0.00
   -4    3   16      2.75      0.00
   -3    3   16      5.92      0.00
   -2    3   16      5.12      0.00
   -1    3   16     -0.29      0.00
    0    3   16      2.51      0.00
    1    3   16     -1.79      0.00
    2    3   16     -4.41      0.00
    3    3   16     -1.44      0.00
    4    3   16      2.26      0.00
    5    3   16     -4.84      0.00
    6    3   16      0.53      0.00
    7    3   16     -0.37      0.00
    8    3   16     -2.01      0.00
    9    3   16      3.52      0.00
   10    3   16      0.48      0.00
  -15    4   16      1.03      0.00
  -14    4   16      2.48      0.00
  -13    4   16      0.42      0.00
  -12    4   16     -0.49      0.00
  -11    4   16      0.89      0.00
  -10    4   16     -0.74      0.00
   -9    4   16     -3.51      0.00
   -8    4   16     -3.53      0.00
   -7    4   16     -0.35      0.00
   -6    4   16      0.94      0.00
   -5    4   16     -6.82      0.00
   -4    4   16      1.94      0.00
   -3    4   16      7.39      0.00
   -2    4   16      4.69      0.00
   -1    4   16      5.83      0.00
    0    4   16      1.92      0.00
    1    4   16      0.34      0.00
    2    4   16     -0.75      0.00
    3    4   16      0.68      0.00
    4    4   16     -3.30      0.00
    5    4   16      4.19      0.00
    6    4   16     -3.45      0.00
    7    4   16     -0.15      0.00
    8    4   16      3.30      0.00
    9    4   16     -3.69      0.00
  -14    5   16      1.11      0.00
  -13    5   16     -0.72      0.00
  -12    5   16      3.10      0.00
  -11    5   16     -0.37      0.00
  -10    5   16     -2.35      0.00
   -9    5   16     -1.89      0.00
   -8    5   16      0.21      0.00
   -7    5   16      1.73      0.00
   -6    5   16     -8.19      0.00
   -5    5   16     -1.13      0.00
   -4    5   16     -1.90      0.00
   -3    5   16      2.99      0.00
   -2    5   16      6.58      0.00
   -1    5   16      3.10      0.00
    0    5   16      3.51      0.00
    1    5   16      5.49      0.00
    2    5   16     -0.85      0.00
    3    5   16     -4.45      0.00
    4    5   16      3.91      0.00
    5    5   16     -1.23      0.00
    6    5   16     -0.09      0.00
    7    5   16      2.46      0.00
    8    5   16     -3.21      0.00
    9    5   16      1.91      0.00
  -14    6   16     -0.30      0.00
  -13    6   16      2.72      0.00
  -12    6   16     -2.17      0.00
  -11    6   16      0.99      0.00
  -10    6   16      0.92      0.00
   -9    6   16     -3.30      0.00
   -8    6   16     -0.03      0.00
   -7    6   16     -2.79      0.00
   -6    6   16      3.00      0.00
   -5    6   16     -5.84      0.00
   -4    6   16     -5.43      0.00
   -3    6   16     -0.65      0.00
   -2    6   16      2.65      0.00
   -1    6   16      2.68      0.00
    0    6   16      4.19      0.00
    1    6   16     -0.37      0.00
    2    6   16      2.32      0.00
    3    6   16      0.12      0.00
    4    6   16     -3.76      0.00
    5    6   16      0.20      0.00
    6    6   16     -2.19      0.00
    7    6   16     -3.59      0.00
    8    6   16      2.63      0.00
  -13    7   16     -2.47      0.00
  -12    7   16      1.18      0.00
  -11    7   16     -1.24      0.00
  -10    7   16     -2.44      0.00
   -9    7   16     -1.33      0.00
   -8    7   16     -4.01      0.00
   -7    7   16      3.54      0.00
   -6    7   16     -3.01      0.00
   -5    7   16     -6.99      0.00
   -4    7   16     -1.57      0.00
   -3    7   16     -3.66      0.00
   -2    7   16      0.77      0.00
   -1    7   16      0.73      0.00
    0    7   16     -2.93      0.00
    1    7   16      3.79      0.00
    2    7   16      1.27      0.00
    3    7   16     -2.80      0.00
    4    7   16      0.48      0.00
    5    7   16     -2.05      0.00
    6    7   16     -1.86      0.00
    7    7   16     -1.09      0.00
  -12    8   16     -3.28      0.00
  -11    8   16     -1.42      0.00
  -10    8   16      0.17      0.00
   -9    8   16     -2.68      0.00
   -8    8   16     -0.83      0.00
   -7    8   16     -0.96      0.00
   -6    8   16     -1.04      0.00
   -5    8   16      2.01      0.00
   -4    8   16     -7.51      0.00
   -3    8   16     -4.21      0.00
   -2    8   16      1.42      0.00
   -1    8   16      0.29      0.00
    0    8   16      0.42      0.00
    1    8   16     -2.77      0.00
    2    8   16      1.38      0.00
    3    8   16      2.66      0.00
    4    8   16     -4.73      0.00
    5    8   16      2.07      0.00
    6    8   16     -1.56      0.00
  -11    9   16     -1.89      0.00
  -10    9   16      1.01      0.00
   -9    9   16      1.09      0.00
   -8    9   16     -2.42      0.00
   -7    9   16      2.10      0.00
   -6    9   16      3.37      0.00
   -5    9   16     -5.24      0.00
   -4    9   16     -1.20      0.00
   -3    9   16      0.06      0.00
   -2    9   16     -0.64      0.00
   -1    9   16      4.83      0.00
    0    9   16     -1.00      0.00
    1    9   16     -2.26      0.00
    2    9   16      1.15      0.00
    3    9   16     -0.46      0.00
    4    9   16      0.30      0.00
    5    9   16     -0.89      0.00
   -9   10   16      1.75      0.00
   -8   10   16      1.23      0.00
   -7   10   16      0.04      0.00
   -6   10   16     -1.62      0.00
   -5   10   16      1.75      0.00
   -4   10   16     -1.37      0.00
   -3   10   16     -2.77      0.00
   -2   10   16      3.23      0.00
   -1   10   16      5.66      0.00
    0   10   16      3.09      0.00
    1   10   16     -0.90      0.00
    2   10   16     -0.73      0.00
    3   10   16      2.97      0.00
   -5   11   16     -2.53      0.00
   -4   11   16     -1.51      0.00
   -3   11   16      0.11      0.00
   -2   11   16      0.32      0.00
   -1   11   16      4.99      0.00
    0   11   16      8.20      0.00
  -15    0   17      1.51      0.00
  -13    0   17     -2.61      0.00
   -9    0   17     -0.21      0.00
   -7    0   17      0.18      0.00
   -5    0   17     -1.02      0.00
   -3    0   17     -8.87      0.00
   -1    0   17      2.80      0.00
    1    0   17      6.46      0.00
    3    0   17     -2.28      0.00
    5    0   17     -0.75      0.00
    7    0   17     -0.51      0.00
    9    0   17     -1.68      0.00
  -15    1   17      0.18      0.00
  -14    1   17     -1.35      0.00
  -13    1   17      0.71      0.00
  -12    1   17     -0.60      0.00
  -11    1   17     -0.33      0.00
  -10    1   17      6.81      0.00
   -9    1   17      3.38      0.00
   -8    1   17     -3.45      0.00
   -7    1   17     -2.17      0.00
   -6    1   17      6.04      0.00
   -5    1   17      4.86      0.00
   -4    1   17     -9.09      0.00
   -3    1   17     -2.47      0.00
   -2    1   17     -1.37      0.00
   -1    1   17     -3.90      0.00
    0    1   17      2.10      0.00
    1    1   17     -1.22      0.00
    2    1   17      3.10      0.00
    3    1   17      2.35      0.00
    4    1   17     -2.41      0.00
    5    1   17      0.53      0.00
    6    1   17      4.17      0.00
    7    1   17     -3.11      0.00
    8    1   17      1.13      0.00
    9    1   17     -4.02      0.00
  -15    2   17     -0.88      0.00
  -14    2   17     -0.04      0.00
  -13    2   17     -1.11      0.00
  -12    2   17     -1.79      0.00
  -11    2   17      4.63      0.00
  -10    2   17      1.48      0.00
   -9    2   17      2.66      0.00
   -8    2   17     -0.38      0.00
   -7    2   17      2.42      0.00
   -6    2   17      2.30      0.00
   -5    2   17     -2.05      0.00
   -4    2   17      2.32      0.00
   -3    2   17     -7.17      0.00
   -2    2   17     -5.63      0.00
   -1    2   17      0.12      0.00
    0    2   17     -4.44      0.00
    1    2   17      1.91      0.00
    2    2   17      2.94      0.00
    3    2   17     -2.14      0.00
    4    2   17      2.20      0.00
    5    2   17      3.03      0.00
    6    2   17     -0.69      0.00
    7    2   17      5.37      0.00
    8    2   17     -1.73      0.00
    9    2   17      2.02      0.00
  -15    3   17     -1.33      0.00
  -14    3   17     -2.43      0.00
  -13    3   17     -0.52      0.00
  -12    3   17      0.11      0.00
  -11    3   17     -3.48      0.00
  -10    3   17      2.96      0.00
   -9    3   17      4.39      0.00
   -8    3   17      2.86      0.00
   -7    3   17     -3.11      0.00
   -6    3   17      1.22      0.00
   -5    3   17      7.92      0.00
   -4    3   17     -4.65      0.00
   -3    3   17     -5.22      0.00
   -2    3   17     -4.56      0.00
   -1    3   17     -5.28      0.00
    0    3   17     -2.07      0.00
    1    3   17     -2.79      0.00
    2    3   17     -0.92      0.00
    3    3   17      3.31      0.00
    4    3   17     -0.78      0.00
    5    3   17     -1.63      0.00
    6    3   17      6.75      0.00
    7    3   17     -0.41      0.00
    8    3   17      1.60      0.00
    9    3   17      3.21      0.00
  -14    4   17     -0.07      0.00
  -13    4   17     -1.27      0.00
  -12    4   17     -1.63      0.00
  -11    4   17      1.10      0.00
  -10    4   17      1.37      0.00
   -9    4   17      0.96      0.00
   -8    4   17      0.00      0.00
   -7    4   17      2.59      0.00
   -6    4   17      4.07      0.00
   -5    4   17     -0.27      0.00
   -4    4   17      2.76      0.00
   -3    4   17     -2.08      0.00
   -2    4   17     -7.34      0.00
   -1    4   17     -2.39      0.00
    0    4   17     -6.20      0.00
    1    4   17     -3.44      0.00
    2    4   17      1.50      0.00
    3    4   17     -0.38      0.00
    4    4   17     -2.75      0.00
    5    4   17      3.17      0.00
    6    4   17     -3.22      0.00
    7    4   17      1.39      0.00
    8    4   17      3.02      0.00
  -14    5   17     -2.14      0.00
  -13    5   17      0.35      0.00
  -12    5   17      0.71      0.00
  -11    5   17     -1.82      0.00
  -10    5   17     -0.85      0.00
   -9    5   17      2.10      0.00
   -8    5   17      3.26      0.00
   -7    5   17     -1.32      0.00
   -6    5   17     -2.04      0.00
   -5    5   17      6.72      0.00
   -4    5   17      3.06      0.00
   -3    5   17      0.31      0.00
   -2    5   17     -2.73      0.00
   -1    5   17     -4.78      0.00
    0    5   17     -2.03      0.00
    1    5   17     -2.44      0.00
    2    5   17     -3.91      0.00
    3    5   17      0.16      0.00
    4    5   17      5.38      0.00
    5    5   17     -3.63      0.00
    6    5   17      4.56      0.00
    7    5   17      1.28      0.00
    8    5   17     -3.96      0.00
  -13    6   17     -0.19      0.00
  -12    6   17     -1.10      0.00
  -11    6   17      1.51      0.00
  -10    6   17      1.08      0.00
   -9    6   17      1.23      0.00
   -8    6   17      1.45      0.00
   -7    6   17     -1.54      0.00
   -6    6   17      5.14      0.00
   -5    6   17     -1.45      0.00
   -4    6   17      3.97      0.00
   -3    6   17      2.49      0.00
   -2    6   17     -0.32      0.00
   -1    6   17     -0.90      0.00
    0    6   17     -0.59      0.00
    1    6   17     -4.42      0.00
    2    6   17      0.52      0.00
    3    6   17      1.36      0.00
    4    6   17     -0.23      0.00
    5    6   17      3.46      0.00
    6    6   17      1.75      0.00
    7    6   17      0.57      0.00
  -12    7   17      2.48      0.00
  -11    7   17     -0.12      0.00
  -10    7   17     -0.05      0.00
   -9    7   17      2.75      0.00
   -8    7   17      1.58      0.00
   -7    7   17      3.37      0.00
   -6    7   17     -4.10      0.00
   -5    7   17      2.08      0.00
   -4    7   17      5.69      0.00
   -3    7   17      2.42      0.00
   -2    7   17     -0.28      0.00
   -1    7   17     -2.16      0.00
    0    7   17      0.03      0.00
    1    7   17      3.25      0.00
    2    7   17     -5.02      0.00
    3    7   17     -0.26      0.00
    4    7   17      2.90      0.00
    5    7   17     -1.46      0.00
    6    7   17      2.69      0.00
  -11    8   17      1.82      0.00
  -10    8   17     -0.18      0.00
   -9    8   17     -0.64      0.00
   -8    8   17      1.75      0.00
   -7    8   17     -3.50      0.00
   -6    8   17      0.31      0.00
   -5    8   17      3.70      0.00
   -4    8   17     -3.20      0.00
   -3    8   17      4.19      0.00
   -2    8   17      0.12      0.00
   -1    8   17     -2.45      0.00
    0    8   17      0.38      0.00
    1    8   17     -0.72      0.00
    2    8   17      1.30      0.00
    3    8   17     -0.82      0.00
    4    8   17     -2.01      0.00
    5    8   17      3.54      0.00
   -9    9   17     -2.37      0.00
   -8    9   17     -1.59      0.00
   -7    9   17      0.15      0.00
   -6    9   17     -1.62      0.00
   -5    9   17     -5.12      0.00
   -4    9   17      4.36      0.00
   -3    9   17      2.22      0.00
   -2    9   17     -1.72      0.00
   -1    9   17     -4.15      0.00
    0    9   17     -3.50      0.00
    1    9   17      3.23      0.00
    2    9   17     -0.14      0.00
    3    9   17     -2.77      0.00
   -7   10   17     -2.84      0.00
   -6   10   17     -2.60      0.00
   -5   10   17      3.97      0.00
   -4   10   17     -2.29      0.00
   -3   10   17      0.72      0.00
   -2   10   17      2.08      0.00
   -1   10   17     -5.81      0.00
    0   10   17     -4.57      0.00
    1   10   17      0.11      0.00
  -14    0   18      0.36      0.00
  -12    0   18      2.34      0.00
  -10    0   18     -7.13      0.00
   -8    0   18      3.12      0.00
   -6    0   18     -5.84      0.00
   -4    0   18      4.25      0.00
   -2    0   18      6.03      0.00
    0    0   18      1.42      0.00
    2    0   18     -4.21      0.00
    4    0   18      2.93      0.00
    6    0   18     -2.48      0.00
    8    0   18      1.20      0.00
  -15    1   18     -1.29      0.00
  -14    1   18     -0.33      0.00
  -13    1   18      1.54      0.00
  -12    1   18     -0.19      0.00
  -11    1   18     -1.25      0.00
  -10    1   18     -0.49      0.00
   -9    1   18     -4.06      0.00
   -8    1   18     -2.35      0.00
   -7    1   18      1.92      0.00
   -6    1   18      1.06      0.00
   -5    1   18     -4.12      0.00
   -4    1   18     -2.69      0.00
   -3    1   18      8.41      0.00
   -2    1   18      3.74      0.00
   -1    1   18      1.31      0.00
    0    1   18      5.00      0.00
    1    1   18     -1.74      0.00
    2    1   18      0.62      0.00
    3    1   18      0.95      0.00
    4    1   18     -2.16      0.00
    5    1   18      0.62      0.00
    6    1   18     -0.64      0.00
    7    1   18     -5.30      0.00
    8    1   18      0.03      0.00
  -14    2   18      1.23      0.00
  -13    2   18      0.39      0.00
  -12    2   18      1.78      0.00
  -11    2   18      3.32      0.00
  -10    2   18     -4.33      0.00
   -9    2   18     -3.10      0.00
   -8    2   18     -0.57      0.00
   -7    2   18      3.67      0.00
   -6    2   18     -3.53      0.00
   -5    2   18     -4.71      0.00
   -4    2   18      4.66      0.00
   -3    2   18      1.49      0.00
   -2    2   18      4.86      0.00
   -1    2   18      6.19      0.00
    0    2   18      2.24      0.00
    1    2   18      5.39      0.00
    2    2   18     -0.98      0.00
    3    2   18     -3.05      0.00
    4    2   18      3.80      0.00
    5    2   18     -1.69      0.00
    6    2   18     -6.97      0.00
    7    2   18      0.78      0.00
    8    2   18     -7.14      0.00
  -14    3   18      1.05      0.00
  -13    3   18      0.82      0.00
  -12    3   18      1.60      0.00
  -11    3   18     -2.04      0.00
  -10    3   18      2.71      0.00
   -9    3   18     -1.64      0.00
   -8    3   18     -1.00      0.00
   -7    3   18     -2.22      0.00
   -6    3   18      0.18      0.00
   -5    3   18      0.58      0.00
   -4    3   18     -6.29      0.00
   -3    3   18      4.56      0.00
   -2    3   18      5.86      0.00
   -1    3   18      2.50      0.00
    0    3   18      6.15      0.00
    1    3   18      2.30      0.00
    2    3   18     -0.52      0.00
    3    3   18      4.48      0.00
    4    3   18     -3.19      0.00
    5    3   18      0.93      0.00
    6    3   18      2.77      0.00
    7    3   18     -6.91      0.00
    8    3   18     -0.10      0.00
  -14    4   18      1.34      0.00
  -13    4   18     -0.14      0.00
  -12    4   18     -0.67      0.00
  -11    4   18      3.20      0.00
  -10    4   18     -0.57      0.00
   -9    4   18     -1.62      0.00
   -8    4   18     -1.96      0.00
   -7    4   18      2.67      0.00
   -6    4   18     -0.40      0.00
   -5    4   18     -6.40      0.00
   -4    4   18     -0.93      0.00
   -3    4   18     -0.72      0.00
   -2    4   18      1.95      0.00
   -1    4   18      5.16      0.00
    0    4   18      1.73      0.00
    1    4   18      4.44      0.00
    2    4   18      4.42      0.00
    3    4   18     -4.80      0.00
    4    4   18      0.68      0.00
    5    4   18      1.99      0.00
    6    4   18     -5.36      0.00
    7    4   18      2.98      0.00
  -13    5   18      1.60      0.00
  -12    5   18     -0.06      0.00
  -11    5   18     -1.53      0.00
  -10    5   18      0.30      0.00
   -9    5   18      0.43      0.00
   -8    5   18      0.34      0.00
   -7    5   18     -2.46      0.00
   -6    5   18     -0.35      0.00
   -5    5   18      1.48      0.00
   -4    5   18     -3.93      0.00
   -3    5   18     -3.61      0.00
   -2    5   18      1.72      0.00
   -1    5   18      1.10      0.00
    0    5   18      3.09      0.00
    1    5   18      2.63      0.00
    2    5   18     -1.22      0.00
    3    5   18      1.17      0.00
    4    5   18     -0.72      0.00
    5    5   18     -6.02      0.00
    6    5   18      2.59      0.00
    7    5   18     -4.34      0.00
  -12    6   18      0.35      0.00
  -11    6   18      0.74      0.00
  -10    6   18     -0.44      0.00
   -9    6   18     -1.28      0.00
   -8    6   18     -3.55      0.00
   -7    6   18      0.20      0.00
   -6    6   18      2.33      0.00
   -5    6   18     -4.37      0.00
   -4    6   18     -0.52      0.00
   -3    6   18     -3.29      0.00
   -2    6   18      1.55      0.00
   -1    6   18      1.49      0.00
    0    6   18     -0.37      0.00
    1    6   18     -0.24      0.00
    2    6   18      4.74      0.00
    3    6   18      0.05      0.00
    4    6   18     -4.32      0.00
    5    6   18      1.49      0.00
    6    6   18     -5.31      0.00
  -11    7   18     -1.36      0.00
  -10    7   18      0.18      0.00
   -9    7   18     -0.11      0.00
   -8    7   18     -0.78      0.00
   -7    7   18      0.87      0.00
   -6    7   18     -4.46      0.00
   -5    7   18      3.29      0.00
   -4    7   18     -0.42      0.00
   -3    7   18     -2.60      0.00
   -2    7   18     -1.69      0.00
   -1    7   18      2.58      0.00
    0    7   18      1.45      0.00
    1    7   18      0.81      0.00
    2    7   18     -2.03      0.00
    3    7   18      3.40      0.00
    4    7   18      0.03      0.00
    5    7   18     -1.37      0.00
  -10    8   18      0.79      0.00
   -9    8   18      1.56      0.00
   -8    8   18      0.38      0.00
   -7    8   18     -0.37      0.00
   -6    8   18      5.21      0.00
   -5    8   18      1.10      0.00
   -4    8   18     -3.58      0.00
   -3    8   18      0.08      0.00
   -2    8   18     -0.57      0.00
   -1    8   18      3.92      0.00
    0    8   18      0.96      0.00
    1    8   18     -2.88      0.00
    2    8   18      3.00      0.00
    3    8   18     -0.92      0.00
   -8    9   18      1.61      0.00
   -7    9   18      3.44      0.00
   -6    9   18      0.47      0.00
   -5    9   18     -1.57      0.00
   -4    9   18      6.06      0.00
   -3    9   18     -3.59      0.00
   -2    9   18     -2.11      0.00
   -1    9   18      2.33      0.00
    0    9   18      4.56      0.00
    1    9   18      0.09      0.00
  -13    0   19     -0.55      0.00
   -9    0   19      6.34      0.00
   -7    0   19     -5.00      0.00
   -5    0   19      6.30      0.00
   -3    0   19     -7.15      0.00
   -1    0   19     -5.05      0.00
    1    0   19     -2.05      0.00
    3    0   19      0.52      0.00
    5    0   19     -3.26      0.00
    7    0   19      5.24      0.00
  -14    1   19     -0.31      0.00
  -13    1   19     -0.09      0.00
  -12    1   19     -2.84      0.00
  -11    1   19     -1.21      0.00
  -10    1   19      2.75      0.00
   -9    1   19      1.53      0.00
   -8    1   19     -0.25      0.00
   -7    1   19     -0.51      0.00
   -6    1   19      1.32      0.00
   -5    1   19      0.24      0.00
   -4    1   19     -0.13      0.00
   -3    1   19      0.82      0.00
   -2    1   19     -6.94      0.00
   -1    1   19     -3.52      0.00
    0    1   19     -3.95      0.00
    1    1   19     -4.57      0.00
    2    1   19      2.52      0.00
    3    1   19      0.27      0.00
    4    1   19     -2.80      0.00
    5    1   19      2.37      0.00
    6    1   19      2.66      0.00
    7    1   19      1.63      0.00
  -14    2   19     -0.81      0.00
  -13    2   19     -1.08      0.00
  -12    2   19      0.01      0.00
  -11    2   19     -1.60      0.00
  -10    2   19     -3.10      0.00
   -9    2   19      1.82      0.00
   -8    2   19      2.38      0.00
   -7    2   19     -1.15      0.00
   -6    2   19     -4.10      0.00
   -5    2   19      3.73      0.00
   -4    2   19      4.97      0.00
   -3    2   19     -4.68      0.00
   -2    2   19     -2.82      0.00
   -1    2   19     -1.69      0.00
    0    2   19     -6.09      0.00
    1    2   19     -1.31      0.00
    2    2   19     -3.24      0.00
    3    2   19     -0.94      0.00
    4    2   19      3.63      0.00
    5    2   19     -3.48      0.00
    6    2   19     -0.36      0.00
    7    2   19      8.27      0.00
  -13    3   19     -0.81      0.00
  -12    3   19     -0.42      0.00
  -11    3   19     -2.81      0.00
  -10    3   19      1.94      0.00
   -9    3   19     -0.75      0.00
   -8    3   19      1.36      0.00
   -7    3   19     -3.03      0.00
   -6    3   19      2.02      0.00
   -5    3   19      3.97      0.00
   -4    3   19     -0.42      0.00
   -3    3   19      5.02      0.00
   -2    3   19     -2.35      0.00
   -1    3   19     -4.04      0.00
    0    3   19     -1.32      0.00
    1    3   19     -6.29      0.00
    2    3   19     -0.72      0.00
    3    3   19      4.57      0.00
    4    3   19     -5.00      0.00
    5    3   19      3.17      0.00
    6    3   19      2.01      0.00
  -13    4   19     -0.60      0.00
  -12    4   19     -0.61      0.00
  -11    4   19      2.65      0.00
  -10    4   19     -2.99      0.00
   -9    4   19     -0.15      0.00
   -8    4   19      0.08      0.00
   -7    4   19      1.73      0.00
   -6    4   19     -1.53      0.00
   -5    4   19     -1.00      0.00
   -4    4   19      7.68      0.00
   -3    4   19      2.11      0.00
   -2    4   19     -0.62      0.00
   -1    4   19     -0.22      0.00
    0    4   19     -3.44      0.00
    1    4   19     -1.39      0.00
    2    4   19      0.86      0.00
    3    4   19     -5.13      0.00
    4    4   19      8.37      0.00
    5    4   19     -0.60      0.00
    6    4   19     -1.90      0.00
  -12    5   19     -0.66      0.00
  -11    5   19     -1.86      0.00
  -10    5   19      1.46      0.00
   -9    5   19      0.56      0.00
   -8    5   19      1.61      0.00
   -7    5   19     -1.77      0.00
   -6    5   19      0.91      0.00
   -5    5   19      2.23      0.00
   -4    5   19      0.39      0.00
   -3    5   19      2.39      0.00
   -2    5   19      1.65      0.00
   -1    5   19     -2.44      0.00
    0    5   19      0.03      0.00
    1    5   19     -1.72      0.00
    2    5   19     -5.30      0.00
    3    5   19      5.00      0.00
    4    5   19      0.19      0.00
    5    5   19      1.93      0.00
  -11    6   19      0.49      0.00
  -10    6   19     -0.58      0.00
   -9    6   19      0.47      0.00
   -8    6   19     -0.12      0.00
   -7    6   19      3.61      0.00
   -6    6   19      0.72      0.00
   -5    6   19     -2.18      0.00
   -4    6   19      1.45      0.00
   -3    6   19      2.52      0.00
   -2    6   19      1.37      0.00
   -1    6   19     -3.59      0.00
    0    6   19     -1.35      0.00
    1    6   19     -1.02      0.00
    2    6   19      1.31      0.00
    3    6   19     -4.22      0.00
    4    6   19     -0.44      0.00
  -10    7   19     -0.13      0.00
   -9    7   19     -0.95      0.00
   -8    7   19      1.32      0.00
   -7    7   19     -1.36      0.00
   -6    7   19     -2.84      0.00
   -5    7   19      3.98      0.00
   -4    7   19     -1.91      0.00
   -3    7   19      2.10      0.00
   -2    7   19     -1.61      0.00
   -1    7   19     -0.03      0.00
    0    7   19     -1.83      0.00
    1    7   19      0.80      0.00
    2    7   19     -2.88      0.00
    3    7   19     -0.09      0.00
   -8    8   19     -2.12      0.00
   -7    8   19     -1.82      0.00
   -6    8   19      1.78      0.00
   -5    8   19     -3.87      0.00
   -4    8   19     -2.62      0.00
   -3    8   19      2.39      0.00
   -2    8   19      3.60      0.00
   -1    8   19     -2.41      0.00
    0    8   19     -3.41      0.00
    1    8   19      0.38      0.00
   -5    9   19     -0.74      0.00
   -4    9   19      2.44      0.00
   -3    9   19     -2.06      0.00
   -2    9   19      3.23      0.00
  -12    0   20      2.23      0.00
  -10    0   20     -0.07      0.00
   -8    0   20     -3.03      0.00
   -6    0   20      2.61      0.00
   -4    0   20     -3.41      0.00
   -2    0   20      6.85      0.00
    0    0   20      5.16      0.00
    2    0   20     -1.46      0.00
    4    0   20      0.57      0.00
    6    0   20      0.77      0.00
  -13    1   20      0.97      0.00
  -12    1   20      0.05      0.00
  -11    1   20      3.89      0.00
  -10    1   20      2.43      0.00
   -9    1   20     -2.79      0.00
   -8    1   20     -2.04      0.00
   -7    1   20      4.17      0.00
   -6    1   20      1.75      0.00
   -5    1   20     -4.58      0.00
   -4    1   20     -2.18      0.00
   -3    1   20      2.46      0.00
   -2    1   20     -1.26      0.00
   -1    1   20      3.37      0.00
    0    1   20      2.24      0.00
    1    1   20      3.20      0.00
    2    1   20      2.91      0.00
    3    1   20     -2.41      0.00
    4    1   20     -1.73      0.00
    5    1   20      3.68      0.00
    6    1   20     -1.82      0.00
  -13    2   20      0.77      0.00
  -12    2   20      1.95      0.00
  -11    2   20      0.46      0.00
  -10    2   20      0.88      0.00
   -9    2   20      0.73      0.00
   -8    2   20      0.20      0.00
   -7    2   20     -0.09      0.00
   -6    2   20     -0.06      0.00
   -5    2   20      0.75      0.00
   -4    2   20     -3.65      0.00
   -3    2   20     -5.86      0.00
   -2    2   20      2.12      0.00
   -1    2   20      1.05      0.00
    0    2   20      0.66      0.00
    1    2   20      5.92      0.00
    2    2   20     -2.63      0.00
    3    2   20      0.78      0.00
    4    2   20      0.95      0.00
    5    2   20     -4.07      0.00
  -12    3   20     -0.37      0.00
  -11    3   20      0.15      0.00
  -10    3   20      2.46      0.00
   -9    3   20     -0.18      0.00
   -8    3   20     -0.55      0.00
   -7    3   20     -0.82      0.00
   -6    3   20      4.27      0.00
   -5    3   20     -3.02      0.00
   -4    3   20     -7.20      0.00
   -3    3   20     -1.05      0.00
   -2    3   20     -3.67      0.00
   -1    3   20     -1.31      0.00
    0    3   20      2.70      0.00
    1    3   20     -0.63      0.00
    2    3   20      4.92      0.00
    3    3   20     -0.49      0.00
    4    3   20     -6.79      0.00
    5    3   20      3.72      0.00
  -12    4   20      1.18      0.00
  -11    4   20      1.83      0.00
  -10    4   20     -2.59      0.00
   -9    4   20      1.37      0.00
   -8    4   20     -1.01      0.00
   -7    4   20      1.79      0.00
   -6    4   20     -0.88      0.00
   -5    4   20     -1.26      0.00
   -4    4   20      1.43      0.00
   -3    4   20     -7.59      0.00
   -2    4   20     -1.44      0.00
   -1    4   20      1.15      0.00
    0    4   20     -1.14      0.00
    1    4   20      4.80      0.00
    2    4   20      1.12      0.00
    3    4   20     -4.56      0.00
    4    4   20      4.13      0.00
    5    4   20     -9.26      0.00
  -11    5   20     -0.93      0.00
  -10    5   20      1.95      0.00
   -9    5   20     -0.87      0.00
   -8    5   20     -0.52      0.00
   -7    5   20     -2.10      0.00
   -6    5   20      1.20      0.00
   -5    5   20      1.58      0.00
   -4    5   20     -2.63      0.00
   -3    5   20     -1.99      0.00
   -2    5   20      0.07      0.00
   -1    5   20      0.40      0.00
    0    5   20      2.66      0.00
    1    5   20      0.62      0.00
    2    5   20     -0.20      0.00
    3    5   20      8.08      0.00
    4    5   20     -7.00      0.00
  -10    6   20     -1.05      0.00
   -9    6   20      0.46      0.00
   -8    6   20     -1.13      0.00
   -7    6   20      1.84      0.00
   -6    6   20     -1.71      0.00
   -5    6   20     -1.17      0.00
   -4    6   20      1.60      0.00
   -3    6   20      0.24      0.00
   -2    6   20     -1.75      0.00
   -1    6   20      1.24      0.00
    0    6   20      2.42      0.00
    1    6   20      0.46      0.00
    2    6   20      4.85      0.00
    3    6   20     -1.90      0.00
   -8    7   20      2.11      0.00
   -7    7   20     -0.70      0.00
   -6    7   20      0.95      0.00
   -5    7   20      3.45      0.00
   -4    7   20     -0.38      0.00
   -3    7   20     -0.57      0.00
   -2    7   20     -3.42      0.00
   -1    7   20      4.32      0.00
    0    7   20      0.35      0.00
    1    7   20      0.97      0.00
   -6    8   20      3.48      0.00
   -5    8   20     -3.22      0.00
   -4    8   20      2.62      0.00
   -3    8   20      0.44      0.00
   -2    8   20     -0.41      0.00
  -11    0   21     -4.62      0.00
   -9    0   21      1.89      0.00
   -7    0   21     -1.17      0.00
   -5    0   21      3.67      0.00
   -3    0   21      2.37      0.00
   -1    0   21     -2.24      0.00
    1    0   21     -3.85      0.00
    3    0   21      3.52      0.00
  -12    1   21     -1.60      0.00
  -11    1   21     -0.21      0.00
  -10    1   21     -2.65      0.00
   -9    1   21     -2.28      0.00
   -8    1   21      2.41      0.00
   -7    1   21      1.11      0.00
   -6    1   21     -3.38      0.00
   -5    1   21     -0.86      0.00
   -4    1   21      6.29      0.00
   -3    1   21      3.83      0.00
   -2    1   21     -1.23      0.00
   -1    1   21      2.27      0.00
    0    1   21     -1.30      0.00
    1    1   21     -1.90      0.00
    2    1   21      0.81      0.00
    3    1   21     -1.69      0.00
    4    1   21      2.38      0.00
  -12    2   21      0.44      0.00
  -11    2   21     -2.19      0.00
  -10    2   21     -1.46      0.00
   -9    2   21     -0.51      0.00
   -8    2   21      1.59      0.00
   -7    2   21     -2.22      0.00
   -6    2   21     -2.08      0.00
   -5    2   21      3.73      0.00
   -4    2   21      2.56      0.00
   -3    2   21      3.37      0.00
   -2    2   21      5.81      0.00
   -1    2   21      1.55      0.00
    0    2   21      0.51      0.00
    1    2   21     -0.71      0.00
    2    2   21     -5.64      0.00
    3    2   21      4.17      0.00
    4    2   21      1.08      0.00
  -11    3   21      0.56      0.00
  -10    3   21      0.19      0.00
   -9    3   21     -0.60      0.00
   -8    3   21     -0.11      0.00
   -7    3   21     -0.21      0.00
   -6    3   21      0.34      0.00
   -5    3   21     -3.67      0.00
   -4    3   21      2.86      0.00
   -3    3   21      7.12      0.00
   -2    3   21      1.13      0.00
   -1    3   21      2.12      0.00
    0    3   21      2.21      0.00
    1    3   21     -4.65      0.00
    2    3   21      3.30      0.00
    3    3   21     -4.07      0.00
    4    3   21      1.72      0.00
  -10    4   21     -1.40      0.00
   -9    4   21      1.11      0.00
   -8    4   21     -0.24      0.00
   -7    4   21      1.58      0.00
   -6    4   21     -3.96      0.00
   -5    4   21     -0.38      0.00
   -4    4   21      2.02      0.00
   -3    4   21     -1.75      0.00
   -2    4   21      3.90      0.00
   -1    4   21      0.05      0.00
    0    4   21     -1.88      0.00
    1    4   21      1.73      0.00
    2    4   21     -6.94      0.00
    3    4   21     -1.16      0.00
  -10    5   21      1.88      0.00
   -9    5   21     -0.82      0.00
   -8    5   21      1.24      0.00
   -7    5   21     -0.66      0.00
   -6    5   21      0.68      0.00
   -5    5   21     -0.76      0.00
   -4    5   21     -4.65      0.00
   -3    5   21      2.13      0.00
   -2    5   21      0.61      0.00
   -1    5   21     -2.49      0.00
    0    5   21     -0.32      0.00
    1    5   21     -4.37      0.00
    2    5   21     -1.85      0.00
   -8    6   21     -0.89      0.00
   -7    6   21      0.50      0.00
   -6    6   21     -2.42      0.00
   -5    6   21     -1.14      0.00
   -4    6   21     -0.44      0.00
   -3    6   21      0.15      0.00
   -2    6   21     -1.28      0.00
   -1    6   21     -0.42      0.00
    0    6   21     -2.36      0.00
   -5    7   21      0.65      0.00
   -4    7   21     -2.94      0.00
   -3    7   21     -1.85      0.00
   -2    7   21      2.07      0.00
  -10    0   22      4.54      0.00
   -8    0   22     -3.05      0.00
   -6    0   22      3.06      0.00
   -4    0   22     -7.31      0.00
   -2    0   22     -2.70      0.00
    0    0   22     -0.43      0.00
    2    0   22      1.27      0.00
  -10    1   22      0.93      0.00
   -9    1   22      0.52      0.00
   -8    1   22      1.35      0.00
   -7    1   22     -0.05      0.00
   -6    1   22      0.99      0.00
   -5    1   22     -1.54      0.00
   -4    1   22      0.36      0.00
   -3    1   22     -5.83      0.00
   -2    1   22     -3.42      0.00
   -1    1   22     -1.59      0.00
    0    1   22     -1.98      0.00
    1    1   22      2.05      0.00
    2    1   22      2.26      0.00
  -10    2   22      0.68      0.00
   -9    2   22      1.66      0.00
   -8    2   22     -0.55      0.00
   -7    2   22     -1.48      0.00
   -6    2   22      3.44      0.00
   -5    2   22      3.56      0.00
   -4    2   22     -4.95      0.00
   -3    2   22     -2.43      0.00
   -2    2   22     -2.01      0.00
   -1    2   22     -3.76      0.00
    0    2   22     -2.12      0.00
    1    2   22      0.34      0.00
    2    2   22     -0.19      0.00
  -10    3   22      0.14      0.00
   -9    3   22      0.16      0.00
   -8    3   22     -1.15      0.00
   -7    3   22      0.55      0.00
   -6    3   22      3.03      0.00
   -5    3   22     -0.87      0.00
   -4    3   22      3.87      0.00
   -3    3   22     -1.02      0.00
   -2    3   22     -2.95      0.00
   -1    3   22     -0.43      0.00
    0    3   22     -1.11      0.00
    1    3   22     -0.39      0.00
    2    3   22      6.58      0.00
   -9    4   22      0.02      0.00
   -8    4   22     -1.13      0.00
   -7    4   22      0.46      0.00
   -6    4   22     -0.84      0.00
   -5    4   22      6.00      0.00
   -4    4   22      2.03      0.00
   -3    4   22     -0.49      0.00
   -2    4   22      2.48      0.00
   -1    4   22      0.46      0.00
    0    4   22      0.61      0.00
    1    4   22      3.95      0.00
   -7    5   22     -1.56      0.00
   -6    5   22      2.54      0.00
   -5    5   22      0.48      0.00
   -4    5   22      1.14      0.00
   -3    5   22      4.82      0.00
   -2    5   22     -0.68      0.00
   -1    5   22      1.60      0.00
   -7    0   23      0.91      0.00
   -5    0   23     -1.33      0.00
   -3    0   23      5.55      0.00
   -1    0   23      2.29      0.00
   -8    1   23      1.49      0.00
   -7    1   23     -0.74      0.00
   -6    1   23     -3.35      0.00
   -5    1   23     -2.29      0.00
   -4    1   23      3.65      0.00
   -3    1   23     -0.92      0.00
   -2    1   23      3.17      0.00
   -1    1   23      1.79      0.00
    0    1   23      2.15      0.00
   -8    2   23     -0.78      0.00
   -7    2   23      0.46      0.00
   -6    2   23     -0.59      0.00
   -5    2   23     -1.84      0.00
   -4    2   23     -4.10      0.00
   -3    2   23      2.63      0.00
   -2    2   23      0.14      0.00
   -1    2   23      0.79      0.00
    0    2   23      2.02      0.00
   -7    3   23      1.98      0.00
   -6    3   23     -2.11      0.00
   -5    3   23     -4.96      0.00
   -4    3   23      0.89      0.00
   -3    3   23     -4.21      0.00
   -2    3   23     -0.92      0.00
   -1    3   23     -1.06      0.00
   -4    4   23     -6.06      0.00
   18    3    0      1.41      0.00
   18    4    0     -1.95      0.00
   18    5    0     -0.47      0.00
   17    6    0     -2.51      0.00
   18    6    0     -0.60      0.00
   17    7    0      1.12      0.00
   18    7    0     -0.33      0.00
   16    8    0      4.95      0.00
   17    8    0     -0.24      0.00
   18    8    0      0.98      0.00
   15    9    0      0.80      0.00
   16    9    0     -0.38      0.00
   17    9    0      3.26      0.00
   18    9    0      0.63      0.00
   14   10    0      2.17      0.00
   15   10    0     -1.69      0.00
   16   10    0      1.73      0.00
   17   10    0      0.91      0.00
   13   11    0      5.52      0.00
   14   11    0      0.77      0.00
   15   11    0     -0.58      0.00
   16   11    0      0.23      0.00
   12   12    0      2.88      0.00
   13   12    0     -1.84      0.00
   14   12    0      1.53      0.00
   15   12    0      1.00      0.00
   10   13    0      0.11      0.00
   11   13    0      2.09      0.00
   12   13    0     -3.05      0.00
   13   13    0      0.67      0.00
   14   13    0      1.93      0.00
    8   14    0      1.29      0.00
    9   14    0     -0.74      0.00
   10   14    0      0.10      0.00
   11   14    0     -0.54      0.00
   12   14    0      0.99      0.00
   13   14    0     -0.61      0.00
    1   15    0     -0.90      0.00
    2   15    0      2.06      0.00
    3   15    0      1.01      0.00
    4   15    0     -2.11      0.00
    5   15    0      1.36      0.00
    6   15    0     -2.64      0.00
    7   15    0     -0.06      0.00
    8   15    0     -1.84      0.00
    9   15    0     -0.02      0.00
   10   15    0     -0.13      0.00
   11   15    0     -0.22      0.00
   -1    0    1    -22.10      0.00
    1    0    1   -153.03      0.00
   18    1    1     -1.68      0.00
   18    2    1     -0.01      0.00
  -18    3    1      2.31      0.00
   18    3    1      0.62      0.00
  -18    4    1      0.58      0.00
   18    4    1     -1.26      0.00
  -18    5    1     -0.91      0.00
   17    5    1      1.00      0.00
   18    5    1      1.89      0.00
  -18    6    1     -0.52      0.00
  -17    6    1      0.24      0.00
   17    6    1     -0.55      0.00
   18    6    1      1.57      0.00
  -18    7    1      0.40      0.00
  -17    7    1     -1.80      0.00
   16    7    1     -1.47      0.00
   17    7    1      0.24      0.00
   18    7    1     -0.31      0.00
  -18    8    1      0.38      0.00
  -17    8    1     -2.16      0.00
  -16    8    1      0.45      0.00
   16    8    1     -2.61      0.00
   17    8    1     -3.18      0.00
   18    8    1     -0.40      0.00
  -18    9    1      0.12      0.00
  -17    9    1      2.25      0.00
  -16    9    1     -4.30      0.00
  -15    9    1      0.68      0.00
   15    9    1     -1.19      0.00
   16    9    1     -2.23      0.00
   17    9    1      1.14      0.00
   18    9    1     -0.36      0.00
  -17   10    1      0.43      0.00
  -16   10    1      2.74      0.00
  -15   10    1      0.92      0.00
  -14   10    1     -0.52      0.00
   14   10    1     -2.58      0.00
   15   10    1      0.61      0.00
   16   10    1      1.67      0.00
   17   10    1     -1.62      0.00
  -16   11    1      0.67      0.00
  -15   11    1      1.01      0.00
  -14   11    1      0.03      0.00
  -13   11    1     -0.78      0.00
   13   11    1      1.35      0.00
   14   11    1     -3.90      0.00
   15   11    1      0.04      0.00
   16   11    1     -0.54      0.00
  -15   12    1      1.44      0.00
  -14   12    1      3.47      0.00
  -13   12    1     -1.72      0.00
  -12   12    1     -3.70      0.00
   11   12    1     -0.82      0.00
   12   12    1      3.31      0.00
   13   12    1     -2.95      0.00
   14   12    1     -0.72      0.00
   15   12    1      0.01      0.00
  -14   13    1      0.71      0.00
  -13   13    1      1.47      0.00
  -12   13    1     -0.38      0.00
  -11   13    1     -0.77      0.00
  -10   13    1     -0.91      0.00
   10   13    1      0.53      0.00
   11   13    1      0.56      0.00
   12   13    1     -1.13      0.00
   13   13    1      3.10      0.00
   14   13    1     -0.08      0.00
  -13   14    1      0.86      0.00
  -12   14    1     -0.49      0.00
  -11   14    1     -0.48      0.00
  -10   14    1      0.85      0.00
   -9   14    1     -1.03      0.00
   -8   14    1     -0.42      0.00
    7   14    1      2.35      0.00
    8   14    1      2.67      0.00
    9   14    1     -1.09      0.00
   10   14    1      2.03      0.00
   11   14    1      0.23      0.00
   12   14    1      2.28      0.00
   13   14    1     -0.14      0.00
  -11   15    1      0.47      0.00
  -10   15    1      0.68      0.00
   -9   15    1      1.64      0.00
   -8   15    1      0.31      0.00
   -7   15    1     -2.48      0.00
   -6   15    1     -0.90      0.00
   -5   15    1     -0.85      0.00
   -4   15    1      0.63      0.00
   -3   15    1     -3.19      0.00
    3   15    1     -1.84      0.00
    4   15    1      0.53      0.00
    5   15    1     -1.93      0.00
    6   15    1     -2.40      0.00
    7   15    1      3.14      0.00
    8   15    1      0.13      0.00
    9   15    1      1.26      0.00
   10   15    1      0.60      0.00
   11   15    1      1.02      0.00
   18    0    2      2.92      0.00
   18    1    2      0.04      0.00
   18    2    2      0.89      0.00
   18    3    2     -1.33      0.00
  -18    4    2      0.44      0.00
   18    4    2     -1.39      0.00
  -18    5    2      0.63      0.00
   17    5    2     -1.22      0.00
   18    5    2     -0.25      0.00
  -18    6    2      1.42      0.00
  -17    6    2     -0.28      0.00
   17    6    2      0.06      0.00
   18    6    2     -0.59      0.00
  -18    7    2      0.35      0.00
  -17    7    2      0.33      0.00
   16    7    2      4.18      0.00
   17    7    2      2.22      0.00
   18    7    2     -0.08      0.00
  -18    8    2      0.20      0.00
  -17    8    2      0.18      0.00
  -16    8    2      2.23      0.00
   16    8    2     -0.38      0.00
   17    8    2      0.70      0.00
   18    8    2      0.13      0.00
  -18    9    2     -1.79      0.00
  -17    9    2     -0.44      0.00
  -16    9    2     -4.68      0.00
  -15    9    2      0.88      0.00
   15    9    2     -3.42      0.00
   16    9    2      1.39      0.00
   17    9    2      1.60      0.00
   18    9    2     -0.68      0.00
  -17   10    2     -3.29      0.00
  -16   10    2      0.28      0.00
  -15   10    2     -3.79      0.00
  -14   10    2     -2.08      0.00
   14   10    2      1.11      0.00
   15   10    2      2.61      0.00
   16   10    2      0.12      0.00
   17   10    2     -0.56      0.00
  -17   11    2      0.52      0.00
  -16   11    2     -1.93      0.00
  -15   11    2     -2.16      0.00
  -14   11    2     -2.39      0.00
  -13   11    2      0.96      0.00
   13   11    2     -0.17      0.00
   14   11    2      2.10      0.00
   15   11    2      0.10      0.00
   16   11    2     -0.53      0.00
  -16   12    2      0.55      0.00
  -15   12    2     -0.62      0.00
  -14   12    2     -1.92      0.00
  -13   12    2     -3.09      0.00
  -12   12    2     -0.54      0.00
   11   12    2     -0.30      0.00
   12   12    2     -1.81      0.00
   13   12    2     -4.39      0.00
   14   12    2      1.58      0.00
   15   12    2      0.64      0.00
  -14   13    2     -2.39      0.00
  -13   13    2     -1.10      0.00
  -12   13    2      0.13      0.00
  -11   13    2     -0.91      0.00
  -10   13    2      0.65      0.00
    9   13    2     -0.29      0.00
   10   13    2     -2.71      0.00
   11   13    2     -1.83      0.00
   12   13    2     -2.64      0.00
   13   13    2     -0.03      0.00
   14   13    2     -0.30      0.00
  -13   14    2     -1.58      0.00
  -12   14    2     -0.92      0.00
  -11   14    2      0.16      0.00
  -10   14    2     -1.32      0.00
   -9   14    2     -1.34      0.00
   -8   14    2      1.23      0.00
    7   14    2      1.51      0.00
    8   14    2     -1.76      0.00
    9   14    2     -0.53      0.00
   10   14    2     -0.19      0.00
   11   14    2     -1.15      0.00
   12   14    2      0.21      0.00
  -11   15    2     -0.36      0.00
  -10   15    2     -0.32      0.00
   -9   15    2      0.03      0.00
   -8   15    2     -1.70      0.00
   -7   15    2     -0.78      0.00
   -6   15    2      1.61      0.00
   -5   15    2     -0.18      0.00
   -4   15    2     -0.34      0.00
   -3   15    2     -1.09      0.00
    3   15    2      0.11      0.00
    4   15    2      1.07      0.00
    5   15    2     -1.57      0.00
    6   15    2      3.65      0.00
    7   15    2      0.08      0.00
    8   15    2     -1.45      0.00
    9   15    2      1.69      0.00
   10   15    2     -1.14      0.00
   11   15    2     -0.49      0.00
   18    1    3     -0.93      0.00
   18    2    3      1.77      0.00
   18    3    3     -0.44      0.00
  -18    4    3     -1.55      0.00
   17    4    3     -0.37      0.00
   18    4    3      2.38      0.00
  -18    5    3     -2.01      0.00
   17    5    3      0.16      0.00
   18    5    3      1.23      0.00
  -18    6    3      0.26      0.00
   17    6    3     -0.64      0.00
   18    6    3     -0.19      0.00
  -18    7    3     -2.24      0.00
  -17    7    3     -0.57      0.00
   16    7    3      0.93      0.00
   17    7    3     -1.59      0.00
   18    7    3     -0.61      0.00
  -18    8    3      0.40      0.00
  -17    8    3      0.28      0.00
  -16    8    3      1.42      0.00
   15    8    3      1.65      0.00
   16    8    3     -3.24      0.00
   17    8    3     -1.18      0.00
   18    8    3      0.17      0.00
  -18    9    3     -0.14      0.00
  -17    9    3      2.27      0.00
  -16    9    3      0.27      0.00
   14    9    3     -2.46      0.00
   15    9    3     -2.96      0.00
   16    9    3      1.62      0.00
   17    9    3     -0.67      0.00
  -18   10    3     -0.10      0.00
  -17   10    3     -1.07      0.00
  -16   10    3      3.71      0.00
  -15   10    3     -0.09      0.00
   13   10    3      1.35      0.00
   14   10    3     -2.51      0.00
   15   10    3      1.86      0.00
   16   10    3     -1.49      0.00
   17   10    3     -1.38      0.00
  -17   11    3     -0.03      0.00
  -16   11    3     -2.24      0.00
  -15   11    3      1.14      0.00
  -14   11    3      2.21      0.00
  -13   11    3      2.84      0.00
   12   11    3      4.36      0.00
   13   11    3      2.96      0.00
   14   11    3      0.24      0.00
   15   11    3     -2.32      0.00
   16   11    3      0.52      0.00
  -16   12    3     -0.26      0.00
  -15   12    3     -0.15      0.00
  -14   12    3      1.31      0.00
  -13   12    3      1.54      0.00
  -12   12    3      1.01      0.00
   11   12    3      2.50      0.00
   12   12    3      2.04      0.00
   13   12    3      2.32      0.00
   14   12    3      1.32      0.00
   15   12    3      0.22      0.00
  -14   13    3      0.27      0.00
  -13   13    3      2.23      0.00
  -12   13    3      1.37      0.00
  -11   13    3     -0.99      0.00
  -10   13    3      2.60      0.00
    9   13    3     -3.03      0.00
   10   13    3      0.19      0.00
   11   13    3      0.84      0.00
   12   13    3      1.31      0.00
   13   13    3      3.64      0.00
  -13   14    3     -0.03      0.00
  -12   14    3      0.27      0.00
  -11   14    3      0.94      0.00
  -10   14    3     -1.36      0.00
   -9   14    3      2.84      0.00
   -8   14    3      1.22      0.00
    7   14    3      1.80      0.00
    8   14    3     -2.22      0.00
    9   14    3     -0.58      0.00
   10   14    3      0.30      0.00
   11   14    3      1.00      0.00
   12   14    3      0.27      0.00
  -11   15    3     -0.30      0.00
  -10   15    3      0.98      0.00
   -9   15    3     -0.12      0.00
   -8   15    3     -0.05      0.00
   -7   15    3     -0.22      0.00
   -6   15    3      0.69      0.00
   -5   15    3      0.23      0.00
   -4   15    3      0.55      0.00
   -3   15    3      0.85      0.00
    2   15    3      2.21      0.00
    3   15    3      0.46      0.00
    4   15    3      1.10      0.00
    5   15    3     -1.61      0.00
    6   15    3      0.77      0.00
    7   15    3     -1.69      0.00
    8   15    3      2.19      0.00
    9   15    3     -0.26      0.00
   10   15    3     -1.47      0.00
   18    0    4     -0.30      0.00
   18    1    4     -1.98      0.00
   18    2    4     -0.82      0.00
   17    3    4     -1.29      0.00
   18    3    4     -2.04      0.00
  -18    4    4      1.74      0.00
   17    4    4     -0.67      0.00
   18    4    4      0.71      0.00
  -18    5    4      0.96      0.00
   17    5    4      1.23      0.00
   18    5    4     -1.41      0.00
  -18    6    4      2.55      0.00
   16    6    4     -1.13      0.00
   17    6    4      1.52      0.00
   18    6    4      0.50      0.00
  -18    7    4     -0.22      0.00
  -17    7    4      3.94      0.00
   16    7    4      3.01      0.00
   17    7    4      1.16      0.00
   18    7    4      0.23      0.00
  -18    8    4      0.93      0.00
  -17    8    4     -0.86      0.00
  -16    8    4      0.03      0.00
   15    8    4      0.35      0.00
   16    8    4     -1.25      0.00
   17    8    4      1.24      0.00
   18    8    4      0.17      0.00
  -18    9    4     -0.18      0.00
  -17    9    4      0.57      0.00
  -16    9    4     -1.78      0.00
   14    9    4     -2.72      0.00
   15    9    4     -0.39      0.00
   16    9    4      1.67      0.00
   17    9    4      1.00      0.00
  -18   10    4      1.08      0.00
  -17   10    4      0.50      0.00
  -16   10    4      3.22      0.00
  -15   10    4     -2.27      0.00
   13   10    4     -5.93      0.00
   14   10    4      0.59      0.00
   15   10    4      1.69      0.00
   16   10    4     -1.28      0.00
  -17   11    4      1.51      0.00
  -16   11    4     -0.30      0.00
  -15   11    4      2.61      0.00
  -14   11    4     -1.01      0.00
  -13   11    4     -0.64      0.00
   12   11    4     -2.77      0.00
   13   11    4     -4.00      0.00
   14   11    4     -1.20      0.00
   15   11    4     -1.38      0.00
  -16   12    4      1.33      0.00
  -15   12    4      0.29      0.00
  -14   12    4     -0.63      0.00
  -13   12    4     -2.26      0.00
  -12   12    4     -0.56      0.00
   10   12    4      1.04      0.00
   11   12    4     -0.72      0.00
   12   12    4     -2.49      0.00
   13   12    4     -3.64      0.00
   14   12    4     -1.10      0.00
  -15   13    4      0.33      0.00
  -14   13    4      0.65      0.00
  -13   13    4     -0.72      0.00
  -12   13    4     -0.85      0.00
  -11   13    4     -0.30      0.00
  -10   13    4      0.60      0.00
    9   13    4      1.05      0.00
   10   13    4      1.84      0.00
   11   13    4     -0.32      0.00
   12   13    4      0.45      0.00
   13   13    4     -0.21      0.00
  -13   14    4     -0.01      0.00
  -12   14    4     -0.03      0.00
  -11   14    4      0.70      0.00
  -10   14    4     -1.77      0.00
   -9   14    4      1.29      0.00
   -8   14    4     -2.22      0.00
    6   14    4      3.23      0.00
    7   14    4     -0.60      0.00
    8   14    4     -3.32      0.00
    9   14    4      3.38      0.00
   10   14    4      0.88      0.00
   11   14    4      0.55      0.00
   12   14    4     -0.20      0.00
  -11   15    4     -0.08      0.00
  -10   15    4      1.42      0.00
   -9   15    4     -2.02      0.00
   -8   15    4     -0.15      0.00
   -7   15    4      0.03      0.00
   -6   15    4      1.65      0.00
   -5   15    4      0.19      0.00
   -4   15    4     -1.71      0.00
   -3   15    4      1.48      0.00
   -2   15    4     -1.14      0.00
   -1   15    4     -0.63      0.00
    0   15    4     -1.55      0.00
    1   15    4     -1.45      0.00
    2   15    4     -4.43      0.00
    3   15    4     -0.40      0.00
    4   15    4     -3.66      0.00
    5   15    4     -0.87      0.00
    6   15    4      1.41      0.00
    7   15    4     -1.33      0.00
    8   15    4      0.27      0.00
    9   15    4     -1.47      0.00
   10   15    4      0.38      0.00
   17    0    5      2.31      0.00
   17    1    5      0.15      0.00
   18    1    5      1.06      0.00
   17    2    5      0.43      0.00
   18    2    5      1.11      0.00
   17    3    5     -2.06      0.00
   18    3    5      0.47      0.00
   17    4    5      1.01      0.00
   18    4    5      1.16      0.00
  -18    5    5     -0.79      0.00
   16    5    5      1.75      0.00
   17    5    5     -0.43      0.00
   18    5    5     -1.49      0.00
  -18    6    5     -0.86      0.00
   16    6    5     -0.97      0.00
   17    6    5     -1.21      0.00
   18    6    5      0.04      0.00
  -18    7    5     -1.29      0.00
  -17    7    5      0.74      0.00
   15    7    5      0.17      0.00
   16    7    5      1.45      0.00
   17    7    5     -1.39      0.00
   18    7    5     -0.78      0.00
  -18    8    5      1.11      0.00
  -17    8    5     -1.91      0.00
  -16    8    5      0.45      0.00
   15    8    5      0.76      0.00
   16    8    5     -1.15      0.00
   17    8    5     -0.61      0.00
  -18    9    5     -0.94      0.00
  -17    9    5     -0.42      0.00
  -16    9    5     -2.17      0.00
   14    9    5     -1.48      0.00
   15    9    5      1.08      0.00
   16    9    5      1.14      0.00
   17    9    5     -0.94      0.00
  -18   10    5      0.09      0.00
  -17   10    5     -1.81      0.00
  -16   10    5     -0.97      0.00
  -15   10    5     -3.64      0.00
   13   10    5      0.55      0.00
   14   10    5      4.25      0.00
   15   10    5      0.09      0.00
   16   10    5     -0.36      0.00
  -17   11    5      0.43      0.00
  -16   11    5     -1.85      0.00
  -15   11    5      1.10      0.00
  -14   11    5     -0.40      0.00
  -13   11    5      1.77      0.00
   12   11    5      0.12      0.00
   13   11    5      4.56      0.00
   14   11    5      1.20      0.00
   15   11    5     -0.27      0.00
  -16   12    5      1.29      0.00
  -15   12    5     -1.07      0.00
  -14   12    5      0.91      0.00
  -13   12    5      1.25      0.00
  -12   12    5      2.48      0.00
   10   12    5     -2.65      0.00
   11   12    5     -1.40      0.00
   12   12    5     -0.84      0.00
   13   12    5      1.43      0.00
   14   12    5      1.62      0.00
  -15   13    5      0.69      0.00
  -14   13    5      0.21      0.00
  -13   13    5      0.32      0.00
  -12   13    5      0.21      0.00
  -11   13    5      1.06      0.00
  -10   13    5     -0.80      0.00
    8   13    5     -0.07      0.00
    9   13    5     -2.72      0.00
   10   13    5     -1.31      0.00
   11   13    5     -0.99      0.00
   12   13    5     -0.28      0.00
   13   13    5      0.53      0.00
  -13   14    5      0.80      0.00
  -12   14    5     -0.05      0.00
  -11   14    5     -0.66      0.00
  -10   14    5     -0.45      0.00
   -9   14    5      2.81      0.00
   -8   14    5      1.16      0.00
   -7   14    5     -0.70      0.00
    5   14    5     -2.76      0.00
    6   14    5      3.42      0.00
    7   14    5     -2.12      0.00
    8   14    5      3.10      0.00
    9   14    5      2.63      0.00
   10   14    5     -1.84      0.00
   11   14    5      0.37      0.00
  -11   15    5     -0.35      0.00
  -10   15    5      0.84      0.00
   -9   15    5     -1.30      0.00
   -8   15    5      1.86      0.00
   -7   15    5      0.78      0.00
   -6   15    5     -0.69      0.00
   -5   15    5     -1.89      0.00
   -4   15    5     -2.30      0.00
   -3   15    5      2.12      0.00
   -2   15    5     -2.76      0.00
   -1   15    5      0.50      0.00
    0   15    5     -0.18      0.00
    1   15    5      1.34      0.00
    2   15    5      1.34      0.00
    3   15    5      1.89      0.00
    4   15    5     -1.04      0.00
    5   15    5      4.48      0.00
    6   15    5     -1.64      0.00
    7   15    5      0.83      0.00
    8   15    5      3.03      0.00
    9   15    5     -1.01      0.00
   10   15    5      0.44      0.00
   18    0    6     -1.63      0.00
   17    1    6      0.17      0.00
   18    1    6     -0.03      0.00
   17    2    6      1.17      0.00
   18    2    6      0.68      0.00
   17    3    6     -1.16      0.00
   18    3    6      0.09      0.00
  -18    4    6      0.13      0.00
   16    4    6     -3.21      0.00
   17    4    6      2.32      0.00
   18    4    6     -0.35      0.00
  -18    5    6      1.79      0.00
   16    5    6      1.63      0.00
   17    5    6     -1.21      0.00
   18    5    6      0.18      0.00
  -18    6    6     -0.19      0.00
   15    6    6      0.06      0.00
   16    6    6     -1.50      0.00
   17    6    6      0.89      0.00
   18    6    6      1.42      0.00
  -18    7    6     -0.99      0.00
  -17    7    6      2.43      0.00
   15    7    6     -0.49      0.00
   16    7    6      0.78      0.00
   17    7    6      0.18      0.00
   18    7    6     -0.21      0.00
  -18    8    6     -0.25      0.00
  -17    8    6     -1.59      0.00
  -16    8    6      2.68      0.00
   14    8    6     -0.94      0.00
   15    8    6      0.02      0.00
   16    8    6     -1.80      0.00
   17    8    6      0.87      0.00
  -18    9    6     -0.36      0.00
  -17    9    6      1.89      0.00
  -16    9    6      1.48      0.00
  -15    9    6      3.06      0.00
   13    9    6     -1.84      0.00
   14    9    6     -2.22      0.00
   15    9    6     -0.28      0.00
   16    9    6      0.34      0.00
  -18   10    6      0.20      0.00
  -17   10    6     -0.42      0.00
  -16   10    6      1.40      0.00
  -15   10    6     -0.10      0.00
  -14   10    6      0.68      0.00
   12   10    6     -0.93      0.00
   13   10    6     -3.53      0.00
   14   10    6      0.90      0.00
   15   10    6     -1.21      0.00
   16   10    6     -0.91      0.00
  -17   11    6     -0.61      0.00
  -16   11    6     -1.34      0.00
  -15   11    6      0.28      0.00
  -14   11    6     -1.97      0.00
  -13   11    6     -2.97      0.00
   11   11    6      1.73      0.00
   12   11    6     -0.25      0.00
   13   11    6      0.72      0.00
   14   11    6     -3.03      0.00
   15   11    6     -0.03      0.00
  -16   12    6     -0.40      0.00
  -15   12    6     -1.85      0.00
  -14   12    6     -0.12      0.00
  -13   12    6     -1.53      0.00
  -12   12    6     -1.31      0.00
   10   12    6      3.20      0.00
   11   12    6      0.66      0.00
   12   12    6      1.87      0.00
   13   12    6     -0.34      0.00
   14   12    6      0.00      0.00
  -14   13    6     -0.88      0.00
  -13   13    6     -0.85      0.00
  -12   13    6     -0.67      0.00
  -11   13    6      1.58      0.00
  -10   13    6     -2.25      0.00
    8   13    6     -5.76      0.00
    9   13    6     -0.07      0.00
   10   13    6      1.46      0.00
   11   13    6      0.82      0.00
   12   13    6      1.04      0.00
  -13   14    6     -0.08      0.00
  -12   14    6     -0.75      0.00
  -11   14    6     -0.51      0.00
  -10   14    6      1.37      0.00
   -9   14    6     -0.32      0.00
   -8   14    6     -2.42      0.00
   -7   14    6     -3.00      0.00
    5   14    6     -3.59      0.00
    6   14    6      2.09      0.00
    7   14    6     -2.54      0.00
    8   14    6      0.09      0.00
    9   14    6     -1.04      0.00
   10   14    6     -0.48      0.00
   11   14    6     -0.20      0.00
  -11   15    6      0.51      0.00
  -10   15    6      0.57      0.00
   -9   15    6     -1.43      0.00
   -8   15    6     -0.07      0.00
   -7   15    6     -0.11      0.00
   -6   15    6     -1.68      0.00
   -5   15    6      0.83      0.00
   -4   15    6      0.80      0.00
   -3   15    6      3.47      0.00
   -2   15    6     -0.79      0.00
   -1   15    6      2.18      0.00
    0   15    6      1.34      0.00
    1   15    6      0.52      0.00
    2   15    6     -0.04      0.00
    3   15    6     -0.76      0.00
    4   15    6     -1.24      0.00
    5   15    6      1.04      0.00
    6   15    6     -1.78      0.00
    7   15    6      2.85      0.00
    8   15    6     -2.18      0.00
    9   15    6     -2.51      0.00
   17    0    7     -0.75      0.00
   17    1    7     -1.55      0.00
   18    1    7      0.14      0.00
   16    2    7      1.71      0.00
   17    2    7      0.08      0.00
   18    2    7     -0.25      0.00
   16    3    7      0.01      0.00
   17    3    7      0.19      0.00
   18    3    7     -0.22      0.00
  -18    4    7     -1.91      0.00
   16    4    7      0.21      0.00
   17    4    7      2.31      0.00
   18    4    7     -0.88      0.00
  -18    5    7      1.21      0.00
   16    5    7      2.41      0.00
   17    5    7     -2.32      0.00
   18    5    7     -0.14      0.00
  -18    6    7     -0.66      0.00
   15    6    7     -0.12      0.00
   16    6    7     -1.65      0.00
   17    6    7      0.90      0.00
   18    6    7     -0.46      0.00
  -18    7    7      1.99      0.00
  -17    7    7      1.83      0.00
   14    7    7     -0.42      0.00
   15    7    7     -0.44      0.00
   16    7    7      0.79      0.00
   17    7    7     -0.56      0.00
  -18    8    7      0.48      0.00
  -17    8    7     -1.18      0.00
  -16    8    7      0.19      0.00
   14    8    7     -0.25      0.00
   15    8    7      0.67      0.00
   16    8    7     -0.83      0.00
   17    8    7      0.08      0.00
  -18    9    7      0.21      0.00
  -17    9    7      0.76      0.00
  -16    9    7     -1.90      0.00
  -15    9    7     -0.94      0.00
   13    9    7     -1.97      0.00
   14    9    7      0.72      0.00
   15    9    7     -0.50      0.00
   16    9    7      1.08      0.00
  -18   10    7      0.77      0.00
  -17   10    7      0.42      0.00
  -16   10    7      0.97      0.00
  -15   10    7      0.35      0.00
  -14   10    7      2.26      0.00
   12   10    7     -2.53      0.00
   13   10    7      0.57      0.00
   14   10    7      1.85      0.00
   15   10    7     -0.38      0.00
  -17   11    7      1.26      0.00
  -16   11    7      1.28      0.00
  -15   11    7      1.57      0.00
  -14   11    7      1.87      0.00
  -13   11    7      1.39      0.00
   11   11    7     -1.85      0.00
   12   11    7     -0.87      0.00
   13   11    7      0.70      0.00
   14   11    7     -1.37      0.00
  -16   12    7      0.41      0.00
  -15   12    7      0.24      0.00
  -14   12    7      0.89      0.00
  -13   12    7      1.99      0.00
  -12   12    7     -0.51      0.00
    9   12    7     -2.05      0.00
   10   12    7     -0.83      0.00
   11   12    7     -1.39      0.00
   12   12    7     -0.71      0.00
   13   12    7     -1.68      0.00
  -14   13    7     -0.88      0.00
  -13   13    7      0.51      0.00
  -12   13    7      1.61      0.00
  -11   13    7      0.19      0.00
  -10   13    7     -2.17      0.00
   -9   13    7      1.74      0.00
    7   13    7     -3.42      0.00
    8   13    7      0.63      0.00
    9   13    7      3.17      0.00
   10   13    7     -0.72      0.00
   11   13    7      0.47      0.00
   12   13    7     -0.72      0.00
  -13   14    7      0.54      0.00
  -12   14    7      0.30      0.00
  -11   14    7     -0.45      0.00
  -10   14    7      1.08      0.00
   -9   14    7     -0.51      0.00
   -8   14    7      0.52      0.00
   -7   14    7      1.07      0.00
   -6   14    7      3.04      0.00
    4   14    7     -1.59      0.00
    5   14    7      3.63      0.00
    6   14    7     -1.31      0.00
    7   14    7     -0.71      0.00
    8   14    7      3.05      0.00
    9   14    7      0.27      0.00
   10   14    7     -0.51      0.00
  -11   15    7     -0.13      0.00
  -10   15    7     -1.10      0.00
   -9   15    7     -1.05      0.00
   -8   15    7      1.02      0.00
   -7   15    7      1.42      0.00
   -6   15    7     -0.54      0.00
   -5   15    7      1.56      0.00
   -4   15    7     -0.53      0.00
   -3   15    7      1.35      0.00
   -2   15    7     -2.07      0.00
   -1   15    7     -1.61      0.00
    0   15    7     -1.47      0.00
    1   15    7     -2.76      0.00
    2   15    7     -0.64      0.00
    3   15    7     -1.79      0.00
    4   15    7      0.88      0.00
    5   15    7      1.88      0.00
    6   15    7     -0.11      0.00
    7   15    7      0.18      0.00
    8   15    7     -1.47      0.00
   16    0    8     -1.25      0.00
   18    0    8      0.03      0.00
   16    1    8     -0.57      0.00
   17    1    8     -0.41      0.00
   18    1    8      1.13      0.00
   16    2    8     -1.84      0.00
   17    2    8     -0.27      0.00
   18    2    8     -0.88      0.00
   16    3    8     -1.70      0.00
   17    3    8     -0.72      0.00
   18    3    8      0.00      0.00
  -18    4    8     -0.75      0.00
   16    4    8      1.65      0.00
   17    4    8      0.14      0.00
   18    4    8      0.33      0.00
  -18    5    8      0.69      0.00
   15    5    8      2.30      0.00
   16    5    8      1.11      0.00
   17    5    8     -1.34      0.00
   18    5    8      1.41      0.00
  -18    6    8     -3.12      0.00
  -17    6    8      0.27      0.00
   15    6    8      0.79      0.00
   16    6    8     -0.08      0.00
   17    6    8      1.46      0.00
  -18    7    8      0.23      0.00
  -17    7    8     -1.50      0.00
   14    7    8     -0.92      0.00
   15    7    8      1.09      0.00
   16    7    8      0.98      0.00
   17    7    8     -0.23      0.00
  -18    8    8     -0.50      0.00
  -17    8    8     -1.15      0.00
  -16    8    8      2.44      0.00
   13    8    8      1.67      0.00
   14    8    8      0.52      0.00
   15    8    8      0.37      0.00
   16    8    8      0.04      0.00
  -18    9    8      0.02      0.00
  -17    9    8     -0.10      0.00
  -16    9    8     -1.05      0.00
  -15    9    8      0.61      0.00
   12    9    8      1.05      0.00
   13    9    8     -2.04      0.00
   14    9    8      0.62      0.00
   15    9    8     -0.35      0.00
  -18   10    8     -0.58      0.00
  -17   10    8     -1.54      0.00
  -16   10    8     -1.07      0.00
  -15   10    8     -1.50      0.00
  -14   10    8     -1.70      0.00
   11   10    8      1.47      0.00
   12   10    8     -3.07      0.00
   13   10    8      2.22      0.00
   14   10    8      0.06      0.00
   15   10    8      0.34      0.00
  -17   11    8     -0.10      0.00
  -16   11    8     -0.84      0.00
  -15   11    8     -0.96      0.00
  -14   11    8     -1.09      0.00
  -13   11    8     -2.82      0.00
   10   11    8      1.94      0.00
   11   11    8      0.45      0.00
   12   11    8      2.62      0.00
   13   11    8      0.66      0.00
   14   11    8     -0.53      0.00
  -16   12    8     -0.24      0.00
  -15   12    8      0.82      0.00
  -14   12    8      0.25      0.00
  -13   12    8      0.33      0.00
  -12   12    8     -3.55      0.00
  -11   12    8      2.75      0.00
    8   12    8     -3.61      0.00
    9   12    8     -2.33      0.00
   10   12    8      2.13      0.00
   11   12    8      1.03      0.00
   12   12    8      0.08      0.00
   13   12    8      0.25      0.00
  -14   13    8      0.31      0.00
  -13   13    8     -0.28      0.00
  -12   13    8      0.36      0.00
  -11   13    8     -2.00      0.00
  -10   13    8     -0.31      0.00
   -9   13    8      0.09      0.00
    6   13    8      1.67      0.00
    7   13    8     -3.51      0.00
    8   13    8      1.06      0.00
    9   13    8      0.69      0.00
   10   13    8      0.36      0.00
   11   13    8      0.44      0.00
  -13   14    8     -0.19      0.00
  -12   14    8     -1.34      0.00
  -11   14    8     -0.28      0.00
  -10   14    8      1.15      0.00
   -9   14    8     -0.73      0.00
   -8   14    8     -1.36      0.00
   -7   14    8     -0.80      0.00
   -6   14    8     -1.14      0.00
   -5   14    8     -1.19      0.00
    3   14    8      2.34      0.00
    4   14    8     -4.31      0.00
    5   14    8     -0.85      0.00
    6   14    8     -3.91      0.00
    7   14    8      4.07      0.00
    8   14    8     -0.24      0.00
    9   14    8     -1.76      0.00
   10   14    8      0.06      0.00
  -11   15    8     -0.05      0.00
  -10   15    8     -0.08      0.00
   -9   15    8      0.45      0.00
   -8   15    8      0.73      0.00
   -7   15    8     -0.20      0.00
   -6   15    8     -2.93      0.00
   -5   15    8     -0.53      0.00
   -4   15    8      0.00      0.00
   -3   15    8      0.41      0.00
   -2   15    8     -1.58      0.00
   -1   15    8      0.78      0.00
    0   15    8      3.35      0.00
    1   15    8      1.37      0.00
    2   15    8      2.83      0.00
    3   15    8      0.36      0.00
    4   15    8      1.43      0.00
    5   15    8     -1.54      0.00
    6   15    8     -0.41      0.00
    7   15    8     -0.87      0.00
    8   15    8     -1.05      0.00
   17    0    9     -0.20      0.00
   16    1    9      2.02      0.00
   17    1    9      0.78      0.00
   18    1    9      0.81      0.00
   16    2    9     -1.03      0.00
   17    2    9      1.32      0.00
   18    2    9     -0.84      0.00
   15    3    9     -3.60      0.00
   16    3    9     -1.49      0.00
   17    3    9      0.17      0.00
   18    3    9      0.43      0.00
  -18    4    9      0.15      0.00
   15    4    9     -2.98      0.00
   16    4    9      0.52      0.00
   17    4    9     -0.73      0.00
   18    4    9     -0.60      0.00
  -18    5    9      1.52      0.00
   15    5    9      1.18      0.00
   16    5    9     -2.59      0.00
   17    5    9     -0.22      0.00
  -18    6    9     -0.56      0.00
  -17    6    9      3.05      0.00
   14    6    9      1.89      0.00
   15    6    9     -2.18      0.00
   16    6    9     -1.07      0.00
   17    6    9      0.27      0.00
  -18    7    9      1.42      0.00
  -17    7    9     -0.34      0.00
   13    7    9     -1.14      0.00
   14    7    9     -2.07      0.00
   15    7    9      0.84      0.00
   16    7    9     -0.98      0.00
  -18    8    9     -0.80      0.00
  -17    8    9      0.32      0.00
  -16    8    9      1.20      0.00
   13    8    9     -0.51      0.00
   14    8    9      1.09      0.00
   15    8    9     -0.67      0.00
   16    8    9     -0.11      0.00
  -18    9    9      0.52      0.00
  -17    9    9      1.52      0.00
  -16    9    9      0.02      0.00
  -15    9    9      1.15      0.00
   12    9    9      1.14      0.00
   13    9    9     -1.48      0.00
   14    9    9     -0.09      0.00
   15    9    9     -0.19      0.00
  -17   10    9      0.66      0.00
  -16   10    9      1.58      0.00
  -15   10    9      0.58      0.00
  -14   10    9      1.70      0.00
   11   10    9     -3.78      0.00
   12   10    9     -1.84      0.00
   13   10    9      1.54      0.00
   14   10    9     -0.88      0.00
  -16   11    9     -0.23      0.00
  -15   11    9     -0.63      0.00
  -14   11    9     -0.61      0.00
  -13   11    9      1.33      0.00
    9   11    9     -0.73      0.00
   10   11    9     -3.38      0.00
   11   11    9     -1.79      0.00
   12   11    9      1.46      0.00
   13   11    9     -1.77      0.00
  -15   12    9     -0.19      0.00
  -14   12    9     -1.55      0.00
  -13   12    9      0.08      0.00
  -12   12    9     -0.44      0.00
  -11   12    9      3.25      0.00
    8   12    9     -4.58      0.00
    9   12    9      0.91      0.00
   10   12    9     -0.01      0.00
   11   12    9     -0.69      0.00
   12   12    9     -1.11      0.00
  -14   13    9     -0.43      0.00
  -13   13    9     -0.62      0.00
  -12   13    9      2.53      0.00
  -11   13    9     -1.42      0.00
  -10   13    9      2.01      0.00
   -9   13    9      0.90      0.00
    5   13    9      5.42      0.00
    6   13    9      0.73      0.00
    7   13    9     -3.47      0.00
    8   13    9      3.30      0.00
    9   13    9      1.05      0.00
   10   13    9     -1.05      0.00
   11   13    9     -1.31      0.00
  -12   14    9     -0.20      0.00
  -11   14    9      1.37      0.00
  -10   14    9      0.05      0.00
   -9   14    9      0.25      0.00
   -8   14    9     -0.29      0.00
   -7   14    9      3.08      0.00
   -6   14    9      2.55      0.00
   -5   14    9      1.91      0.00
   -4   14    9     -2.03      0.00
    0   14    9     -4.25      0.00
    1   14    9     -1.99      0.00
    2   14    9     -5.47      0.00
    3   14    9     -1.04      0.00
    4   14    9     -1.08      0.00
    5   14    9      2.89      0.00
    6   14    9      1.89      0.00
    7   14    9      4.65      0.00
    8   14    9     -1.91      0.00
    9   14    9      0.48      0.00
  -10   15    9     -0.79      0.00
   -9   15    9     -0.21      0.00
   -8   15    9      0.65      0.00
   -7   15    9      0.18      0.00
   -6   15    9      0.60      0.00
   -5   15    9      3.01      0.00
   -4   15    9      0.14      0.00
   -3   15    9     -0.68      0.00
   -2   15    9     -0.27      0.00
   -1   15    9     -0.79      0.00
    0   15    9     -0.81      0.00
    1   15    9     -3.72      0.00
    2   15    9     -1.41      0.00
    3   15    9     -2.75      0.00
    4   15    9      0.54      0.00
    5   15    9      0.73      0.00
    6   15    9      2.14      0.00
    7   15    9     -1.81      0.00
   16    0   10     -1.39      0.00
   18    0   10     -0.03      0.00
   15    1   10      2.51      0.00
   16    1   10      0.97      0.00
   17    1   10      0.22      0.00
   18    1   10     -0.31      0.00
   15    2   10      4.40      0.00
   16    2   10      0.90      0.00
   17    2   10      0.06      0.00
   18    2   10     -0.49      0.00
  -18    3   10      0.37      0.00
   15    3   10     -0.05      0.00
   16    3   10      2.60      0.00
   17    3   10      0.46      0.00
  -18    4   10     -1.51      0.00
   14    4   10     -2.89      0.00
   15    4   10      0.37      0.00
   16    4   10      2.10      0.00
   17    4   10     -0.50      0.00
  -18    5   10      0.24      0.00
   14    5   10     -1.36      0.00
   15    5   10      1.69      0.00
   16    5   10     -0.09      0.00
   17    5   10      1.05      0.00
  -18    6   10     -0.36      0.00
  -17    6   10      0.07      0.00
   14    6   10      1.45      0.00
   15    6   10     -1.43      0.00
   16    6   10      1.74      0.00
  -18    7   10      1.87      0.00
  -17    7   10     -1.86      0.00
  -16    7   10      0.84      0.00
   13    7   10      0.90      0.00
   14    7   10     -1.48      0.00
   15    7   10      0.66      0.00
   16    7   10     -0.16      0.00
  -18    8   10     -0.68      0.00
  -17    8   10      0.02      0.00
  -16    8   10     -0.56      0.00
   12    8   10     -0.48      0.00
   13    8   10     -0.05      0.00
   14    8   10      1.58      0.00
   15    8   10     -1.49      0.00
  -18    9   10     -0.01      0.00
  -17    9   10     -0.75      0.00
  -16    9   10     -2.37      0.00
  -15    9   10      0.58      0.00
   11    9   10      5.22      0.00
   12    9   10     -2.02      0.00
   13    9   10     -0.25      0.00
   14    9   10     -0.01      0.00
  -17   10   10     -0.25      0.00
  -16   10   10      0.01      0.00
  -15   10   10     -0.06      0.00
  -14   10   10      0.74      0.00
   10   10   10      4.07      0.00
   11   10   10     -0.87      0.00
   12   10   10      0.58      0.00
   13   10   10      1.60      0.00
   14   10   10      0.16      0.00
  -16   11   10      0.13      0.00
  -15   11   10      1.02      0.00
  -14   11   10      1.41      0.00
  -13   11   10      1.19      0.00
  -12   11   10     -2.02      0.00
    9   11   10     -4.27      0.00
   10   11   10     -0.40      0.00
   11   11   10      3.36      0.00
   12   11   10      1.14      0.00
   13   11   10     -0.99      0.00
  -15   12   10      0.68      0.00
  -14   12   10      0.84      0.00
  -13   12   10      0.16      0.00
  -12   12   10     -0.74      0.00
  -11   12   10      0.35      0.00
  -10   12   10     -1.90      0.00
    7   12   10      0.27      0.00
    8   12   10     -5.03      0.00
    9   12   10      1.49      0.00
   10   12   10      1.65      0.00
   11   12   10      0.89      0.00
   12   12   10     -0.33      0.00
  -14   13   10      0.57      0.00
  -13   13   10      0.43      0.00
  -12   13   10      0.26      0.00
  -11   13   10     -2.18      0.00
  -10   13   10      1.42      0.00
   -9   13   10     -1.98      0.00
   -8   13   10     -0.30      0.00
    4   13   10     -1.41      0.00
    5   13   10     -2.15      0.00
    6   13   10     -7.34      0.00
    7   13   10     -2.33      0.00
    8   13   10      3.20      0.00
    9   13   10     -1.23      0.00
   10   13   10     -0.74      0.00
  -12   14   10     -0.49      0.00
  -11   14   10      1.29      0.00
  -10   14   10      0.14      0.00
   -9   14   10      0.46      0.00
   -8   14   10     -1.64      0.00
   -7   14   10      0.77      0.00
   -6   14   10     -4.80      0.00
   -5   14   10     -3.09      0.00
   -4   14   10     -0.74      0.00
   -3   14   10      3.60      0.00
   -2   14   10      1.18      0.00
   -1   14   10      1.12      0.00
    0   14   10      4.48      0.00
    1   14   10      3.60      0.00
    2   14   10      3.72      0.00
    3   14   10      3.99      0.00
    4   14   10     -0.74      0.00
    5   14   10     -1.77      0.00
    6   14   10     -1.04      0.00
    7   14   10      0.30      0.00
    8   14   10     -3.45      0.00
    9   14   10     -0.94      0.00
  -10   15   10      0.22      0.00
   -9   15   10      0.56      0.00
   -8   15   10      0.99      0.00
   -7   15   10     -0.63      0.00
   -6   15   10     -1.12      0.00
   -5   15   10     -1.77      0.00
   -4   15   10      0.16      0.00
   -3   15   10      1.36      0.00
   -2   15   10      0.02      0.00
   -1   15   10      0.32      0.00
    0   15   10      1.78      0.00
    1   15   10      0.59      0.00
    2   15   10      3.09      0.00
    3   15   10      0.69      0.00
    4   15   10      2.85      0.00
    5   15   10     -0.53      0.00
    6   15   10     -1.09      0.00
   15    0   11     -3.63      0.00
   17    0   11     -0.28      0.00
   15    1   11     -1.89      0.00
   16    1   11     -1.11      0.00
   17    1   11      0.01      0.00
  -18    2   11     -0.69      0.00
   14    2   11      2.27      0.00
   15    2   11     -1.72      0.00
   16    2   11     -2.82      0.00
   17    2   11     -1.39      0.00
  -18    3   11      1.31      0.00
   14    3   11      3.04      0.00
   15    3   11     -0.94      0.00
   16    3   11      0.02      0.00
   17    3   11     -0.07      0.00
  -18    4   11     -2.14      0.00
   14    4   11      0.24      0.00
   15    4   11      2.10      0.00
   16    4   11     -1.29      0.00
   17    4   11     -0.56      0.00
  -18    5   11      0.03      0.00
  -17    5   11     -0.11      0.00
   13    5   11     -5.14      0.00
   14    5   11      0.91      0.00
   15    5   11      0.50      0.00
   16    5   11     -1.22      0.00
  -18    6   11     -1.37      0.00
  -17    6   11     -0.03      0.00
   13    6   11      0.00      0.00
   14    6   11     -0.32      0.00
   15    6   11      0.11      0.00
   16    6   11      0.28      0.00
  -18    7   11      0.32      0.00
  -17    7   11     -1.25      0.00
  -16    7   11      2.55      0.00
   12    7   11      1.66      0.00
   13    7   11     -1.44      0.00
   14    7   11     -0.86      0.00
   15    7   11      1.86      0.00
  -18    8   11     -0.97      0.00
  -17    8   11      1.93      0.00
  -16    8   11      0.67      0.00
  -15    8   11      0.47      0.00
   11    8   11     -0.60      0.00
   12    8   11      2.07      0.00
   13    8   11      0.11      0.00
   14    8   11      0.59      0.00
   15    8   11     -0.52      0.00
  -18    9   11      0.36      0.00
  -17    9   11      0.17      0.00
  -16    9   11      1.07      0.00
  -15    9   11      0.86      0.00
  -14    9   11     -1.68      0.00
   11    9   11     -0.62      0.00
   12    9   11     -1.12      0.00
   13    9   11     -0.01      0.00
   14    9   11     -1.33      0.00
  -17   10   11     -0.27      0.00
  -16   10   11      0.59      0.00
  -15   10   11     -1.02      0.00
  -14   10   11     -1.36      0.00
  -13   10   11     -0.56      0.00
    9   10   11      5.56      0.00
   10   10   11     -0.66      0.00
   11   10   11     -4.58      0.00
   12   10   11      0.71      0.00
   13   10   11      0.38      0.00
  -16   11   11     -0.21      0.00
  -15   11   11     -0.53      0.00
  -14   11   11     -1.22      0.00
  -13   11   11     -0.16      0.00
  -12   11   11     -0.39      0.00
    8   11   11      1.87      0.00
    9   11   11     -3.05      0.00
   10   11   11     -0.17      0.00
   11   11   11      0.37      0.00
   12   11   11     -1.08      0.00
  -15   12   11      0.48      0.00
  -14   12   11     -0.49      0.00
  -13   12   11     -0.91      0.00
  -12   12   11      1.74      0.00
  -11   12   11     -0.79      0.00
  -10   12   11     -0.02      0.00
    6   12   11      6.30      0.00
    7   12   11     -0.44      0.00
    8   12   11     -4.06      0.00
    9   12   11      4.17      0.00
   10   12   11      0.41      0.00
   11   12   11     -1.92      0.00
  -13   13   11      0.03      0.00
  -12   13   11     -0.27      0.00
  -11   13   11     -0.94      0.00
  -10   13   11     -0.65      0.00
   -9   13   11     -0.38      0.00
   -8   13   11      1.09      0.00
   -7   13   11     -0.53      0.00
    3   13   11     -3.19      0.00
    4   13   11      1.82      0.00
    5   13   11      1.87      0.00
    6   13   11      0.23      0.00
    7   13   11      3.87      0.00
    8   13   11      4.11      0.00
    9   13   11     -0.63      0.00
   10   13   11     -0.26      0.00
  -12   14   11     -0.62      0.00
  -11   14   11      0.34      0.00
  -10   14   11     -2.05      0.00
   -9   14   11     -0.67      0.00
   -8   14   11     -1.64      0.00
   -7   14   11      1.32      0.00
   -6   14   11      0.52      0.00
   -5   14   11      4.93      0.00
   -4   14   11      0.05      0.00
   -3   14   11     -0.87      0.00
   -2   14   11     -2.54      0.00
   -1   14   11     -2.50      0.00
    0   14   11     -0.51      0.00
    1   14   11     -3.67      0.00
    2   14   11     -2.15      0.00
    3   14   11     -3.30      0.00
    4   14   11     -2.47      0.00
    5   14   11      1.15      0.00
    6   14   11      3.69      0.00
    7   14   11      1.08      0.00
    8   14   11     -1.75      0.00
   -9   15   11     -0.59      0.00
   -8   15   11      0.36      0.00
   -7   15   11     -1.96      0.00
   -6   15   11      0.85      0.00
   -5   15   11      1.43      0.00
   -4   15   11      1.45      0.00
   -3   15   11     -2.85      0.00
   -2   15   11     -0.82      0.00
   -1   15   11      0.53      0.00
    0   15   11     -0.26      0.00
    1   15   11     -0.03      0.00
    2   15   11     -0.81      0.00
    3   15   11     -2.19      0.00
    4   15   11      0.55      0.00
    5   15   11     -1.86      0.00
  -18    0   12      1.55      0.00
   14    0   12      0.51      0.00
   16    0   12      1.11      0.00
  -18    1   12      0.83      0.00
   14    1   12     -1.50      0.00
   15    1   12      2.64      0.00
   16    1   12      1.83      0.00
   17    1   12      0.71      0.00
  -18    2   12     -0.06      0.00
   14    2   12     -0.90      0.00
   15    2   12     -1.42      0.00
   16    2   12      0.06      0.00
  -18    3   12      1.70      0.00
   14    3   12     -2.94      0.00
   15    3   12     -1.96      0.00
   16    3   12      1.08      0.00
  -18    4   12     -0.31      0.00
   13    4   12      3.58      0.00
   14    4   12     -1.13      0.00
   15    4   12     -0.14      0.00
   16    4   12     -0.80      0.00
  -18    5   12      2.68      0.00
  -17    5   12      0.21      0.00
   13    5   12      0.58      0.00
   14    5   12      1.95      0.00
   15    5   12     -1.19      0.00
   16    5   12      0.63      0.00
  -18    6   12      0.06      0.00
  -17    6   12      0.92      0.00
   12    6   12     -1.40      0.00
   13    6   12      3.09      0.00
   14    6   12     -0.26      0.00
   15    6   12     -1.24      0.00
  -18    7   12      0.72      0.00
  -17    7   12     -0.63      0.00
  -16    7   12     -0.06      0.00
   12    7   12     -1.73      0.00
   13    7   12     -1.34      0.00
   14    7   12      0.51      0.00
   15    7   12     -0.31      0.00
  -18    8   12     -0.65      0.00
  -17    8   12      1.10      0.00
  -16    8   12     -3.04      0.00
  -15    8   12      0.70      0.00
   11    8   12      1.91      0.00
   12    8   12     -0.95      0.00
   13    8   12     -0.09      0.00
   14    8   12      1.53      0.00
  -18    9   12      0.57      0.00
  -17    9   12     -0.66      0.00
  -16    9   12     -0.18      0.00
  -15    9   12     -0.63      0.00
  -14    9   12      0.88      0.00
   10    9   12      4.00      0.00
   11    9   12      0.98      0.00
   12    9   12     -0.74      0.00
   13    9   12      0.18      0.00
  -17   10   12      0.31      0.00
  -16   10   12     -0.25      0.00
  -15   10   12      0.22      0.00
  -14   10   12      1.13      0.00
  -13   10   12      0.45      0.00
    8   10   12      2.19      0.00
    9   10   12      2.77      0.00
   10   10   12     -2.74      0.00
   11   10   12      0.76      0.00
   12   10   12      1.82      0.00
  -16   11   12     -0.44      0.00
  -15   11   12     -0.23      0.00
  -14   11   12      0.84      0.00
  -13   11   12     -0.16      0.00
  -12   11   12     -1.48      0.00
  -11   11   12      1.00      0.00
    7   11   12      4.48      0.00
    8   11   12      0.60      0.00
    9   11   12     -3.19      0.00
   10   11   12      0.80      0.00
   11   11   12      2.04      0.00
  -15   12   12     -0.34      0.00
  -14   12   12     -0.78      0.00
  -13   12   12     -0.22      0.00
  -12   12   12      0.23      0.00
  -11   12   12     -1.01      0.00
  -10   12   12      2.87      0.00
   -9   12   12     -1.22      0.00
    5   12   12     -2.45      0.00
    6   12   12     -2.82      0.00
    7   12   12     -6.19      0.00
    8   12   12     -1.77      0.00
    9   12   12      3.46      0.00
   10   12   12     -1.31      0.00
  -13   13   12      0.13      0.00
  -12   13   12     -1.00      0.00
  -11   13   12      0.85      0.00
  -10   13   12      1.63      0.00
   -9   13   12      1.12      0.00
   -8   13   12      0.60      0.00
   -7   13   12     -0.28      0.00
   -6   13   12     -0.70      0.00
   -5   13   12     -5.80      0.00
    0   13   12      1.63      0.00
    1   13   12      5.83      0.00
    2   13   12     -0.21      0.00
    3   13   12      5.85      0.00
    4   13   12      0.16      0.00
    5   13   12     -3.90      0.00
    6   13   12     -3.57      0.00
    7   13   12      0.21      0.00
    8   13   12      1.34      0.00
    9   13   12     -2.70      0.00
  -11   14   12      0.43      0.00
  -10   14   12      0.86      0.00
   -9   14   12      1.17      0.00
   -8   14   12     -0.03      0.00
   -7   14   12      2.85      0.00
   -6   14   12     -1.40      0.00
   -5   14   12     -2.37      0.00
   -4   14   12     -1.76      0.00
   -3   14   12      2.24      0.00
   -2   14   12      0.70      0.00
   -1   14   12      0.88      0.00
    0   14   12      2.60      0.00
    1   14   12     -2.54      0.00
    2   14   12      3.35      0.00
    3   14   12      0.11      0.00
    4   14   12      0.99      0.00
    5   14   12      1.68      0.00
    6   14   12      0.79      0.00
    7   14   12     -2.08      0.00
   -9   15   12      0.50      0.00
   -8   15   12      0.71      0.00
   -7   15   12     -0.32      0.00
   -6   15   12      1.93      0.00
   -5   15   12     -2.09      0.00
   -4   15   12     -0.54      0.00
   -3   15   12     -0.12      0.00
   -2   15   12      1.75      0.00
   -1   15   12     -0.17      0.00
    0   15   12     -1.10      0.00
    1   15   12      0.20      0.00
    2   15   12     -1.51      0.00
    3   15   12      2.00      0.00
    4   15   12      1.74      0.00
   13    0   13      2.63      0.00
   15    0   13     -1.81      0.00
  -18    1   13     -1.35      0.00
   13    1   13     -1.98      0.00
   14    1   13      1.98      0.00
   15    1   13      1.14      0.00
   16    1   13     -0.14      0.00
  -18    2   13     -0.51      0.00
   13    2   13      0.60      0.00
   14    2   13      2.13      0.00
   15    2   13      0.69      0.00
   16    2   13     -0.21      0.00
  -18    3   13     -0.76      0.00
   13    3   13     -2.65      0.00
   14    3   13     -0.28      0.00
   15    3   13      2.18      0.00
   16    3   13      1.08      0.00
  -18    4   13     -2.30      0.00
  -17    4   13     -0.05      0.00
   13    4   13     -2.57      0.00
   14    4   13     -1.02      0.00
   15    4   13      0.52      0.00
  -18    5   13      0.73      0.00
  -17    5   13     -3.55      0.00
   12    5   13     -0.14      0.00
   13    5   13     -2.84      0.00
   14    5   13     -0.26      0.00
   15    5   13      0.54      0.00
  -18    6   13     -0.96      0.00
  -17    6   13     -0.37      0.00
  -16    6   13      0.05      0.00
   12    6   13      1.27      0.00
   13    6   13      1.45      0.00
   14    6   13     -1.28      0.00
   15    6   13      0.63      0.00
  -18    7   13     -0.09      0.00
  -17    7   13     -0.90      0.00
  -16    7   13      1.19      0.00
   11    7   13     -0.72      0.00
   12    7   13      1.91      0.00
   13    7   13     -0.47      0.00
   14    7   13     -0.41      0.00
  -18    8   13     -0.33      0.00
  -17    8   13      0.02      0.00
  -16    8   13     -0.48      0.00
  -15    8   13      2.66      0.00
   10    8   13     -1.83      0.00
   11    8   13     -0.50      0.00
   12    8   13      0.73      0.00
   13    8   13      0.63      0.00
  -17    9   13     -1.09      0.00
  -16    9   13      1.22      0.00
  -15    9   13     -0.88      0.00
  -14    9   13      0.16      0.00
    9    9   13     -2.05      0.00
   10    9   13      3.36      0.00
   11    9   13     -2.69      0.00
   12    9   13     -0.88      0.00
   13    9   13      0.47      0.00
  -17   10   13      0.18      0.00
  -16   10   13     -0.28      0.00
  -15   10   13      0.63      0.00
  -14   10   13     -1.05      0.00
  -13   10   13      0.74      0.00
  -12   10   13      1.62      0.00
    8   10   13     -1.19      0.00
    9   10   13      1.71      0.00
   10   10   13     -2.50      0.00
   11   10   13     -0.37      0.00
   12   10   13     -0.04      0.00
  -15   11   13      0.11      0.00
  -14   11   13      0.37      0.00
  -13   11   13     -0.22      0.00
  -12   11   13      2.06      0.00
  -11   11   13      0.54      0.00
    6   11   13      4.31      0.00
    7   11   13      6.77      0.00
    8   11   13     -3.59      0.00
    9   11   13     -2.34      0.00
   10   11   13      1.69      0.00
   11   11   13     -0.32      0.00
  -14   12   13     -0.36      0.00
  -13   12   13      0.84      0.00
  -12   12   13      1.39      0.00
  -11   12   13     -0.49      0.00
  -10   12   13     -0.56      0.00
   -9   12   13     -1.46      0.00
   -8   12   13      1.54      0.00
    3   12   13     -8.12      0.00
    4   12   13      5.23      0.00
    5   12   13      3.54      0.00
    6   12   13      4.15      0.00
    7   12   13     -1.20      0.00
    8   12   13      1.83      0.00
    9   12   13      1.96      0.00
  -13   13   13     -0.33      0.00
  -12   13   13     -0.14      0.00
  -11   13   13      1.32      0.00
  -10   13   13     -2.10      0.00
   -9   13   13     -0.37      0.00
   -8   13   13      0.41      0.00
   -7   13   13     -2.13      0.00
   -6   13   13      1.90      0.00
   -5   13   13      2.07      0.00
   -4   13   13      2.03      0.00
   -3   13   13     -0.16      0.00
   -2   13   13     -2.04      0.00
   -1   13   13     -4.48      0.00
    0   13   13     -2.58      0.00
    1   13   13      3.18      0.00
    2   13   13     -5.44      0.00
    3   13   13      1.65      0.00
    4   13   13     -2.95      0.00
    5   13   13     -0.14      0.00
    6   13   13      1.49      0.00
    7   13   13      3.65      0.00
    8   13   13      0.94      0.00
  -11   14   13      0.21      0.00
  -10   14   13     -0.16      0.00
   -9   14   13     -0.55      0.00
   -8   14   13     -0.31      0.00
   -7   14   13     -0.22      0.00
   -6   14   13     -2.26      0.00
   -5   14   13      2.18      0.00
   -4   14   13      2.59      0.00
   -3   14   13     -1.36      0.00
   -2   14   13     -1.21      0.00
   -1   14   13     -0.85      0.00
    0   14   13      0.72      0.00
    1   14   13     -1.48      0.00
    2   14   13      3.07      0.00
    3   14   13     -4.60      0.00
    4   14   13      0.63      0.00
    5   14   13      0.29      0.00
    6   14   13     -0.32      0.00
   -8   15   13      1.04      0.00
   -7   15   13     -0.94      0.00
   -6   15   13      0.28      0.00
   -5   15   13     -0.16      0.00
   -4   15   13      1.82      0.00
   -3   15   13     -0.09      0.00
   -2   15   13     -0.46      0.00
   -1   15   13      0.18      0.00
    0   15   13     -0.54      0.00
    1   15   13      1.58      0.00
    2   15   13     -1.47      0.00
    3   15   13      1.49      0.00
  -18    0   14      1.58      0.00
  -10    0   14     -0.58      0.00
   14    0   14     -2.13      0.00
  -18    1   14     -0.57      0.00
   13    1   14     -1.28      0.00
   14    1   14      0.58      0.00
   15    1   14     -0.17      0.00
  -18    2   14      1.14      0.00
   12    2   14     -1.25      0.00
   13    2   14      4.50      0.00
   14    2   14     -1.40      0.00
   15    2   14     -1.55      0.00
  -18    3   14      0.70      0.00
  -17    3   14      1.21      0.00
   12    3   14      2.96      0.00
   13    3   14      0.75      0.00
   14    3   14      1.54      0.00
   15    3   14      0.36      0.00
  -18    4   14      0.17      0.00
  -17    4   14      4.31      0.00
   12    4   14     -0.51      0.00
   13    4   14      2.96      0.00
   14    4   14      1.27      0.00
   15    4   14     -0.46      0.00
  -18    5   14      0.62      0.00
  -17    5   14     -0.21      0.00
  -16    5   14      2.48      0.00
   11    5   14     -0.67      0.00
   12    5   14     -0.33      0.00
   13    5   14     -0.07      0.00
   14    5   14      1.34      0.00
  -18    6   14     -0.58      0.00
  -17    6   14      2.12      0.00
  -16    6   14      0.42      0.00
   11    6   14      2.09      0.00
   12    6   14     -1.97      0.00
   13    6   14      0.66      0.00
   14    6   14     -0.28      0.00
  -18    7   14      0.19      0.00
  -17    7   14      1.05      0.00
  -16    7   14      0.47      0.00
  -15    7   14     -1.66      0.00
   10    7   14      2.16      0.00
   11    7   14      0.19      0.00
   12    7   14     -0.26      0.00
   13    7   14     -1.80      0.00
  -18    8   14      0.16      0.00
  -17    8   14      0.70      0.00
  -16    8   14     -0.13      0.00
  -15    8   14      1.08      0.00
  -14    8   14     -1.69      0.00
    9    8   14     -1.20      0.00
   10    8   14     -0.08      0.00
   11    8   14      2.03      0.00
   12    8   14      0.06      0.00
   13    8   14      0.13      0.00
  -17    9   14      0.43      0.00
  -16    9   14      0.44      0.00
  -15    9   14     -1.27      0.00
  -14    9   14      1.77      0.00
  -13    9   14     -1.46      0.00
    8    9   14      1.03      0.00
    9    9   14      0.03      0.00
   10    9   14      1.66      0.00
   11    9   14      0.26      0.00
   12    9   14      0.64      0.00
  -16   10   14     -0.16      0.00
  -15   10   14      0.65      0.00
  -14   10   14     -0.19      0.00
  -13   10   14      0.44      0.00
  -12   10   14     -2.89      0.00
    7   10   14     -1.94      0.00
    8   10   14      2.12      0.00
    9   10   14      2.87      0.00
   10   10   14     -1.80      0.00
   11   10   14      1.60      0.00
  -15   11   14     -0.33      0.00
  -14   11   14      0.92      0.00
  -13   11   14     -0.73      0.00
  -12   11   14     -1.05      0.00
  -11   11   14     -1.57      0.00
  -10   11   14      1.33      0.00
    5   11   14     -3.16      0.00
    6   11   14     -3.48      0.00
    7   11   14     -1.75      0.00
    8   11   14     -2.62      0.00
    9   11   14      0.88      0.00
   10   11   14      1.37      0.00
  -14   12   14      0.14      0.00
  -13   12   14      0.97      0.00
  -12   12   14     -1.40      0.00
  -11   12   14     -1.27      0.00
  -10   12   14      2.37      0.00
   -9   12   14     -0.43      0.00
   -8   12   14     -0.42      0.00
   -7   12   14     -0.54      0.00
   -6   12   14     -1.28      0.00
    1   12   14      1.44      0.00
    2   12   14      2.85      0.00
    3   12   14     -0.21      0.00
    4   12   14      4.27      0.00
    5   12   14     -3.97      0.00
    6   12   14     -2.39      0.00
    7   12   14     -5.17      0.00
    8   12   14      2.12      0.00
    9   12   14      0.93      0.00
  -12   13   14     -0.12      0.00
  -11   13   14     -0.31      0.00
  -10   13   14     -0.40      0.00
   -9   13   14      1.96      0.00
   -8   13   14     -0.45      0.00
   -7   13   14      0.17      0.00
   -6   13   14      2.06      0.00
   -5   13   14     -3.87      0.00
   -4   13   14     -1.16      0.00
   -3   13   14      0.52      0.00
   -2   13   14      1.93      0.00
   -1   13   14      0.48      0.00
    0   13   14      4.11      0.00
    1   13   14      0.36      0.00
    2   13   14     -2.52      0.00
    3   13   14      6.32      0.00
    4   13   14     -3.03      0.00
    5   13   14      1.12      0.00
    6   13   14      0.28      0.00
    7   13   14      1.31      0.00
  -10   14   14      0.13      0.00
   -9   14   14     -0.12      0.00
   -8   14   14     -0.93      0.00
   -7   14   14      1.11      0.00
   -6   14   14      0.14      0.00
   -5   14   14      0.09      0.00
   -4   14   14     -1.41      0.00
   -3   14   14     -1.81      0.00
   -2   14   14      0.78      0.00
   -1   14   14      0.72      0.00
    0   14   14      1.79      0.00
    1   14   14     -1.44      0.00
    2   14   14      1.86      0.00
    3   14   14     -1.53      0.00
    4   14   14      4.34      0.00
    5   14   14      0.44      0.00
   -6   15   14      1.00      0.00
   -5   15   14     -1.07      0.00
   -4   15   14     -1.54      0.00
   -3   15   14      0.05      0.00
   -2   15   14     -0.42      0.00
   -1   15   14      1.13      0.00
    0   15   14     -0.23      0.00
    1   15   14      1.02      0.00
  -17    0   15      0.25      0.00
   13    0   15     -0.74      0.00
   15    0   15     -0.35      0.00
  -18    1   15     -1.10      0.00
  -17    1   15     -0.77      0.00
   12    1   15      0.16      0.00
   13    1   15     -2.52      0.00
   14    1   15      1.25      0.00
   15    1   15      0.40      0.00
  -18    2   15      0.44      0.00
  -17    2   15     -1.45      0.00
   12    2   15     -1.91      0.00
   13    2   15      0.73      0.00
   14    2   15     -2.79      0.00
   15    2   15      0.09      0.00
  -18    3   15     -1.14      0.00
  -17    3   15     -3.10      0.00
   11    3   15     -2.49      0.00
   12    3   15      1.80      0.00
   13    3   15     -4.24      0.00
   14    3   15      0.25      0.00
  -18    4   15      0.75      0.00
  -17    4   15     -0.77      0.00
  -16    4   15     -3.30      0.00
   11    4   15      0.11      0.00
   12    4   15     -1.99      0.00
   13    4   15      0.44      0.00
   14    4   15     -2.17      0.00
  -18    5   15      0.93      0.00
  -17    5   15     -2.29      0.00
  -16    5   15     -1.15      0.00
   11    5   15     -3.43      0.00
   12    5   15      1.37      0.00
   13    5   15     -0.90      0.00
   14    5   15      0.56      0.00
  -18    6   15     -0.13      0.00
  -17    6   15      0.13      0.00
  -16    6   15     -1.68      0.00
  -15    6   15      0.07      0.00
   10    6   15     -3.79      0.00
   11    6   15      0.48      0.00
   12    6   15     -0.23      0.00
   13    6   15      1.64      0.00
  -18    7   15      0.18      0.00
  -17    7   15     -0.90      0.00
  -16    7   15     -0.63      0.00
  -15    7   15     -1.24      0.00
    9    7   15     -0.33      0.00
   10    7   15      1.29      0.00
   11    7   15     -3.31      0.00
   12    7   15      1.00      0.00
   13    7   15     -0.94      0.00
  -17    8   15     -0.54      0.00
  -16    8   15      0.03      0.00
  -15    8   15      0.98      0.00
  -14    8   15     -2.17      0.00
    8    8   15      1.12      0.00
    9    8   15      0.02      0.00
   10    8   15     -1.13      0.00
   11    8   15     -0.70      0.00
   12    8   15     -1.58      0.00
  -17    9   15      0.16      0.00
  -16    9   15     -0.41      0.00
  -15    9   15     -0.27      0.00
  -14    9   15      0.29      0.00
  -13    9   15     -1.14      0.00
  -12    9   15      3.13      0.00
    7    9   15      4.43      0.00
    8    9   15     -3.28      0.00
    9    9   15     -1.03      0.00
   10    9   15      0.02      0.00
   11    9   15     -1.50      0.00
  -16   10   15      0.20      0.00
  -15   10   15      0.35      0.00
  -14   10   15     -1.78      0.00
  -13   10   15      0.10      0.00
  -12   10   15      0.96      0.00
  -11   10   15      2.01      0.00
    5   10   15      0.59      0.00
    6   10   15      4.56      0.00
    7   10   15      3.18      0.00
    8   10   15      0.08      0.00
    9   10   15     -1.01      0.00
   10   10   15     -1.66      0.00
  -15   11   15     -0.18      0.00
  -14   11   15     -0.42      0.00
  -13   11   15     -1.56      0.00
  -12   11   15      1.78      0.00
  -11   11   15      0.79      0.00
  -10   11   15     -1.44      0.00
   -9   11   15     -0.62      0.00
   -8   11   15      0.05      0.00
    3   11   15     -3.98      0.00
    4   11   15     -0.93      0.00
    5   11   15      4.37      0.00
    6   11   15      3.39      0.00
    7   11   15      2.69      0.00
    8   11   15     -0.59      0.00
    9   11   15     -0.75      0.00
  -13   12   15     -0.47      0.00
  -12   12   15     -0.41      0.00
  -11   12   15      1.81      0.00
  -10   12   15     -0.54      0.00
   -9   12   15     -3.39      0.00
   -8   12   15      1.11      0.00
   -7   12   15     -1.27      0.00
   -6   12   15      0.58      0.00
   -5   12   15      2.37      0.00
   -4   12   15      1.21      0.00
   -3   12   15      0.71      0.00
   -2   12   15     -2.95      0.00
   -1   12   15     -0.60      0.00
    0   12   15    -10.51      0.00
    1   12   15      4.84      0.00
    2   12   15     -2.08      0.00
    3   12   15     -3.48      0.00
    4   12   15      1.52      0.00
    5   12   15     -2.33      0.00
    6   12   15      0.77      0.00
    7   12   15      0.02      0.00
    8   12   15      3.10      0.00
  -11   13   15      0.82      0.00
  -10   13   15     -0.59      0.00
   -9   13   15     -0.19      0.00
   -8   13   15     -1.10      0.00
   -7   13   15     -1.00      0.00
   -6   13   15     -0.99      0.00
   -5   13   15     -0.34      0.00
   -4   13   15      3.07      0.00
   -3   13   15      0.49      0.00
   -2   13   15      1.63      0.00
   -1   13   15     -4.92      0.00
    0   13   15      0.77      0.00
    1   13   15     -2.09      0.00
    2   13   15      0.17      0.00
    3   13   15     -0.50      0.00
    4   13   15     -5.62      0.00
    5   13   15      1.96      0.00
    6   13   15     -0.72      0.00
   -9   14   15     -0.91      0.00
   -8   14   15      0.09      0.00
   -7   14   15      0.43      0.00
   -6   14   15     -1.54      0.00
   -5   14   15      1.49      0.00
   -4   14   15      1.11      0.00
   -3   14   15      0.49      0.00
   -2   14   15      0.78      0.00
   -1   14   15      0.81      0.00
    0   14   15     -1.69      0.00
    1   14   15     -0.94      0.00
    2   14   15      0.31      0.00
    3   14   15     -3.16      0.00
   -4   15   15      0.84      0.00
   -3   15   15      1.65      0.00
   -2   15   15     -0.51      0.00
  -18    0   16      0.93      0.00
   12    0   16      0.62      0.00
   14    0   16     -0.04      0.00
  -18    1   16     -0.28      0.00
  -17    1   16      1.23      0.00
   11    1   16      2.35      0.00
   12    1   16      0.27      0.00
   13    1   16      0.91      0.00
   14    1   16      1.06      0.00
  -18    2   16      1.15      0.00
  -17    2   16      1.84      0.00
   11    2   16      1.31      0.00
   12    2   16      0.05      0.00
   13    2   16      2.01      0.00
   14    2   16     -0.71      0.00
  -18    3   16     -1.62      0.00
  -17    3   16      1.82      0.00
  -16    3   16      3.05      0.00
   11    3   16      3.69      0.00
   12    3   16      1.27      0.00
   13    3   16     -0.54      0.00
   14    3   16      2.66      0.00
  -18    4   16     -0.37      0.00
  -17    4   16      0.34      0.00
  -16    4   16      1.87      0.00
   10    4   16      5.08      0.00
   11    4   16      2.77      0.00
   12    4   16     -0.71      0.00
   13    4   16      1.92      0.00
  -18    5   16     -0.82      0.00
  -17    5   16     -1.12      0.00
  -16    5   16      1.44      0.00
  -15    5   16      2.15      0.00
   10    5   16      1.47      0.00
   11    5   16      0.76      0.00
   12    5   16      0.82      0.00
   13    5   16     -0.95      0.00
  -18    6   16     -0.45      0.00
  -17    6   16      0.85      0.00
  -16    6   16      0.13      0.00
  -15    6   16      0.66      0.00
    9    6   16     -1.94      0.00
   10    6   16     -0.05      0.00
   11    6   16      2.88      0.00
   12    6   16     -0.36      0.00
   13    6   16      0.58      0.00
  -18    7   16     -0.30      0.00
  -17    7   16     -0.28      0.00
  -16    7   16      0.14      0.00
  -15    7   16     -0.62      0.00
  -14    7   16      2.22      0.00
    8    7   16     -1.47      0.00
    9    7   16     -1.91      0.00
   10    7   16      2.36      0.00
   11    7   16      0.12      0.00
   12    7   16      1.87      0.00
  -17    8   16      0.00      0.00
  -16    8   16     -0.05      0.00
  -15    8   16     -0.12      0.00
  -14    8   16     -0.84      0.00
  -13    8   16      1.97      0.00
    7    8   16     -3.30      0.00
    8    8   16      2.07      0.00
    9    8   16      0.89      0.00
   10    8   16     -1.02      0.00
   11    8   16      2.13      0.00
  -16    9   16     -0.31      0.00
  -15    9   16     -0.36      0.00
  -14    9   16      1.63      0.00
  -13    9   16      0.34      0.00
  -12    9   16     -0.05      0.00
    6    9   16     -4.29      0.00
    7    9   16      0.59      0.00
    8    9   16     -1.40      0.00
    9    9   16      1.60      0.00
   10    9   16      0.62      0.00
  -15   10   16     -0.48      0.00
  -14   10   16      0.56      0.00
  -13   10   16      2.30      0.00
  -12   10   16     -0.97      0.00
  -11   10   16     -0.97      0.00
  -10   10   16      1.09      0.00
    4   10   16     -1.06      0.00
    5   10   16     -4.12      0.00
    6   10   16      0.44      0.00
    7   10   16     -4.19      0.00
    8   10   16      0.50      0.00
    9   10   16      0.85      0.00
  -14   11   16      0.63      0.00
  -13   11   16      1.09      0.00
  -12   11   16      0.56      0.00
  -11   11   16     -2.39      0.00
  -10   11   16      1.14      0.00
   -9   11   16      3.20      0.00
   -8   11   16     -0.14      0.00
   -7   11   16      1.18      0.00
   -6   11   16      1.04      0.00
    1   11   16     -3.45      0.00
    2   11   16      1.54      0.00
    3   11   16      1.53      0.00
    4   11   16      0.86      0.00
    5   11   16      1.91      0.00
    6   11   16     -1.95      0.00
    7   11   16     -2.10      0.00
    8   11   16     -1.49      0.00
  -12   12   16     -0.08      0.00
  -11   12   16     -0.66      0.00
  -10   12   16     -0.59      0.00
   -9   12   16      1.24      0.00
   -8   12   16      2.99      0.00
   -7   12   16      1.24      0.00
   -6   12   16      2.21      0.00
   -5   12   16     -1.16      0.00
   -4   12   16     -1.27      0.00
   -3   12   16     -1.88      0.00
   -2   12   16     -1.22      0.00
   -1   12   16      4.97      0.00
    0   12   16     -0.25      0.00
    1   12   16      4.74      0.00
    2   12   16     -3.57      0.00
    3   12   16      4.01      0.00
    4   12   16      2.94      0.00
    5   12   16     -2.06      0.00
    6   12   16      0.88      0.00
    7   12   16     -0.75      0.00
  -10   13   16     -0.62      0.00
   -9   13   16      1.74      0.00
   -8   13   16      0.00      0.00
   -7   13   16      1.86      0.00
   -6   13   16      1.42      0.00
   -5   13   16     -0.55      0.00
   -4   13   16     -0.70      0.00
   -3   13   16     -1.81      0.00
   -2   13   16     -1.08      0.00
   -1   13   16     -3.69      0.00
    0   13   16      6.14      0.00
    1   13   16     -2.30      0.00
    2   13   16      1.42      0.00
    3   13   16      1.12      0.00
    4   13   16     -0.28      0.00
    5   13   16      3.00      0.00
   -7   14   16      0.31      0.00
   -6   14   16      0.63      0.00
   -5   14   16      0.24      0.00
   -4   14   16     -1.95      0.00
   -3   14   16     -0.87      0.00
   -2   14   16     -1.80      0.00
   -1   14   16      1.17      0.00
    0   14   16     -0.63      0.00
    1   14   16      1.41      0.00
    2   14   16     -0.46      0.00
  -17    0   17     -1.91      0.00
  -11    0   17      4.42      0.00
   11    0   17     -3.98      0.00
   13    0   17     -1.33      0.00
  -18    1   17     -0.79      0.00
  -17    1   17     -0.77      0.00
  -16    1   17      0.89      0.00
   10    1   17     -4.58      0.00
   11    1   17     -2.60      0.00
   12    1   17     -0.77      0.00
   13    1   17     -0.12      0.00
  -18    2   17      0.97      0.00
  -17    2   17     -1.45      0.00
  -16    2   17     -2.46      0.00
   10    2   17     -3.15      0.00
   11    2   17     -3.75      0.00
   12    2   17     -0.42      0.00
   13    2   17     -0.69      0.00
  -18    3   17      0.09      0.00
  -17    3   17      0.88      0.00
  -16    3   17     -1.23      0.00
   10    3   17     -5.04      0.00
   11    3   17     -0.97      0.00
   12    3   17     -1.51      0.00
   13    3   17     -0.84      0.00
  -18    4   17      2.06      0.00
  -17    4   17      0.56      0.00
  -16    4   17     -0.13      0.00
  -15    4   17     -2.28      0.00
    9    4   17     -2.61      0.00
   10    4   17      2.02      0.00
   11    4   17     -3.58      0.00
   12    4   17     -0.59      0.00
   13    4   17     -0.09      0.00
  -18    5   17      0.03      0.00
  -17    5   17      0.64      0.00
  -16    5   17      0.57      0.00
  -15    5   17      0.47      0.00
    9    5   17      5.31      0.00
   10    5   17     -3.06      0.00
   11    5   17     -1.25      0.00
   12    5   17     -0.28      0.00
  -18    6   17     -0.10      0.00
  -17    6   17      0.74      0.00
  -16    6   17     -0.14      0.00
  -15    6   17     -0.59      0.00
  -14    6   17     -0.13      0.00
    8    6   17      5.00      0.00
    9    6   17     -1.62      0.00
   10    6   17      0.76      0.00
   11    6   17     -1.50      0.00
   12    6   17     -0.64      0.00
  -17    7   17     -0.15      0.00
  -16    7   17      0.19      0.00
  -15    7   17      0.74      0.00
  -14    7   17      0.04      0.00
  -13    7   17     -1.44      0.00
    7    7   17      3.24      0.00
    8    7   17     -2.24      0.00
    9    7   17      1.93      0.00
   10    7   17      0.66      0.00
   11    7   17     -1.30      0.00
  -17    8   17      0.28      0.00
  -16    8   17     -0.23      0.00
  -15    8   17      0.82      0.00
  -14    8   17     -1.32      0.00
  -13    8   17     -0.17      0.00
  -12    8   17     -1.24      0.00
    6    8   17     -1.59      0.00
    7    8   17      1.02      0.00
    8    8   17      0.86      0.00
    9    8   17     -0.03      0.00
   10    8   17     -0.72      0.00
  -16    9   17      0.03      0.00
  -15    9   17      0.32      0.00
  -14    9   17     -0.31      0.00
  -13    9   17     -2.58      0.00
  -12    9   17      0.20      0.00
  -11    9   17      0.33      0.00
  -10    9   17     -0.83      0.00
    4    9   17      4.95      0.00
    5    9   17     -2.17      0.00
    6    9   17      1.24      0.00
    7    9   17      3.35      0.00
    8    9   17     -1.53      0.00
    9    9   17     -0.44      0.00
   10    9   17      0.21      0.00
  -15   10   17      0.56      0.00
  -14   10   17     -0.45      0.00
  -13   10   17     -1.70      0.00
  -12   10   17     -1.01      0.00
  -11   10   17      1.64      0.00
  -10   10   17     -0.60      0.00
   -9   10   17     -1.94      0.00
   -8   10   17     -0.36      0.00
    2   10   17      1.49      0.00
    3   10   17     -0.69      0.00
    4   10   17     -2.50      0.00
    5   10   17      0.90      0.00
    6   10   17      2.53      0.00
    7   10   17      0.15      0.00
    8   10   17      2.12      0.00
  -13   11   17     -1.20      0.00
  -12   11   17     -0.55      0.00
  -11   11   17      1.15      0.00
  -10   11   17      1.60      0.00
   -9   11   17     -1.48      0.00
   -8   11   17     -2.84      0.00
   -7   11   17     -1.74      0.00
   -6   11   17     -0.63      0.00
   -5   11   17     -2.22      0.00
   -4   11   17      1.96      0.00
   -3   11   17      2.28      0.00
   -2   11   17      0.77      0.00
   -1   11   17     -1.66      0.00
    0   11   17     -4.86      0.00
    1   11   17     -0.99      0.00
    2   11   17      1.60      0.00
    3   11   17     -2.65      0.00
    4   11   17     -0.80      0.00
    5   11   17      1.32      0.00
    6   11   17     -1.90      0.00
    7   11   17      1.37      0.00
  -12   12   17     -0.83      0.00
  -11   12   17      1.10      0.00
  -10   12   17      0.81      0.00
   -9   12   17     -0.77      0.00
   -8   12   17     -0.40      0.00
   -7   12   17     -2.82      0.00
   -6   12   17     -2.71      0.00
   -5   12   17      0.46      0.00
   -4   12   17      0.65      0.00
   -3   12   17      0.97      0.00
   -2   12   17      4.55      0.00
   -1   12   17      1.20      0.00
    0   12   17     -4.87      0.00
    1   12   17      1.25      0.00
    2   12   17     -0.20      0.00
    3   12   17      0.35      0.00
    4   12   17     -1.69      0.00
    5   12   17     -1.79      0.00
   -9   13   17      0.69      0.00
   -8   13   17     -0.86      0.00
   -7   13   17     -0.25      0.00
   -6   13   17     -1.83      0.00
   -5   13   17      0.31      0.00
   -4   13   17      1.48      0.00
   -3   13   17      1.43      0.00
   -2   13   17      2.40      0.00
   -1   13   17     -0.05      0.00
    0   13   17      2.08      0.00
    1   13   17     -3.12      0.00
    2   13   17      2.51      0.00
    3   13   17     -1.67      0.00
   -5   14   17      0.39      0.00
   -4   14   17      0.49      0.00
   -3   14   17      0.55      0.00
   -2   14   17      0.29      0.00
   -1   14   17      2.78      0.00
  -18    0   18      0.59      0.00
  -16    0   18     -0.62      0.00
   10    0   18      5.89      0.00
   12    0   18      1.68      0.00
  -18    1   18     -0.81      0.00
  -17    1   18      1.70      0.00
  -16    1   18      0.95      0.00
    9    1   18     -1.47      0.00
   10    1   18      2.08      0.00
   11    1   18      3.57      0.00
   12    1   18      0.62      0.00
   13    1   18      0.73      0.00
  -18    2   18     -0.29      0.00
  -17    2   18     -0.47      0.00
  -16    2   18     -0.14      0.00
  -15    2   18      1.13      0.00
    9    2   18     -0.02      0.00
   10    2   18     -0.59      0.00
   11    2   18      2.62      0.00
   12    2   18      0.57      0.00
  -18    3   18     -1.32      0.00
  -17    3   18     -0.43      0.00
  -16    3   18      0.13      0.00
  -15    3   18      0.55      0.00
    9    3   18     -3.90      0.00
   10    3   18     -0.56      0.00
   11    3   18      2.71      0.00
   12    3   18      0.59      0.00
  -18    4   18      0.42      0.00
  -17    4   18     -2.25      0.00
  -16    4   18     -0.66      0.00
  -15    4   18     -0.44      0.00
    8    4   18     -0.22      0.00
    9    4   18     -4.19      0.00
   10    4   18      2.97      0.00
   11    4   18     -0.35      0.00
   12    4   18      1.36      0.00
  -18    5   18     -0.13      0.00
  -17    5   18      0.09      0.00
  -16    5   18     -0.29      0.00
  -15    5   18      0.34      0.00
  -14    5   18      0.00      0.00
    8    5   18     -2.88      0.00
    9    5   18      2.33      0.00
   10    5   18     -3.12      0.00
   11    5   18      2.34      0.00
  -17    6   18      0.44      0.00
  -16    6   18     -0.18      0.00
  -15    6   18     -0.61      0.00
  -14    6   18      1.81      0.00
  -13    6   18     -0.36      0.00
    7    6   18     -2.35      0.00
    8    6   18      2.22      0.00
    9    6   18     -5.61      0.00
   10    6   18      1.45      0.00
   11    6   18     -0.28      0.00
  -17    7   18      0.02      0.00
  -16    7   18      0.45      0.00
  -15    7   18      0.20      0.00
  -14    7   18     -0.17      0.00
  -13    7   18      2.00      0.00
  -12    7   18      0.63      0.00
    6    7   18      1.15      0.00
    7    7   18     -0.78      0.00
    8    7   18     -3.49      0.00
    9    7   18      1.73      0.00
   10    7   18     -2.00      0.00
  -16    8   18      0.45      0.00
  -15    8   18     -0.08      0.00
  -14    8   18      0.24      0.00
  -13    8   18      1.95      0.00
  -12    8   18      0.53      0.00
  -11    8   18      0.96      0.00
    4    8   18     -1.12      0.00
    5    8   18      2.24      0.00
    6    8   18     -1.90      0.00
    7    8   18     -0.77      0.00
    8    8   18      1.89      0.00
    9    8   18     -0.76      0.00
   10    8   18     -0.20      0.00
  -15    9   18     -0.50      0.00
  -14    9   18      0.60      0.00
  -13    9   18      1.75      0.00
  -12    9   18      1.85      0.00
  -11    9   18     -0.68      0.00
  -10    9   18      0.37      0.00
   -9    9   18      0.58      0.00
    2    9   18     -3.30      0.00
    3    9   18      1.31      0.00
    4    9   18      2.26      0.00
    5    9   18     -4.58      0.00
    6    9   18      2.15      0.00
    7    9   18     -1.22      0.00
    8    9   18     -1.43      0.00
    9    9   18      0.81      0.00
  -14   10   18     -0.69      0.00
  -13   10   18      1.22      0.00
  -12   10   18      1.34      0.00
  -11   10   18     -0.90      0.00
  -10   10   18     -1.62      0.00
   -9   10   18      1.33      0.00
   -8   10   18      0.62      0.00
   -7   10   18      0.16      0.00
   -6   10   18      2.03      0.00
   -5   10   18      3.73      0.00
   -4   10   18     -3.43      0.00
   -3   10   18     -0.32      0.00
   -2   10   18     -2.40      0.00
   -1   10   18      1.18      0.00
    0   10   18      4.14      0.00
    1   10   18      0.08      0.00
    2   10   18     -0.91      0.00
    3   10   18      1.73      0.00
    4   10   18     -2.27      0.00
    5   10   18      2.41      0.00
    6   10   18     -0.09      0.00
    7   10   18     -1.79      0.00
  -12   11   18      0.90      0.00
  -11   11   18     -0.46      0.00
  -10   11   18     -1.22      0.00
   -9   11   18     -0.92      0.00
   -8   11   18      0.17      0.00
   -7   11   18      2.71      0.00
   -6   11   18      2.91      0.00
   -5   11   18     -2.54      0.00
   -4   11   18      2.91      0.00
   -3   11   18     -2.08      0.00
   -2   11   18     -4.97      0.00
   -1   11   18     -0.72      0.00
    0   11   18      3.02      0.00
    1   11   18      1.43      0.00
    2   11   18     -2.31      0.00
    3   11   18      0.27      0.00
    4   11   18      2.42      0.00
    5   11   18     -0.21      0.00
    6   11   18     -0.96      0.00
  -11   12   18      0.09      0.00
  -10   12   18     -1.37      0.00
   -9   12   18     -0.81      0.00
   -8   12   18      0.30      0.00
   -7   12   18      0.51      0.00
   -6   12   18      1.32      0.00
   -5   12   18      1.60      0.00
   -4   12   18     -2.16      0.00
   -3   12   18     -0.86      0.00
   -2   12   18     -2.39      0.00
   -1   12   18     -3.61      0.00
    0   12   18      0.79      0.00
    1   12   18      1.33      0.00
    2   12   18     -1.14      0.00
    3   12   18      0.36      0.00
    4   12   18      0.27      0.00
   -8   13   18     -1.52      0.00
   -7   13   18     -0.27      0.00
   -6   13   18      0.58      0.00
   -5   13   18     -0.72      0.00
   -4   13   18     -0.66      0.00
   -3   13   18     -0.29      0.00
   -2   13   18     -2.22      0.00
   -1   13   18     -2.29      0.00
    0   13   18      2.02      0.00
    1   13   18     -0.12      0.00
  -17    0   19     -1.61      0.00
  -15    0   19      1.93      0.00
  -11    0   19     -1.67      0.00
    9    0   19      0.55      0.00
   11    0   19     -4.06      0.00
  -18    1   19      0.01      0.00
  -17    1   19      0.72      0.00
  -16    1   19     -0.26      0.00
  -15    1   19     -0.13      0.00
    8    1   19      5.01      0.00
    9    1   19      3.13      0.00
   10    1   19     -0.39      0.00
   11    1   19      0.07      0.00
   12    1   19     -0.70      0.00
  -18    2   19      0.74      0.00
  -17    2   19     -0.40      0.00
  -16    2   19     -0.50      0.00
  -15    2   19      0.57      0.00
    8    2   19      0.74      0.00
    9    2   19      6.89      0.00
   10    2   19      0.18      0.00
   11    2   19     -0.19      0.00
   12    2   19     -1.29      0.00
  -18    3   19      0.20      0.00
  -17    3   19      1.30      0.00
  -16    3   19      0.85      0.00
  -15    3   19     -0.20      0.00
  -14    3   19     -0.50      0.00
    7    3   19     -4.61      0.00
    8    3   19      5.56      0.00
    9    3   19      0.01      0.00
   10    3   19      2.34      0.00
   11    3   19     -1.54      0.00
  -18    4   19     -0.09      0.00
  -17    4   19     -0.51      0.00
  -16    4   19      0.89      0.00
  -15    4   19      0.26      0.00
  -14    4   19     -1.13      0.00
    7    4   19      5.84      0.00
    8    4   19     -2.17      0.00
    9    4   19      1.41      0.00
   10    4   19      1.64      0.00
   11    4   19     -1.60      0.00
  -17    5   19      0.35      0.00
  -16    5   19     -0.45      0.00
  -15    5   19     -0.31      0.00
  -14    5   19     -0.98      0.00
  -13    5   19     -1.61      0.00
    6    5   19      6.82      0.00
    7    5   19     -2.16      0.00
    8    5   19      1.90      0.00
    9    5   19      3.67      0.00
   10    5   19     -1.29      0.00
   11    5   19      0.93      0.00
  -17    6   19     -0.38      0.00
  -16    6   19     -0.94      0.00
  -15    6   19     -0.14      0.00
  -14    6   19     -0.72      0.00
  -13    6   19     -2.66      0.00
  -12    6   19     -0.31      0.00
    5    6   19      3.82      0.00
    6    6   19     -3.03      0.00
    7    6   19      4.84      0.00
    8    6   19      1.86      0.00
    9    6   19     -1.04      0.00
   10    6   19      3.11      0.00
  -16    7   19     -0.55      0.00
  -15    7   19      0.01      0.00
  -14    7   19     -0.95      0.00
  -13    7   19     -0.21      0.00
  -12    7   19     -2.55      0.00
  -11    7   19     -1.17      0.00
    4    7   19     -0.13      0.00
    5    7   19     -1.81      0.00
    6    7   19      1.45      0.00
    7    7   19     -0.73      0.00
    8    7   19     -1.93      0.00
    9    7   19      2.80      0.00
  -15    8   19     -0.32      0.00
  -14    8   19     -0.07      0.00
  -13    8   19     -2.06      0.00
  -12    8   19     -1.33      0.00
  -11    8   19     -0.27      0.00
  -10    8   19     -0.86      0.00
   -9    8   19     -0.90      0.00
    2    8   19      3.73      0.00
    3    8   19     -3.67      0.00
    4    8   19      1.21      0.00
    5    8   19      0.94      0.00
    6    8   19     -2.27      0.00
    7    8   19      0.61      0.00
    8    8   19      1.12      0.00
    9    8   19     -1.83      0.00
  -14    9   19      0.68      0.00
  -13    9   19     -1.05      0.00
  -12    9   19     -1.55      0.00
  -11    9   19     -0.39      0.00
  -10    9   19      0.50      0.00
   -9    9   19     -0.83      0.00
   -8    9   19      1.59      0.00
   -7    9   19     -0.62      0.00
   -6    9   19     -3.75      0.00
   -1    9   19     -0.34      0.00
    0    9   19     -1.36      0.00
    1    9   19     -0.36      0.00
    2    9   19     -0.49      0.00
    3    9   19      1.48      0.00
    4    9   19     -0.08      0.00
    5    9   19     -1.85      0.00
    6    9   19      1.68      0.00
    7    9   19     -0.08      0.00
  -13   10   19     -0.24      0.00
  -12   10   19     -0.88      0.00
  -11   10   19     -0.33      0.00
  -10   10   19      1.05      0.00
   -9   10   19      2.00      0.00
   -8   10   19     -0.88      0.00
   -7   10   19     -0.98      0.00
   -6   10   19      0.02      0.00
   -5   10   19      1.35      0.00
   -4   10   19     -4.75      0.00
   -3   10   19      2.72      0.00
   -2   10   19      3.77      0.00
   -1   10   19      2.44      0.00
    0   10   19     -3.77      0.00
    1   10   19     -0.49      0.00
    2   10   19      2.01      0.00
    3   10   19     -0.54      0.00
    4   10   19     -2.76      0.00
    5   10   19      2.91      0.00
    6   10   19     -1.99      0.00
  -11   11   19     -0.06      0.00
  -10   11   19      0.87      0.00
   -9   11   19     -0.02      0.00
   -8   11   19      1.22      0.00
   -7   11   19     -0.11      0.00
   -6   11   19     -1.78      0.00
   -5   11   19     -2.15      0.00
   -4   11   19      3.12      0.00
   -3   11   19     -1.76      0.00
   -2   11   19      3.64      0.00
   -1   11   19      3.53      0.00
    0   11   19     -0.47      0.00
    1   11   19     -1.69      0.00
    2   11   19      0.81      0.00
    3   11   19     -0.17      0.00
    4   11   19      0.79      0.00
    5   11   19     -1.10      0.00
   -9   12   19      1.02      0.00
   -8   12   19      1.18      0.00
   -7   12   19      0.27      0.00
   -6   12   19     -1.18      0.00
   -5   12   19      1.87      0.00
   -4   12   19     -1.38      0.00
   -3   12   19      1.11      0.00
   -2   12   19      2.27      0.00
   -1   12   19      2.22      0.00
    0   12   19     -0.31      0.00
    1   12   19     -1.52      0.00
    2   12   19      0.81      0.00
   -5   13   19     -0.34      0.00
   -4   13   19      1.94      0.00
   -3   13   19     -0.59      0.00
   -2   13   19     -0.55      0.00
  -18    0   20     -0.69      0.00
  -16    0   20      0.86      0.00
  -14    0   20      0.15      0.00
    8    0   20     -5.96      0.00
   10    0   20     -1.33      0.00
  -18    1   20     -0.24      0.00
  -17    1   20      1.26      0.00
  -16    1   20      0.11      0.00
  -15    1   20     -0.49      0.00
  -14    1   20     -0.01      0.00
    7    1   20     -5.51      0.00
    8    1   20     -2.86      0.00
    9    1   20     -4.31      0.00
   10    1   20     -3.08      0.00
   11    1   20      1.13      0.00
  -18    2   20      0.23      0.00
  -17    2   20     -0.86      0.00
  -16    2   20      0.68      0.00
  -15    2   20      0.01      0.00
  -14    2   20      0.96      0.00
    6    2   20      1.34      0.00
    7    2   20      1.88      0.00
    8    2   20     -5.02      0.00
    9    2   20     -1.81      0.00
   10    2   20     -2.37      0.00
   11    2   20      0.17      0.00
  -18    3   20      0.31      0.00
  -17    3   20      0.06      0.00
  -16    3   20     -0.36      0.00
  -15    3   20     -0.49      0.00
  -14    3   20      0.68      0.00
  -13    3   20      1.04      0.00
    6    3   20     -0.44      0.00
    7    3   20     -3.98      0.00
    8    3   20      4.17      0.00
    9    3   20     -3.88      0.00
   10    3   20      0.88      0.00
  -17    4   20     -0.23      0.00
  -16    4   20      0.48      0.00
  -15    4   20     -0.26      0.00
  -14    4   20      0.77      0.00
  -13    4   20      2.35      0.00
    6    4   20     -1.02      0.00
    7    4   20      3.02      0.00
    8    4   20     -3.85      0.00
    9    4   20      0.76      0.00
   10    4   20     -1.13      0.00
  -17    5   20      1.17      0.00
  -16    5   20     -0.08      0.00
  -15    5   20      0.36      0.00
  -14    5   20      1.64      0.00
  -13    5   20      1.23      0.00
  -12    5   20      2.37      0.00
    5    5   20      1.29      0.00
    6    5   20     -1.23      0.00
    7    5   20     -5.75      0.00
    8    5   20      1.21      0.00
    9    5   20     -1.24      0.00
   10    5   20     -2.15      0.00
  -16    6   20      0.43      0.00
  -15    6   20      0.54      0.00
  -14    6   20     -0.46      0.00
  -13    6   20      1.80      0.00
  -12    6   20      1.90      0.00
  -11    6   20      1.86      0.00
    4    6   20      3.57      0.00
    5    6   20     -0.02      0.00
    6    6   20     -2.33      0.00
    7    6   20      3.22      0.00
    8    6   20     -1.52      0.00
    9    6   20     -1.65      0.00
  -15    7   20      0.01      0.00
  -14    7   20      0.08      0.00
  -13    7   20      1.32      0.00
  -12    7   20      0.16      0.00
  -11    7   20      1.10      0.00
  -10    7   20      1.66      0.00
   -9    7   20      0.54      0.00
    2    7   20     -2.54      0.00
    3    7   20      3.67      0.00
    4    7   20      0.81      0.00
    5    7   20     -0.73      0.00
    6    7   20      3.43      0.00
    7    7   20     -1.70      0.00
    8    7   20      0.87      0.00
  -15    8   20      0.32      0.00
  -14    8   20     -0.22      0.00
  -13    8   20     -0.05      0.00
  -12    8   20      2.03      0.00
  -11    8   20      0.93      0.00
  -10    8   20      0.13      0.00
   -9    8   20      0.63      0.00
   -8    8   20     -0.89      0.00
   -7    8   20      2.22      0.00
   -1    8   20     -3.62      0.00
    0    8   20      2.73      0.00
    1    8   20     -0.24      0.00
    2    8   20      0.69      0.00
    3    8   20     -1.75      0.00
    4    8   20      1.40      0.00
    5    8   20     -0.12      0.00
    6    8   20     -0.50      0.00
    7    8   20      1.31      0.00
  -13    9   20     -0.12      0.00
  -12    9   20      0.56      0.00
  -11    9   20      0.33      0.00
  -10    9   20     -0.37      0.00
   -9    9   20     -0.73      0.00
   -8    9   20      0.78      0.00
   -7    9   20     -1.00      0.00
   -6    9   20     -1.36      0.00
   -5    9   20      1.93      0.00
   -4    9   20      2.39      0.00
   -3    9   20     -1.48      0.00
   -2    9   20     -3.48      0.00
   -1    9   20     -0.84      0.00
    0    9   20      1.68      0.00
    1    9   20      0.34      0.00
    2    9   20     -2.60      0.00
    3    9   20      2.63      0.00
    4    9   20     -0.62      0.00
    5    9   20     -0.48      0.00
    6    9   20      1.90      0.00
  -12   10   20      0.48      0.00
  -11   10   20      0.15      0.00
  -10   10   20      0.11      0.00
   -9   10   20      0.28      0.00
   -8   10   20     -2.49      0.00
   -7   10   20      0.80      0.00
   -6   10   20      2.15      0.00
   -5   10   20     -0.47      0.00
   -4   10   20     -1.99      0.00
   -3   10   20      3.43      0.00
   -2   10   20     -2.90      0.00
   -1   10   20     -3.16      0.00
    0   10   20     -0.58      0.00
    1   10   20      2.12      0.00
    2   10   20     -0.37      0.00
    3   10   20     -0.73      0.00
    4   10   20      0.34      0.00
    5   10   20      1.70      0.00
  -10   11   20     -0.01      0.00
   -9   11   20     -0.97      0.00
   -8   11   20      0.63      0.00
   -7   11   20     -0.53      0.00
   -6   11   20      0.48      0.00
   -5   11   20     -0.78      0.00
   -4   11   20      2.29      0.00
   -3   11   20     -1.11      0.00
   -2   11   20     -0.79      0.00
   -1   11   20     -3.18      0.00
    0   11   20      0.63      0.00
    1   11   20      0.55      0.00
    2   11   20      0.02      0.00
    3   11   20     -0.52      0.00
   -7   12   20     -0.63      0.00
   -6   12   20      0.05      0.00
   -5   12   20      0.91      0.00
   -4   12   20     -2.71      0.00
   -3   12   20      2.19      0.00
   -2   12   20     -0.20      0.00
   -1   12   20     -2.06      0.00
    0   12   20     -0.18      0.00
  -17    0   21     -0.81      0.00
  -15    0   21      0.38      0.00
  -13    0   21     -1.19      0.00
    5    0   21     -1.28      0.00
    7    0   21      3.94      0.00
    9    0   21      5.36      0.00
  -17    1   21      0.09      0.00
  -16    1   21     -1.66      0.00
  -15    1   21     -0.01      0.00
  -14    1   21     -1.06      0.00
  -13    1   21     -0.21      0.00
    5    1   21      2.90      0.00
    6    1   21     -3.04      0.00
    7    1   21      0.47      0.00
    8    1   21      4.55      0.00
    9    1   21      2.06      0.00
   10    1   21      2.14      0.00
  -17    2   21     -0.66      0.00
  -16    2   21      0.43      0.00
  -15    2   21     -0.36      0.00
  -14    2   21      0.67      0.00
  -13    2   21     -1.49      0.00
    5    2   21     -1.73      0.00
    6    2   21      2.10      0.00
    7    2   21      0.80      0.00
    8    2   21     -1.40      0.00
    9    2   21      1.52      0.00
   10    2   21      1.11      0.00
  -17    3   21      0.27      0.00
  -16    3   21     -0.22      0.00
  -15    3   21      0.90      0.00
  -14    3   21     -0.76      0.00
  -13    3   21     -1.00      0.00
  -12    3   21     -2.13      0.00
    5    3   21      6.71      0.00
    6    3   21     -1.86      0.00
    7    3   21     -2.41      0.00
    8    3   21      2.46      0.00
    9    3   21     -1.78      0.00
  -17    4   21     -0.41      0.00
  -16    4   21      0.27      0.00
  -15    4   21     -0.28      0.00
  -14    4   21      0.28      0.00
  -13    4   21     -1.74      0.00
  -12    4   21     -1.30      0.00
  -11    4   21     -1.06      0.00
    4    4   21      4.50      0.00
    5    4   21     -2.58      0.00
    6    4   21      5.36      0.00
    7    4   21      3.13      0.00
    8    4   21     -2.56      0.00
    9    4   21      2.58      0.00
  -16    5   21     -1.00      0.00
  -15    5   21      0.78      0.00
  -14    5   21     -0.01      0.00
  -13    5   21     -1.57      0.00
  -12    5   21     -1.40      0.00
  -11    5   21     -2.09      0.00
    3    5   21      0.48      0.00
    4    5   21     -7.41      0.00
    5    5   21      6.81      0.00
    6    5   21     -1.72      0.00
    7    5   21     -0.54      0.00
    8    5   21      2.79      0.00
    9    5   21      0.26      0.00
  -15    6   21      0.08      0.00
  -14    6   21     -0.14      0.00
  -13    6   21      1.08      0.00
  -12    6   21     -1.18      0.00
  -11    6   21     -0.27      0.00
  -10    6   21     -2.03      0.00
   -9    6   21      0.74      0.00
    1    6   21     -0.58      0.00
    2    6   21      1.08      0.00
    3    6   21     -7.22      0.00
    4    6   21      2.41      0.00
    5    6   21     -3.66      0.00
    6    6   21      0.03      0.00
    7    6   21      1.38      0.00
    8    6   21     -1.72      0.00
  -15    7   21     -0.30      0.00
  -14    7   21      0.95      0.00
  -13    7   21     -0.28      0.00
  -12    7   21     -0.86      0.00
  -11    7   21     -0.81      0.00
  -10    7   21      0.35      0.00
   -9    7   21     -1.43      0.00
   -8    7   21      0.23      0.00
   -7    7   21     -3.18      0.00
   -6    7   21     -0.53      0.00
   -1    7   21      1.65      0.00
    0    7   21     -3.04      0.00
    1    7   21      0.70      0.00
    2    7   21     -1.90      0.00
    3    7   21      2.50      0.00
    4    7   21     -2.39      0.00
    5    7   21      0.21      0.00
    6    7   21      0.21      0.00
    7    7   21     -2.51      0.00
  -14    8   21      0.12      0.00
  -13    8   21      0.08      0.00
  -12    8   21      0.60      0.00
  -11    8   21     -0.46      0.00
  -10    8   21     -0.82      0.00
   -9    8   21      0.29      0.00
   -8    8   21     -0.35      0.00
   -7    8   21      1.28      0.00
   -6    8   21     -0.48      0.00
   -5    8   21     -3.11      0.00
   -4    8   21      1.30      0.00
   -3    8   21     -0.81      0.00
   -2    8   21      2.78      0.00
   -1    8   21     -1.76      0.00
    0    8   21      1.81      0.00
    1    8   21     -1.45      0.00
    2    8   21      2.61      0.00
    3    8   21     -1.85      0.00
    4    8   21      0.20      0.00
    5    8   21      0.35      0.00
    6    8   21     -1.34      0.00
  -12    9   21     -0.01      0.00
  -11    9   21     -0.21      0.00
  -10    9   21      0.13      0.00
   -9    9   21      0.26      0.00
   -8    9   21      1.55      0.00
   -7    9   21     -0.89      0.00
   -6    9   21     -1.53      0.00
   -5    9   21      3.44      0.00
   -4    9   21     -1.15      0.00
   -3    9   21     -2.24      0.00
   -2    9   21      0.57      0.00
   -1    9   21      4.59      0.00
    0    9   21     -1.38      0.00
    1    9   21     -0.20      0.00
    2    9   21     -0.62      0.00
    3    9   21      1.84      0.00
    4    9   21     -1.94      0.00
    5    9   21      0.21      0.00
  -11   10   21      0.08      0.00
  -10   10   21      0.10      0.00
   -9   10   21     -0.22      0.00
   -8   10   21     -1.02      0.00
   -7   10   21      1.14      0.00
   -6   10   21     -0.08      0.00
   -5   10   21     -1.47      0.00
   -4   10   21     -0.56      0.00
   -3   10   21      0.08      0.00
   -2   10   21     -0.01      0.00
   -1   10   21      1.58      0.00
    0   10   21      0.49      0.00
    1   10   21     -0.52      0.00
    2   10   21      0.82      0.00
    3   10   21     -0.87      0.00
   -8   11   21      1.29      0.00
   -7   11   21     -0.50      0.00
   -6   11   21     -1.17      0.00
   -5   11   21      0.44      0.00
   -4   11   21      1.61      0.00
   -3   11   21     -2.74      0.00
   -2   11   21      0.25      0.00
   -1   11   21      1.56      0.00
    0   11   21      0.92      0.00
    1   11   21     -1.66      0.00
  -16    0   22      1.71      0.00
  -14    0   22      0.15      0.00
  -12    0   22      0.76      0.00
    4    0   22     -3.60      0.00
    6    0   22      2.02      0.00
    8    0   22     -4.69      0.00
  -17    1   22      0.31      0.00
  -16    1   22      0.20      0.00
  -15    1   22      0.15      0.00
  -14    1   22     -0.54      0.00
  -13    1   22      1.19      0.00
  -12    1   22     -0.50      0.00
  -11    1   22      2.51      0.00
    3    1   22     -2.14      0.00
    4    1   22      0.86      0.00
    5    1   22     -0.55      0.00
    6    1   22     -1.84      0.00
    7    1   22     -0.03      0.00
    8    1   22      0.52      0.00
    9    1   22     -2.26      0.00
  -16    2   22      0.72      0.00
  -15    2   22     -0.95      0.00
  -14    2   22      0.61      0.00
  -13    2   22     -0.40      0.00
  -12    2   22      1.12      0.00
  -11    2   22     -1.01      0.00
    3    2   22      4.89      0.00
    4    2   22     -3.22      0.00
    5    2   22     -2.90      0.00
    6    2   22      3.34      0.00
    7    2   22      0.42      0.00
    8    2   22     -0.47      0.00
    9    2   22      0.36      0.00
  -16    3   22     -0.51      0.00
  -15    3   22     -0.15      0.00
  -14    3   22     -1.67      0.00
  -13    3   22      1.29      0.00
  -12    3   22      0.25      0.00
  -11    3   22      1.89      0.00
    3    3   22     -3.48      0.00
    4    3   22      2.75      0.00
    5    3   22     -1.30      0.00
    6    3   22     -4.29      0.00
    7    3   22     -0.41      0.00
    8    3   22      1.68      0.00
  -16    4   22      0.34      0.00
  -15    4   22     -0.74      0.00
  -14    4   22      0.30      0.00
  -13    4   22     -0.43      0.00
  -12    4   22      2.18      0.00
  -11    4   22      0.24      0.00
  -10    4   22     -0.26      0.00
    2    4   22     -2.51      0.00
    3    4   22      7.65      0.00
    4    4   22      0.10      0.00
    5    4   22     -3.88      0.00
    6    4   22      1.07      0.00
    7    4   22     -0.92      0.00
    8    4   22     -2.88      0.00
  -15    5   22      0.65      0.00
  -14    5   22     -1.62      0.00
  -13    5   22     -0.07      0.00
  -12    5   22     -0.14      0.00
  -11    5   22      1.02      0.00
  -10    5   22      0.86      0.00
   -9    5   22     -1.54      0.00
   -8    5   22      0.54      0.00
    0    5   22      2.69      0.00
    1    5   22     -1.37      0.00
    2    5   22      5.39      0.00
    3    5   22      2.01      0.00
    4    5   22      0.58      0.00
    5    5   22      4.17      0.00
    6    5   22     -3.88      0.00
    7    5   22     -0.27      0.00
  -15    6   22     -0.69      0.00
  -14    6   22     -0.36      0.00
  -13    6   22     -0.06      0.00
  -12    6   22     -0.57      0.00
  -11    6   22      0.58      0.00
  -10    6   22     -0.61      0.00
   -9    6   22      1.34      0.00
   -8    6   22     -0.80      0.00
   -7    6   22      1.58      0.00
   -6    6   22     -0.14      0.00
   -5    6   22      1.18      0.00
   -4    6   22      3.19      0.00
   -3    6   22      0.84      0.00
   -2    6   22     -1.39      0.00
   -1    6   22      2.01      0.00
    0    6   22      0.28      0.00
    1    6   22      2.38      0.00
    2    6   22     -0.31      0.00
    3    6   22     -1.59      0.00
    4    6   22      5.23      0.00
    5    6   22     -3.04      0.00
    6    6   22      2.70      0.00
    7    6   22      0.36      0.00
  -14    7   22      0.33      0.00
  -13    7   22     -1.02      0.00
  -12    7   22     -0.14      0.00
  -11    7   22      0.24      0.00
  -10    7   22      1.25      0.00
   -9    7   22     -1.02      0.00
   -8    7   22      0.79      0.00
   -7    7   22     -1.08      0.00
   -6    7   22      2.71      0.00
   -5    7   22      0.13      0.00
   -4    7   22     -0.70      0.00
   -3    7   22      0.25      0.00
   -2    7   22      1.43      0.00
   -1    7   22     -1.46      0.00
    0    7   22      0.44      0.00
    1    7   22      0.28      0.00
    2    7   22     -2.11      0.00
    3    7   22      2.72      0.00
    4    7   22     -1.82      0.00
    5    7   22      1.09      0.00
    6    7   22     -0.64      0.00
  -13    8   22     -0.12      0.00
  -12    8   22      0.22      0.00
  -11    8   22     -0.47      0.00
  -10    8   22     -0.78      0.00
   -9    8   22      0.57      0.00
   -8    8   22     -1.43      0.00
   -7    8   22      0.76      0.00
   -6    8   22     -0.57      0.00
   -5    8   22     -2.23      0.00
   -4    8   22      1.61      0.00
   -3    8   22      1.04      0.00
   -2    8   22     -1.38      0.00
   -1    8   22     -2.50      0.00
    0    8   22      1.70      0.00
    1    8   22     -0.78      0.00
    2    8   22      0.85      0.00
    3    8   22     -2.09      0.00
    4    8   22      1.09      0.00
    5    8   22     -0.16      0.00
  -11    9   22     -0.49      0.00
  -10    9   22      0.34      0.00
   -9    9   22      0.05      0.00
   -8    9   22      0.10      0.00
   -7    9   22     -1.43      0.00
   -6    9   22      0.57      0.00
   -5    9   22      2.13      0.00
   -4    9   22     -2.46      0.00
   -3    9   22      1.09      0.00
   -2    9   22      0.16      0.00
   -1    9   22      0.48      0.00
    0    9   22     -2.30      0.00
    1    9   22      1.23      0.00
    2    9   22     -1.35      0.00
    3    9   22      1.02      0.00
   -9   10   22      0.18      0.00
   -8   10   22     -0.29      0.00
   -7   10   22      1.14      0.00
   -6   10   22      1.24      0.00
   -5   10   22     -1.62      0.00
   -4   10   22      0.51      0.00
   -3   10   22      1.61      0.00
   -2   10   22      0.63      0.00
   -1   10   22     -1.60      0.00
    0   10   22      0.27      0.00
    1   10   22      0.29      0.00
   -4   11   22     -1.08      0.00
  -15    0   23     -0.26      0.00
  -13    0   23     -0.19      0.00
  -11    0   23     -1.17      0.00
   -9    0   23     -2.81      0.00
    1    0   23     -1.38      0.00
    3    0   23     -0.50      0.00
    5    0   23      1.85      0.00
    7    0   23      0.00      0.00
  -16    1   23     -0.72      0.00
  -15    1   23     -0.12      0.00
  -14    1   23      0.49      0.00
  -13    1   23      0.31      0.00
  -12    1   23      0.16      0.00
  -11    1   23      1.33      0.00
  -10    1   23     -2.16      0.00
   -9    1   23     -1.34      0.00
    1    1   23      0.97      0.00
    2    1   23     -2.17      0.00
    3    1   23     -2.18      0.00
    4    1   23      1.51      0.00
    5    1   23      0.11      0.00
    6    1   23     -2.18      0.00
    7    1   23     -0.36      0.00
  -16    2   23      0.61      0.00
  -15    2   23      0.28      0.00
  -14    2   23      1.42      0.00
  -13    2   23     -0.64      0.00
  -12    2   23      0.32      0.00
  -11    2   23     -1.07      0.00
  -10    2   23      0.10      0.00
   -9    2   23      0.56      0.00
    1    2   23     -0.41      0.00
    2    2   23     -1.27      0.00
    3    2   23      0.38      0.00
    4    2   23     -2.88      0.00
    5    2   23      1.20      0.00
    6    2   23      2.83      0.00
    7    2   23     -1.93      0.00
  -15    3   23      0.47      0.00
  -14    3   23      0.14      0.00
  -13    3   23      0.97      0.00
  -12    3   23     -1.14      0.00
  -11    3   23      0.09      0.00
  -10    3   23      0.02      0.00
   -9    3   23     -0.33      0.00
   -8    3   23      0.34      0.00
    0    3   23     -0.21      0.00
    1    3   23      0.52      0.00
    2    3   23     -0.43      0.00
    3    3   23     -5.63      0.00
    4    3   23      2.07      0.00
    5    3   23      0.83      0.00
    6    3   23     -0.65      0.00
    7    3   23      1.80      0.00
  -15    4   23     -0.20      0.00
  -14    4   23      1.06      0.00
  -13    4   23     -0.18      0.00
  -12    4   23      0.70      0.00
  -11    4   23     -1.39      0.00
  -10    4   23     -0.03      0.00
   -9    4   23      0.62      0.00
   -8    4   23      0.85      0.00
   -7    4   23      1.50      0.00
   -6    4   23     -1.51      0.00
   -5    4   23      1.25      0.00
   -3    4   23     -1.80      0.00
   -2    4   23     -1.44      0.00
   -1    4   23     -2.30      0.00
    0    4   23     -1.07      0.00
    1    4   23     -0.74      0.00
    2    4   23     -4.67      0.00
    3    4   23      2.01      0.00
    4    4   23     -5.76      0.00
    5    4   23      0.71      0.00
    6    4   23      3.16      0.00
    7    4   23      0.47      0.00
  -14    5   23     -0.53      0.00
  -13    5   23      1.50      0.00
  -12    5   23     -0.26      0.00
  -11    5   23      0.61      0.00
  -10    5   23     -0.16      0.00
   -9    5   23     -0.09      0.00
   -8    5   23      1.41      0.00
   -7    5   23     -0.50      0.00
   -6    5   23      1.65      0.00
   -5    5   23     -3.01      0.00
   -4    5   23     -0.53      0.00
   -3    5   23     -0.69      0.00
   -2    5   23     -2.03      0.00
   -1    5   23     -0.70      0.00
    0    5   23     -1.47      0.00
    1    5   23     -2.08      0.00
    2    5   23      2.94      0.00
    3    5   23     -4.39      0.00
    4    5   23     -0.72      0.00
    5    5   23      0.01      0.00
    6    5   23     -1.66      0.00
  -13    6   23      0.05      0.00
  -12    6   23      0.46      0.00
  -11    6   23     -0.50      0.00
  -10    6   23     -0.37      0.00
   -9    6   23      0.54      0.00
   -8    6   23     -0.91      0.00
   -7    6   23      1.24      0.00
   -6    6   23     -1.76      0.00
   -5    6   23      1.52      0.00
   -4    6   23      0.58      0.00
   -3    6   23     -2.14      0.00
   -2    6   23      0.37      0.00
   -1    6   23      0.73      0.00
    0    6   23     -1.47      0.00
    1    6   23      1.37      0.00
    2    6   23     -1.58      0.00
    3    6   23      0.40      0.00
    4    6   23      0.57      0.00
    5    6   23     -1.70      0.00
  -12    7   23      0.41      0.00
  -11    7   23      0.43      0.00
  -10    7   23      0.16      0.00
   -9    7   23     -0.92      0.00
   -8    7   23      1.62      0.00
   -7    7   23     -0.52      0.00
   -6    7   23      1.67      0.00
   -5    7   23     -0.44      0.00
   -4    7   23      0.50      0.00
   -3    7   23      0.19      0.00
   -2    7   23      2.33      0.00
   -1    7   23     -0.92      0.00
    0    7   23      0.72      0.00
    1    7   23     -1.25      0.00
    2    7   23      0.65      0.00
    3    7   23      2.31      0.00
    4    7   23     -1.83      0.00
  -11    8   23     -0.06      0.00
  -10    8   23     -0.14      0.00
   -9    8   23      0.99      0.00
   -8    8   23     -0.31      0.00
   -7    8   23      2.05      0.00
   -6    8   23     -1.77      0.00
   -5    8   23      0.52      0.00
   -4    8   23      2.31      0.00
   -3    8   23     -0.03      0.00
   -2    8   23     -1.44      0.00
   -1    8   23      1.61      0.00
    0    8   23      0.40      0.00
    1    8   23     -0.23      0.00
    2    8   23      0.66      0.00
    3    8   23     -1.09      0.00
   -9    9   23     -0.75      0.00
   -8    9   23      0.11      0.00
   -7    9   23     -0.98      0.00
   -6    9   23      0.07      0.00
   -5    9   23      0.39      0.00
   -4    9   23     -1.19      0.00
   -3    9   23     -0.23      0.00
   -2    9   23     -0.15      0.00
   -1    9   23      0.42      0.00
    0    9   23     -0.87      0.00
    1    9   23      0.29      0.00
   -6   10   23     -1.24      0.00
   -5   10   23     -1.61      0.00
   -4   10   23      1.76      0.00
   -3   10   23     -0.43      0.00
   -2   10   23     -1.23      0.00
    0    0    0      0.00      0.00
# SQUEEZE RESULTS (Version =  30715)
# Note: Data are Listed for all Voids in the P1 Unit Cell
# i.e. Centre of Gravity, Solvent Accessible Volume,
# Recovered number of Electrons in the Void and
# Details about the Squeezed Material
loop_
  _platon_squeeze_void_nr
  _platon_squeeze_void_average_x
  _platon_squeeze_void_average_y
  _platon_squeeze_void_average_z
  _platon_squeeze_void_volume
  _platon_squeeze_void_count_electrons
  _platon_squeeze_void_content
   1  0.000  0.000  0.500       332        85 ' '
   2  0.500  0.500  0.000       332        85 ' '
# Missing Reflections Below sin(th)/lambda = 0.25
loop_
  _platon_missing_refln_index_h
  _platon_missing_refln_index_k
  _platon_missing_refln_index_l
  _platon_missing_refln_theta
   -1    0    1     1.395
    1    0    1     1.751
_platon_squeeze_void_probe_radius                  1.20
_platon_squeeze_details
)
TITL mo_gs29_0m_a.res in P2(1)/n
CELL   16.8049   13.6450   21.4125     90.00    103.29     90.00
SPGR P21/n
# Solvent Accessible Volume =     678.8
# Electrons Found in S.A.V. =     169.7
# Note: Atoms in Void as Cxxx and Qxxx all others
C101 0.124 0.941 0.404 !       6.58 eA-3
C102 0.260 0.425 0.117 !       5.78 eA-3
C103 0.426 0.469 0.045 !       5.48 eA-3
C104 0.298 0.455 0.077 !       4.41 eA-3
C105 0.083 0.853 0.360 !       3.24 eA-3
C106 0.171 0.931 0.360 !       1.72 eA-3
Q107 0.177 0.837 0.132 !       1.57 eA-3
C108 0.165 0.437 0.082 !       1.49 eA-3
C109 0.391 0.511 0.020 !       1.30 eA-3
C110 0.079 0.841 0.401 !       1.25 eA-3
Q111 0.134 0.828 0.046 !       1.20 eA-3
Q112 0.368 0.409 0.453 !       1.18 eA-3
Q113 0.071 0.982 0.391 !       1.10 eA-3
C114 0.184 0.391 0.047 !       1.04 eA-3
C115 0.061 0.893 0.458 !       1.02 eA-3
C116 0.171 0.978 0.464 !       0.98 eA-3
C117 0.312 0.529 0.079 !       0.98 eA-3
Q118 0.139 0.798 0.111 !       0.94 eA-3
C119 0.141 0.909 0.327 !       0.93 eA-3
Q120 0.134 0.796 0.334 !       0.90 eA-3
Q121 0.063 0.761 0.413 !       0.90 eA-3
C122 0.462 0.525 0.054 !       0.90 eA-3
Q123 0.342 0.842 0.426 !       0.88 eA-3
Q124 0.434 0.357 0.014 !       0.87 eA-3
C125 0.967 0.815 0.359 !       0.87 eA-3
Q126 0.167 0.440 0.006 !       0.85 eA-3
C127 0.108 0.784 0.385 !       0.85 eA-3
Q128 0.908 0.532 0.289 !       0.83 eA-3
C129 0.114 0.983 0.322 !       0.82 eA-3
C130 0.020 0.811 0.320 !       0.81 eA-3
C131 0.507 0.484 0.065 !       0.81 eA-3
Q132 0.915 0.120 0.001 !       0.79 eA-3
C133 0.147 0.826 0.384 !       0.79 eA-3
Q134 0.970 0.959 0.337 !       0.79 eA-3
C135 0.496 0.390 0.106 !       0.78 eA-3
Q136 0.155 0.952 0.089 !       0.78 eA-3
Q137 0.452 0.455 0.157 !       0.78 eA-3
Q138 0.903 0.967 0.005 !       0.78 eA-3
C139 0.035 0.951 0.296 !       0.77 eA-3
C140 0.214 0.856 0.411 !       0.77 eA-3
Q141 0.174 0.936 0.066 !       0.77 eA-3
Q142 0.581 0.531 0.021 !       0.76 eA-3
Q143 0.940 0.200 0.471 !       0.76 eA-3
Q144 0.062 0.873 0.063 !       0.75 eA-3
Q145 0.314 0.422 0.383 !       0.75 eA-3
Q146 0.280 0.296 0.440 !       0.74 eA-3
C147 0.482 0.231 0.168 !       0.73 eA-3
Q148 0.428 0.374 0.383 !       0.72 eA-3
Q149 0.544 0.442 0.214 !       0.72 eA-3
C150 0.097 0.845 0.294 !       0.71 eA-3
Q151 0.597 0.418 0.094 !       0.70 eA-3
Q152 0.287 0.310 0.134 !       0.70 eA-3
Q153 0.957 0.058 0.435 !       0.69 eA-3
Q154 0.128 0.910 0.263 !       0.69 eA-3
Q155 0.077 0.064 0.436 !       0.68 eA-3
Q156 0.232 0.531 0.119 !       0.68 eA-3
Q157 0.490 0.594 0.024 !       0.67 eA-3
Q158 0.298 0.012 0.490 !       0.67 eA-3
Q159 0.155 0.781 0.086 !       0.67 eA-3
Q160 0.955 0.656 0.114 !       0.66 eA-3
Q161 0.265 0.406 0.020 !       0.66 eA-3
Q162 0.869 0.503 0.013 !       0.66 eA-3
Q163 0.518 0.279 0.193 !       0.65 eA-3
Q164 0.245 0.359 0.381 !       0.65 eA-3
Q165 0.251 0.909 0.325 !       0.64 eA-3
C166 0.545 0.264 0.092 !       0.64 eA-3
Q167 0.140 0.340 0.393 !       0.64 eA-3
Q168 0.939 0.531 0.438 !       0.63 eA-3
Q169 0.442 0.498 0.276 !       0.63 eA-3
Q170 0.250 0.391 0.412 !       0.63 eA-3
Q171 0.853 0.048 0.378 !       0.63 eA-3
Q172 0.256 0.691 0.122 !       0.62 eA-3
Q173 0.023 0.965 0.036 !       0.62 eA-3
Q174 0.262 0.565 0.102 !       0.62 eA-3
Q175 0.310 0.501 0.195 !       0.62 eA-3
Q176 0.191 0.575 0.371 !       0.62 eA-3
Q177 0.114 0.761 0.281 !       0.62 eA-3
Q178 0.948 0.019 0.038 !       0.62 eA-3
Q179 0.074 0.767 0.052 !       0.61 eA-3
C180 0.088 0.752 0.323 !       0.61 eA-3
Q181 0.077 0.531 0.028 !       0.61 eA-3
Q182 0.302 0.363 0.465 !       0.61 eA-3
Q183 0.436 0.485 0.358 !       0.61 eA-3
Q184 0.235 0.064 0.144 !       0.61 eA-3
Q185 0.458 0.190 0.071 !       0.61 eA-3
Q186 0.369 0.890 0.148 !       0.60 eA-3
Q187 0.122 0.245 0.297 !       0.60 eA-3
Q188 0.136 0.090 0.432 !       0.60 eA-3
Q189 1.002 0.654 0.378 !       0.60 eA-3
Q190 0.370 0.217 0.497 !       0.60 eA-3
Q191 0.339 0.157 0.455 !       0.60 eA-3
Q192 0.214 0.723 0.077 !       0.60 eA-3
C193 0.907 0.937 0.469 !       0.59 eA-3
Q194 0.955 0.858 0.299 !       0.59 eA-3
Q195 0.864 0.675 0.341 !       0.59 eA-3
Q196 0.444 0.407 0.339 !       0.59 eA-3
Q197 0.646 0.717 0.437 !       0.59 eA-3
Q198 0.410 0.599 0.019 !       0.58 eA-3
Q199 0.440 0.019 0.327 !       0.58 eA-3
)
;
_shelx_fab_checksum              53109
loop_
_space_group_symop_operation_xyz
'x, y, z'
'-x+1/2, y+1/2, -z+1/2'
'-x, -y, -z'
'x-1/2, -y-1/2, z-1/2'
loop_
_atom_site_label
_atom_site_type_symbol
_atom_site_fract_x
_atom_site_fract_y
_atom_site_fract_z
_atom_site_U_iso_or_equiv
_atom_site_adp_type
_atom_site_occupancy
_atom_site_site_symmetry_order
_atom_site_calc_flag
_atom_site_refinement_flags_posn
_atom_site_refinement_flags_adp
Zn1 Zn 0.34267(4) 0.36816(5) 0.41478(3) 0.0215(2) Uani 1 1 d . .
N1 N 0.3967(3) 0.4814(3) 0.3764(2) 0.0214(12) Uani 1 1 d . .
N2 N 0.2338(3) 0.4461(3) 0.3910(2) 0.0203(11) Uani 1 1 d . .
N3 N 0.2929(3) 0.2835(3) 0.4762(2) 0.0237(12) Uani 1 1 d . .
N4 N 0.1846(3) 0.7696(3) 0.1655(2) 0.0216(12) Uani 1 1 d . .
N5 N 0.4567(3) 0.3244(3) 0.4666(2) 0.0242(12) Uani 1 1 d . .
N6 N 0.5104(4) -0.0374(5) 0.6657(3) 0.0472(16) Uani 1 1 d . .
C1 C 0.2415(3) 0.6411(4) 0.2673(2) 0.0203(14) Uani 1 1 d . .
C2 C 0.3580(4) 0.5517(4) 0.3346(3) 0.0228(14) Uani 1 1 d . .
C3 C 0.4780(4) 0.4862(4) 0.3755(3) 0.0247(15) Uani 1 1 d . .
C4 C 0.0141(4) 0.2514(4) 0.4164(2) 0.0227(14) Uani 1 1 d . .
C5 C 0.2160(4) 0.5198(4) 0.3475(2) 0.0205(14) Uani 1 1 d . .
C6 C 0.3321(4) 0.2137(4) 0.5184(2) 0.0221(14) Uani 1 1 d . .
C7 C 0.1597(4) 0.4183(4) 0.4031(3) 0.0280(15) Uani 1 1 d . .
C8 C 0.5298(4) 0.3554(4) 0.4554(2) 0.0255(15) Uani 1 1 d . .
C9 C 0.2735(4) 0.5693(4) 0.3203(2) 0.0201(14) Uani 1 1 d . .
C10 C 0.2114(4) 0.2788(5) 0.4778(3) 0.0301(16) Uani 1 1 d . .
C11 C -0.0649(4) 0.2329(4) 0.4270(3) 0.0284(15) Uani 1 1 d . .
C12 C 0.4748(4) 0.2524(4) 0.5107(3) 0.0262(15) Uani 1 1 d . .
C13 C 0.4164(4) 0.6023(5) 0.3067(3) 0.0321(16) Uani 1 1 d . .
H13 H 0.4050 0.6543 0.2764 0.038 Uiso 1 1 calc R U
C14 C 0.1300(4) 0.5410(4) 0.3334(3) 0.0276(15) Uani 1 1 d . .
H14 H 0.1025 0.5903 0.3052 0.033 Uiso 1 1 calc R U
C15 C 0.4900(4) 0.5624(5) 0.3314(3) 0.0335(16) Uani 1 1 d . .
H15 H 0.5405 0.5807 0.3218 0.040 Uiso 1 1 calc R U
C16 C 0.5624(4) 0.2372(4) 0.5294(3) 0.0291(15) Uani 1 1 d . .
H16 H 0.5904 0.1909 0.5597 0.035 Uiso 1 1 calc R U
C17 C 0.2733(4) 0.1622(4) 0.5459(3) 0.0331(17) Uani 1 1 d . .
H17 H 0.2845 0.1098 0.5759 0.040 Uiso 1 1 calc R U
C18 C 0.7216(4) 0.3809(5) 0.3343(3) 0.0372(17) Uani 1 1 d . .
C19 C 0.6427(4) 0.3742(5) 0.3493(3) 0.0293(15) Uani 1 1 d . .
C20 C 0.6239(4) 0.4345(5) 0.3964(3) 0.0330(16) Uani 1 1 d . .
C21 C 0.5401(4) 0.4264(4) 0.4105(3) 0.0276(15) Uani 1 1 d . .
C22 C 0.1495(4) 0.3405(4) 0.4436(3) 0.0297(16) Uani 1 1 d . .
C23 C 0.4171(4) 0.1967(4) 0.5347(3) 0.0277(15) Uani 1 1 d . .
C24 C 0.0404(4) 0.1954(5) 0.3671(3) 0.0363(17) Uani 1 1 d . .
H24 H 0.0926 0.2074 0.3586 0.044 Uiso 1 1 calc R U
C25 C -0.0093(4) 0.1260(5) 0.3330(3) 0.0367(17) Uani 1 1 d . .
H25 H 0.0089 0.0902 0.3009 0.044 Uiso 1 1 calc R U
C26 C 0.4485(4) 0.1150(4) 0.5798(3) 0.0248(15) Uani 1 1 d . .
C27 C 0.0958(4) 0.4779(5) 0.3677(3) 0.0313(16) Uani 1 1 d . .
H27 H 0.0395 0.4739 0.3682 0.038 Uiso 1 1 calc R U
C28 C -0.1949(4) 0.1413(5) 0.4036(3) 0.0356(17) Uani 1 1 d . .
C29 C 0.0633(4) 0.3213(5) 0.4520(3) 0.0327(16) Uani 1 1 d . .
C30 C 0.1994(4) 0.2024(5) 0.5211(3) 0.0355(17) Uani 1 1 d . .
H30 H 0.1489 0.1838 0.5304 0.043 Uiso 1 1 calc R U
C31 C 0.4343(4) 0.0189(5) 0.5634(3) 0.0347(17) Uani 1 1 d . .
H31 H 0.4026 0.0021 0.5220 0.042 Uiso 1 1 calc R U
C32 C 0.5964(4) 0.3015(5) 0.4956(3) 0.0350(16) Uani 1 1 d . .
H32 H 0.6531 0.3098 0.4977 0.042 Uiso 1 1 calc R U
C33 C -0.0936(4) 0.2868(5) 0.4744(3) 0.0399(18) Uani 1 1 d . .
C34 C 0.7781(4) 0.4494(6) 0.3677(3) 0.048(2) Uani 1 1 d . .
C35 C 0.4663(4) -0.0548(5) 0.6071(3) 0.0439(18) Uani 1 1 d . .
H35 H 0.4559 -0.1211 0.5942 0.053 Uiso 1 1 calc R U
C36 C 0.4962(4) 0.1344(5) 0.6409(3) 0.0385(17) Uani 1 1 d . .
H36 H 0.5089 0.2000 0.6546 0.046 Uiso 1 1 calc R U
C37 C -0.1157(4) 0.1601(5) 0.3909(3) 0.0333(17) Uani 1 1 d . .
C38 C 0.2072(5) 0.8004(5) 0.2248(3) 0.049(2) Uani 1 1 d . .
H38 H 0.2033 0.8685 0.2326 0.059 Uiso 1 1 calc R U
C39 C -0.0885(4) 0.1055(5) 0.3441(3) 0.0402(18) Uani 1 1 d . .
C40 C 0.6809(4) 0.5002(6) 0.4283(3) 0.052(2) Uani 1 1 d . .
H40 H 0.6680 0.5414 0.4604 0.063 Uiso 1 1 calc R U
C41 C -0.2203(4) 0.1976(5) 0.4518(3) 0.0445(19) Uani 1 1 d . .
H41 H -0.2726 0.1856 0.4600 0.053 Uiso 1 1 calc R U
C42 C 0.1877(4) 0.6751(5) 0.1561(3) 0.0424(19) Uani 1 1 d . .
H42 H 0.1699 0.6507 0.1137 0.051 Uiso 1 1 calc R U
C43 C 0.0336(4) 0.3751(5) 0.4965(3) 0.0445(18) Uani 1 1 d . .
H43 H 0.0665 0.4258 0.5195 0.053 Uiso 1 1 calc R U
C44 C 0.2364(5) 0.7396(5) 0.2767(3) 0.052(2) Uani 1 1 d . .
H44 H 0.2528 0.7663 0.3187 0.063 Uiso 1 1 calc R U
C45 C 0.7409(5) 0.3205(6) 0.2863(3) 0.0459(19) Uani 1 1 d . .
C46 C -0.1729(4) 0.2662(5) 0.4854(3) 0.0465(19) Uani 1 1 d . .
H46 H -0.1918 0.3020 0.5172 0.056 Uiso 1 1 calc R U
C47 C 0.5248(4) 0.0569(6) 0.6812(3) 0.0471(19) Uani 1 1 d . .
H47 H 0.5568 0.0715 0.7227 0.056 Uiso 1 1 calc R U
C48 C 0.2158(5) 0.6095(5) 0.2051(3) 0.045(2) Uani 1 1 d . .
H48 H 0.2173 0.5416 0.1957 0.054 Uiso 1 1 calc R U
C49 C 0.8582(4) 0.4555(7) 0.3508(4) 0.065(2) Uani 1 1 d . .
H49 H 0.8985 0.5001 0.3727 0.078 Uiso 1 1 calc R U
C50 C 0.8192(5) 0.3301(6) 0.2699(4) 0.057(2) Uani 1 1 d . .
C51 C -0.0426(4) 0.3573(5) 0.5084(3) 0.0448(19) Uani 1 1 d . .
H51 H -0.0601 0.3942 0.5404 0.054 Uiso 1 1 calc R U
C52 C 0.5881(5) 0.3022(5) 0.3153(3) 0.0439(19) Uani 1 1 d . .
H52 H 0.5363 0.2935 0.3252 0.053 Uiso 1 1 calc R U
C53 C 0.8740(5) 0.3982(7) 0.3048(4) 0.066(3) Uani 1 1 d . .
H53 H 0.9261 0.4041 0.2950 0.079 Uiso 1 1 calc R U
C54 C 0.7573(5) 0.5069(6) 0.4140(3) 0.062(2) Uani 1 1 d . .
H54 H 0.7961 0.5524 0.4368 0.075 Uiso 1 1 calc R U
C55 C 0.6851(6) 0.2546(6) 0.2519(4) 0.066(2) Uani 1 1 d . .
C56 C 0.6083(5) 0.2456(6) 0.2690(4) 0.068(2) Uani 1 1 d . .
H56 H 0.5700 0.1986 0.2473 0.081 Uiso 1 1 calc R U
C57 C -0.2424(5) 0.0701(6) 0.3691(3) 0.056(2) Uani 1 1 d . .
H57 H -0.2955 0.0579 0.3758 0.068 Uiso 1 1 calc R U
C58 C -0.1380(5) 0.0331(6) 0.3117(3) 0.065(3) Uani 1 1 d . .
H58 H -0.1201 -0.0051 0.2804 0.078 Uiso 1 1 calc R U
C59 C 0.8371(6) 0.2727(7) 0.2229(4) 0.074(3) Uani 1 1 d . .
H59 H 0.8896 0.2774 0.2136 0.089 Uiso 1 1 calc R U
C60 C -0.2138(6) 0.0157(7) 0.3244(4) 0.080(3) Uani 1 1 d . .
H60 H -0.2472 -0.0351 0.3018 0.097 Uiso 1 1 calc R U
C61 C 0.7814(8) 0.2089(8) 0.1889(5) 0.100(4) Uani 1 1 d . .
H61 H 0.7950 0.1711 0.1555 0.120 Uiso 1 1 calc R U
C62 C 0.7047(7) 0.1982(7) 0.2024(5) 0.095(3) Uani 1 1 d . .
H62 H 0.6661 0.1535 0.1786 0.114 Uiso 1 1 calc R U
loop_
_atom_site_aniso_label
_atom_site_aniso_U_11
_atom_site_aniso_U_22
_atom_site_aniso_U_33
_atom_site_aniso_U_23
_atom_site_aniso_U_13
_atom_site_aniso_U_12
Zn1 0.0242(4) 0.0224(4) 0.0193(4) 0.0002(3) 0.0079(3) -0.0042(3)
N1 0.023(3) 0.022(3) 0.021(3) 0.003(2) 0.010(2) -0.005(2)
N2 0.022(3) 0.020(3) 0.020(2) 0.002(2) 0.007(2) -0.003(2)
N3 0.028(3) 0.020(3) 0.026(3) 0.003(2) 0.011(2) -0.007(2)
N4 0.029(3) 0.020(3) 0.017(3) 0.007(2) 0.006(2) 0.003(2)
N5 0.027(3) 0.022(3) 0.027(3) 0.005(2) 0.013(2) -0.005(2)
N6 0.044(4) 0.050(5) 0.049(4) 0.018(3) 0.014(3) 0.007(3)
C1 0.020(3) 0.023(4) 0.020(3) -0.002(3) 0.008(3) -0.002(3)
C2 0.028(4) 0.022(4) 0.022(3) 0.000(3) 0.011(3) -0.009(3)
C3 0.029(4) 0.021(4) 0.027(3) 0.004(3) 0.012(3) -0.003(3)
C4 0.028(4) 0.018(3) 0.020(3) 0.001(3) 0.000(3) -0.001(3)
C5 0.020(4) 0.021(4) 0.020(3) -0.004(3) 0.004(3) 0.000(3)
C6 0.026(4) 0.023(4) 0.020(3) -0.004(3) 0.012(3) -0.007(3)
C7 0.035(4) 0.024(4) 0.024(3) 0.001(3) 0.004(3) -0.007(3)
C8 0.037(4) 0.026(4) 0.016(3) 0.004(3) 0.012(3) -0.005(3)
C9 0.023(4) 0.020(3) 0.016(3) -0.005(3) 0.001(3) -0.002(3)
C10 0.028(4) 0.037(4) 0.026(3) 0.009(3) 0.008(3) -0.005(3)
C11 0.025(4) 0.030(4) 0.032(3) 0.006(3) 0.010(3) -0.002(3)
C12 0.024(4) 0.028(4) 0.028(3) 0.004(3) 0.009(3) 0.002(3)
C13 0.037(5) 0.030(4) 0.030(3) 0.011(3) 0.008(3) -0.007(3)
C14 0.034(4) 0.027(4) 0.021(3) 0.005(3) 0.006(3) 0.003(3)
C15 0.032(4) 0.039(4) 0.031(4) 0.006(3) 0.012(3) -0.005(3)
C16 0.027(4) 0.032(4) 0.029(3) 0.006(3) 0.010(3) 0.009(3)
C17 0.036(5) 0.032(4) 0.029(3) 0.014(3) 0.002(3) -0.005(3)
C18 0.031(4) 0.046(5) 0.035(4) 0.013(4) 0.009(3) 0.000(4)
C19 0.030(4) 0.032(4) 0.024(3) 0.008(3) 0.004(3) 0.003(3)
C20 0.028(4) 0.043(4) 0.027(3) 0.005(3) 0.004(3) -0.006(3)
C21 0.021(4) 0.034(4) 0.028(3) 0.000(3) 0.006(3) -0.007(3)
C22 0.018(4) 0.038(4) 0.034(4) -0.004(3) 0.007(3) -0.004(3)
C23 0.031(4) 0.031(4) 0.022(3) -0.004(3) 0.008(3) -0.003(3)
C24 0.037(5) 0.036(4) 0.037(4) -0.001(3) 0.011(3) -0.003(3)
C25 0.048(5) 0.037(4) 0.032(3) -0.010(3) 0.022(3) -0.012(4)
C26 0.025(4) 0.023(4) 0.030(3) 0.001(3) 0.013(3) 0.002(3)
C27 0.019(4) 0.044(4) 0.031(3) 0.004(3) 0.007(3) -0.001(3)
C28 0.023(4) 0.034(4) 0.048(4) 0.013(4) 0.006(3) -0.008(3)
C29 0.038(5) 0.031(4) 0.032(4) 0.000(3) 0.014(3) 0.000(3)
C30 0.031(4) 0.039(4) 0.039(4) 0.005(3) 0.013(3) -0.004(3)
C31 0.032(4) 0.036(4) 0.033(4) 0.006(4) 0.002(3) 0.001(3)
C32 0.027(4) 0.048(4) 0.030(4) 0.007(3) 0.007(3) 0.002(3)
C33 0.031(5) 0.030(4) 0.062(5) -0.002(4) 0.016(4) 0.003(3)
C34 0.032(5) 0.080(6) 0.033(4) 0.011(4) 0.009(3) -0.002(4)
C35 0.033(5) 0.036(4) 0.064(5) 0.005(4) 0.014(4) -0.003(3)
C36 0.041(5) 0.040(4) 0.036(4) 0.003(4) 0.012(3) 0.003(4)
C37 0.035(4) 0.033(4) 0.033(4) 0.009(3) 0.008(3) -0.001(3)
C38 0.107(7) 0.024(4) 0.018(4) 0.008(3) 0.018(4) 0.027(4)
C39 0.052(5) 0.039(5) 0.030(4) -0.002(3) 0.010(3) -0.008(4)
C40 0.039(5) 0.077(6) 0.046(4) -0.024(4) 0.021(4) -0.018(4)
C41 0.027(5) 0.042(5) 0.065(5) 0.004(4) 0.013(4) -0.003(4)
C42 0.071(6) 0.026(4) 0.024(4) -0.003(3) 0.000(3) -0.007(4)
C43 0.029(4) 0.056(5) 0.054(4) -0.014(4) 0.023(4) -0.006(4)
C44 0.102(7) 0.029(5) 0.025(4) -0.011(4) 0.012(4) 0.012(4)
C45 0.052(6) 0.046(5) 0.047(5) 0.016(4) 0.027(4) 0.014(4)
C46 0.035(5) 0.038(5) 0.076(5) -0.004(4) 0.033(4) 0.005(4)
C47 0.053(5) 0.051(6) 0.037(4) 0.009(4) 0.011(4) 0.007(4)
C48 0.082(6) 0.017(4) 0.033(4) -0.005(3) 0.007(4) -0.004(4)
C49 0.027(5) 0.115(8) 0.057(5) 0.008(5) 0.016(4) -0.004(5)
C50 0.059(6) 0.070(6) 0.048(5) 0.017(5) 0.027(5) 0.025(5)
C51 0.040(5) 0.044(5) 0.059(5) -0.021(4) 0.030(4) -0.004(4)
C52 0.060(5) 0.033(4) 0.045(4) -0.003(4) 0.026(4) -0.006(4)
C53 0.044(6) 0.112(8) 0.048(5) 0.020(5) 0.022(4) 0.011(5)
C54 0.033(5) 0.106(7) 0.051(5) -0.023(5) 0.013(4) -0.031(5)
C55 0.097(8) 0.052(5) 0.061(5) -0.001(5) 0.046(5) -0.006(5)
C56 0.087(7) 0.050(5) 0.082(6) -0.015(5) 0.053(5) -0.020(5)
C57 0.053(6) 0.059(6) 0.058(5) 0.000(5) 0.015(4) -0.017(4)
C58 0.062(6) 0.087(7) 0.053(5) -0.032(5) 0.028(4) -0.044(5)
C59 0.089(8) 0.068(7) 0.083(7) 0.026(6) 0.055(6) 0.034(6)
C60 0.081(8) 0.095(7) 0.070(6) -0.036(6) 0.027(5) -0.052(6)
C61 0.154(12) 0.074(8) 0.103(8) 0.000(7) 0.094(8) 0.011(8)
C62 0.122(10) 0.085(7) 0.107(7) -0.037(6) 0.086(7) -0.013(7)
loop_
_atom_type_symbol
_atom_type_description
_atom_type_scat_dispersion_real
_atom_type_scat_dispersion_imag
_atom_type_scat_source
C C 0.0033 0.0016 'International Tables Vol C Tables 4.2.6.8 and 6.1.1.4'
H H 0.0000 0.0000 'International Tables Vol C Tables 4.2.6.8 and 6.1.1.4'
N N 0.0061 0.0033 'International Tables Vol C Tables 4.2.6.8 and 6.1.1.4'
Zn Zn 0.2839 1.4301 'International Tables Vol C Tables 4.2.6.8 and 6.1.1.4'
loop_
_geom_angle_atom_site_label_1
_geom_angle_atom_site_label_2
_geom_angle_atom_site_label_3
_geom_angle
_geom_angle_site_symmetry_3
N1 Zn1 N3 162.71(17) .
N1 Zn1 N5 89.52(18) .
N3 Zn1 N5 87.58(18) .
N1 Zn1 N2 87.85(18) .
N3 Zn1 N2 88.82(18) .
N5 Zn1 N2 159.17(17) .
N1 Zn1 N4 100.51(17) 2_545
N3 Zn1 N4 96.72(18) 2_545
N5 Zn1 N4 104.45(18) 2_545
N2 Zn1 N4 96.34(17) 2_545
C3 N1 C2 106.4(4) .
C3 N1 Zn1 125.0(4) .
C2 N1 Zn1 126.8(4) .
C5 N2 C7 105.5(5) .
C5 N2 Zn1 126.3(4) .
C7 N2 Zn1 126.4(4) .
C6 N3 C10 106.3(5) .
C6 N3 Zn1 127.1(4) .
C10 N3 Zn1 126.3(4) .
C38 N4 C42 116.9(5) .
C38 N4 Zn1 122.5(4) 2
C42 N4 Zn1 120.2(4) 2
C12 N5 C8 106.3(5) .
C12 N5 Zn1 128.2(4) .
C8 N5 Zn1 125.0(4) .
C35 N6 C47 116.0(6) .
C44 C1 C48 115.8(6) .
C44 C1 C9 123.7(5) .
C48 C1 C9 120.5(5) .
N1 C2 C9 124.6(5) .
N1 C2 C13 109.9(5) .
C9 C2 C13 125.5(5) .
N1 C3 C21 126.0(5) .
N1 C3 C15 109.4(5) .
C21 C3 C15 124.6(6) .
C29 C4 C11 120.0(5) .
C29 C4 C24 121.6(6) .
C11 C4 C24 118.4(5) .
N2 C5 C9 125.1(5) .
N2 C5 C14 110.3(5) .
C9 C5 C14 124.6(5) .
N3 C6 C23 125.7(5) .
N3 C6 C17 109.7(5) .
C23 C6 C17 124.6(5) .
N2 C7 C22 124.5(6) .
N2 C7 C27 110.2(5) .
C22 C7 C27 125.3(6) .
N5 C8 C21 126.1(6) .
N5 C8 C32 110.0(5) .
C21 C8 C32 123.9(6) .
C2 C9 C5 125.7(5) .
C2 C9 C1 116.5(5) .
C5 C9 C1 117.6(5) .
N3 C10 C22 125.4(5) .
N3 C10 C30 109.7(5) .
C22 C10 C30 124.9(6) .
C37 C11 C4 120.3(5) .
C37 C11 C33 119.4(6) .
C4 C11 C33 120.3(6) .
N5 C12 C23 125.5(6) .
N5 C12 C16 110.4(5) .
C23 C12 C16 124.0(5) .
C15 C13 C2 107.2(5) .
C15 C13 H13 126.4 .
C2 C13 H13 126.4 .
C27 C14 C5 107.0(5) .
C27 C14 H14 126.5 .
C5 C14 H14 126.5 .
C13 C15 C3 107.0(6) .
C13 C15 H15 126.5 .
C3 C15 H15 126.5 .
C32 C16 C12 106.8(5) .
C32 C16 H16 126.6 .
C12 C16 H16 126.6 .
C30 C17 C6 107.1(5) .
C30 C17 H17 126.5 .
C6 C17 H17 126.5 .
C34 C18 C45 121.2(7) .
C34 C18 C19 118.6(6) .
C45 C18 C19 120.3(6) .
C20 C19 C52 123.5(6) .
C20 C19 C18 119.9(6) .
C52 C19 C18 116.6(6) .
C40 C20 C19 119.8(6) .
C40 C20 C21 121.6(6) .
C19 C20 C21 118.5(6) .
C3 C21 C8 125.1(6) .
C3 C21 C20 117.7(5) .
C8 C21 C20 117.1(5) .
C10 C22 C7 126.4(6) .
C10 C22 C29 116.5(5) .
C7 C22 C29 117.2(5) .
C6 C23 C12 124.1(5) .
C6 C23 C26 118.1(5) .
C12 C23 C26 117.8(5) .
C25 C24 C4 120.2(6) .
C25 C24 H24 119.9 .
C4 C24 H24 119.9 .
C24 C25 C39 121.8(6) .
C24 C25 H25 119.1 .
C39 C25 H25 119.1 .
C31 C26 C36 117.0(6) .
C31 C26 C23 122.5(5) .
C36 C26 C23 120.5(5) .
C14 C27 C7 107.1(6) .
C14 C27 H27 126.5 .
C7 C27 H27 126.5 .
C57 C28 C41 122.7(7) .
C57 C28 C37 118.5(7) .
C41 C28 C37 118.8(6) .
C4 C29 C43 119.0(6) .
C4 C29 C22 121.5(5) .
C43 C29 C22 119.5(6) .
C17 C30 C10 107.2(6) .
C17 C30 H30 126.4 .
C10 C30 H30 126.4 .
C26 C31 C35 120.1(6) .
C26 C31 H31 120.0 .
C35 C31 H31 120.0 .
C16 C32 C8 106.5(6) .
C16 C32 H32 126.8 .
C8 C32 H32 126.8 .
C51 C33 C11 117.7(6) .
C51 C33 C46 122.6(6) .
C11 C33 C46 119.7(6) .
C54 C34 C18 119.7(7) .
C54 C34 C49 122.9(7) .
C18 C34 C49 117.4(7) .
N6 C35 C31 123.6(7) .
N6 C35 H35 118.2 .
C31 C35 H35 118.2 .
C47 C36 C26 118.9(6) .
C47 C36 H36 120.6 .
C26 C36 H36 120.6 .
C39 C37 C11 120.4(6) .
C39 C37 C28 120.3(6) .
C11 C37 C28 119.3(6) .
N4 C38 C44 123.9(6) .
N4 C38 H38 118.0 .
C44 C38 H38 118.0 .
C58 C39 C37 119.0(7) .
C58 C39 C25 122.3(6) .
C37 C39 C25 118.7(6) .
C20 C40 C54 120.5(7) .
C20 C40 H40 119.8 .
C54 C40 H40 119.8 .
C46 C41 C28 122.0(7) .
C46 C41 H41 119.0 .
C28 C41 H41 119.0 .
N4 C42 C48 122.9(6) .
N4 C42 H42 118.6 .
C48 C42 H42 118.6 .
C51 C43 C29 122.0(6) .
C51 C43 H43 119.0 .
C29 C43 H43 119.0 .
C1 C44 C38 119.6(6) .
C1 C44 H44 120.2 .
C38 C44 H44 120.2 .
C55 C45 C18 121.7(7) .
C55 C45 C50 118.3(7) .
C18 C45 C50 119.9(8) .
C41 C46 C33 120.8(7) .
C41 C46 H46 119.6 .
C33 C46 H46 119.6 .
N6 C47 C36 124.5(6) .
N6 C47 H47 117.7 .
C36 C47 H47 117.7 .
C1 C48 C42 120.8(6) .
C1 C48 H48 119.6 .
C42 C48 H48 119.6 .
C53 C49 C34 119.8(8) .
C53 C49 H49 120.1 .
C34 C49 H49 120.1 .
C59 C50 C53 123.2(9) .
C59 C50 C45 119.7(9) .
C53 C50 C45 117.1(7) .
C33 C51 C43 121.0(6) .
C33 C51 H51 119.5 .
C43 C51 H51 119.5 .
C56 C52 C19 121.7(7) .
C56 C52 H52 119.1 .
C19 C52 H52 119.1 .
C49 C53 C50 124.6(8) .
C49 C53 H53 117.7 .
C50 C53 H53 117.7 .
C34 C54 C40 121.5(7) .
C34 C54 H54 119.2 .
C40 C54 H54 119.2 .
C45 C55 C62 120.5(9) .
C45 C55 C56 117.6(7) .
C62 C55 C56 121.9(9) .
C52 C56 C55 122.0(8) .
C52 C56 H56 119.0 .
C55 C56 H56 119.0 .
C28 C57 C60 120.4(8) .
C28 C57 H57 119.8 .
C60 C57 H57 119.8 .
C39 C58 C60 120.1(7) .
C39 C58 H58 119.9 .
C60 C58 H58 119.9 .
C61 C59 C50 121.5(10) .
C61 C59 H59 119.3 .
C50 C59 H59 119.3 .
C58 C60 C57 121.7(8) .
C58 C60 H60 119.1 .
C57 C60 H60 119.1 .
C59 C61 C62 120.8(9) .
C59 C61 H61 119.6 .
C62 C61 H61 119.6 .
C61 C62 C55 119.2(10) .
C61 C62 H62 120.4 .
C55 C62 H62 120.4 .
loop_
_geom_bond_atom_site_label_1
_geom_bond_atom_site_label_2
_geom_bond_distance
_geom_bond_site_symmetry_2
Zn1 N1 2.057(4) .
Zn1 N3 2.067(4) .
Zn1 N5 2.069(5) .
Zn1 N2 2.076(5) .
Zn1 N4 2.148(4) 2_545
N1 C3 1.371(7) .
N1 C2 1.370(7) .
N2 C5 1.356(7) .
N2 C7 1.382(7) .
N3 C6 1.371(7) .
N3 C10 1.378(7) .
N4 C38 1.306(7) .
N4 C42 1.308(7) .
N4 Zn1 2.148(4) 2
N5 C12 1.348(7) .
N5 C8 1.371(7) .
N6 C35 1.322(8) .
N6 C47 1.337(8) .
C1 C44 1.364(8) .
C1 C48 1.372(8) .
C1 C9 1.501(7) .
C2 C9 1.403(8) .
C2 C13 1.438(8) .
C3 C21 1.399(8) .
C3 C15 1.450(8) .
C4 C29 1.373(8) .
C4 C11 1.420(8) .
C4 C24 1.452(8) .
C5 C9 1.411(8) .
C5 C14 1.436(8) .
C6 C23 1.410(8) .
C6 C17 1.445(8) .
C7 C22 1.406(8) .
C7 C27 1.420(8) .
C8 C21 1.404(8) .
C8 C32 1.447(8) .
C10 C22 1.406(8) .
C10 C30 1.439(8) .
C11 C37 1.417(8) .
C11 C33 1.424(8) .
C12 C23 1.417(8) .
C12 C16 1.449(8) .
C13 C15 1.344(8) .
C13 H13 0.9500 .
C14 C27 1.343(8) .
C14 H14 0.9500 .
C15 H15 0.9500 .
C16 C32 1.345(8) .
C16 H16 0.9500 .
C17 C30 1.350(8) .
C17 H17 0.9500 .
C18 C34 1.405(9) .
C18 C45 1.412(9) .
C18 C19 1.438(8) .
C19 C20 1.393(8) .
C19 C52 1.424(8) .
C20 C40 1.374(9) .
C20 C21 1.510(8) .
C22 C29 1.524(8) .
C23 C26 1.491(8) .
C24 C25 1.359(8) .
C24 H24 0.9500 .
C25 C39 1.432(9) .
C25 H25 0.9500 .
C26 C31 1.365(8) .
C26 C36 1.394(8) .
C27 H27 0.9500 .
C28 C57 1.361(9) .
C28 C41 1.427(9) .
C28 C37 1.442(9) .
C29 C43 1.383(8) .
C30 H30 0.9500 .
C31 C35 1.395(8) .
C31 H31 0.9500 .
C32 H32 0.9500 .
C33 C51 1.379(9) .
C33 C46 1.434(9) .
C34 C54 1.372(10) .
C34 C49 1.475(10) .
C35 H35 0.9500 .
C36 C47 1.379(9) .
C36 H36 0.9500 .
C37 C39 1.407(9) .
C38 C44 1.385(8) .
C38 H38 0.9500 .
C39 C58 1.373(9) .
C40 C54 1.391(9) .
C40 H40 0.9500 .
C41 C46 1.329(9) .
C41 H41 0.9500 .
C42 C48 1.377(8) .
C42 H42 0.9500 .
C43 C51 1.383(8) .
C43 H43 0.9500 .
C44 H44 0.9500 .
C45 C55 1.383(10) .
C45 C50 1.443(10) .
C46 H46 0.9500 .
C47 H47 0.9500 .
C48 H48 0.9500 .
C49 C53 1.330(11) .
C49 H49 0.9500 .
C50 C59 1.363(11) .
C50 C53 1.397(11) .
C51 H51 0.9500 .
C52 C56 1.360(9) .
C52 H52 0.9500 .
C53 H53 0.9500 .
C54 H54 0.9500 .
C55 C62 1.408(10) .
C55 C56 1.425(11) .
C56 H56 0.9500 .
C57 C60 1.382(10) .
C57 H57 0.9500 .
C58 C60 1.384(10) .
C58 H58 0.9500 .
C59 C61 1.360(13) .
C59 H59 0.9500 .
C60 H60 0.9500 .
C61 C62 1.392(13) .
C61 H61 0.9500 .
C62 H62 0.9500 .
loop_
_platon_squeeze_void_nr
_platon_squeeze_void_average_x
_platon_squeeze_void_average_y
_platon_squeeze_void_average_z
_platon_squeeze_void_volume
_platon_squeeze_void_count_electrons
_platon_squeeze_void_content
1 0.000 0.000 0.500 332 85 'disordered DMF '
2 0.500 0.500 0.000 332 85 'disordered DMF '
