#------------------------------------------------------------------------------
#$Date: 2017-10-31 05:27:58 +0200 (Tue, 31 Oct 2017) $
#$Revision: 202440 $
#$URL: file:///home/coder/svn-repositories/cod/cif/7/22/94/7229435.cif $
#------------------------------------------------------------------------------
#
# This file is available in the Crystallography Open Database (COD),
# http://www.crystallography.net/
#
# All data on this site have been placed in the public domain by the
# contributors.
#
data_7229435
loop_
_publ_author_name
'Goswami, Soumyabrata'
'Tripuramallu, Bharat Kumar'
'Goldberg, Israel'
_publ_section_title
;
 New meso-substituted trans-A2B2 porphyrins: Synthesis and structure of
 their metal-mediated supramolecular assemblies&#x2020;
;
_journal_name_full               CrystEngComm
_journal_paper_doi               10.1039/C7CE01642E
_journal_year                    2017
_chemical_formula_moiety         'C42 H24 Mn N8 O4'
_chemical_formula_sum            'C42 H24 Mn N8 O4'
_chemical_formula_weight         759.63
_chemical_properties_physical    Air-sensitive,Moisture-sensitive
_space_group_crystal_system      monoclinic
_space_group_IT_number           14
_space_group_name_Hall           '-P 2yn'
_space_group_name_H-M_alt        'P 1 21/n 1'
_symmetry_space_group_name_Hall  '-P 2yn'
_symmetry_space_group_name_H-M   'P 1 21/n 1'
_atom_sites_solution_hydrogens   geom
_atom_sites_solution_primary     direct
_atom_sites_solution_secondary   difmap
_audit_creation_method           SHELXL-2014/7
_audit_update_record
;
2017-09-11 deposited with the CCDC.
2017-10-30 downloaded from the CCDC.
;
_cell_angle_alpha                90
_cell_angle_beta                 101.995(2)
_cell_angle_gamma                90
_cell_formula_units_Z            4
_cell_length_a                   16.9401(9)
_cell_length_b                   13.6509(7)
_cell_length_c                   17.6168(10)
_cell_measurement_reflns_used    5637
_cell_measurement_temperature    110(2)
_cell_measurement_theta_max      25.1
_cell_measurement_theta_min      1.87
_cell_volume                     3984.9(4)
_computing_cell_refinement       'Saint, Bruker-AXS'
_computing_data_collection       'Apex2, Bruker-AXS'
_computing_data_reduction        'Saint, Bruker-AXS'
_computing_structure_refinement  'SHELXL-2014/7 (Sheldrick, 2015)'
_computing_structure_solution    'SHELXT-2014 (Sheldrick, 2015)'
_diffrn_ambient_temperature      110(2)
_diffrn_detector_area_resol_mean 1.75
_diffrn_measured_fraction_theta_full 0.987
_diffrn_measured_fraction_theta_max 0.987
_diffrn_measurement_device_type  'ApexDuo, Bruker-AXS'
_diffrn_measurement_method       '1 deg. \f and \w scans'
_diffrn_radiation_type           MoK\a
_diffrn_radiation_wavelength     0.71073
_diffrn_reflns_av_R_equivalents  0.0245
_diffrn_reflns_av_unetI/netI     0.0365
_diffrn_reflns_Laue_measured_fraction_full 0.987
_diffrn_reflns_Laue_measured_fraction_max 0.987
_diffrn_reflns_limit_h_max       16
_diffrn_reflns_limit_h_min       -20
_diffrn_reflns_limit_k_max       16
_diffrn_reflns_limit_k_min       -13
_diffrn_reflns_limit_l_max       20
_diffrn_reflns_limit_l_min       -21
_diffrn_reflns_number            16291
_diffrn_reflns_point_group_measured_fraction_full 0.987
_diffrn_reflns_point_group_measured_fraction_max 0.987
_diffrn_reflns_theta_full        25.111
_diffrn_reflns_theta_max         25.111
_diffrn_reflns_theta_min         1.874
_diffrn_source                   'ImuS micro-focus'
_exptl_absorpt_coefficient_mu    0.382
_exptl_absorpt_correction_T_max  0.956
_exptl_absorpt_correction_T_min  0.878
_exptl_absorpt_correction_type   multi-scan
_exptl_absorpt_process_details   'Sadabs, Bruker-AXS'
_exptl_crystal_colour            red
_exptl_crystal_density_diffrn    1.266
_exptl_crystal_description       plate
_exptl_crystal_F_000             1556
_exptl_crystal_size_max          0.350
_exptl_crystal_size_mid          0.250
_exptl_crystal_size_min          0.120
_refine_diff_density_max         0.591
_refine_diff_density_min         -0.601
_refine_diff_density_rms         0.058
_refine_ls_extinction_method     none
_refine_ls_goodness_of_fit_ref   1.008
_refine_ls_hydrogen_treatment    constr
_refine_ls_matrix_type           full
_refine_ls_number_parameters     496
_refine_ls_number_reflns         7001
_refine_ls_number_restraints     0
_refine_ls_restrained_S_all      1.008
_refine_ls_R_factor_all          0.0668
_refine_ls_R_factor_gt           0.0514
_refine_ls_shift/su_max          0.002
_refine_ls_shift/su_mean         0.000
_refine_ls_structure_factor_coef Fsqd
_refine_ls_weighting_details
'w=1/[\s^2^(Fo^2^)+(0.0426P)^2^+7.1655P] where P=(Fo^2^+2Fc^2^)/3'
_refine_ls_weighting_scheme      calc
_refine_ls_wR_factor_gt          0.1170
_refine_ls_wR_factor_ref         0.1272
_reflns_Friedel_coverage         0.000
_reflns_number_gt                5637
_reflns_number_total             7001
_reflns_threshold_expression     'I > 2\s(I)'
_cod_data_source_file            c7ce01642e2.cif
_cod_data_source_block           gs38x_sq
_cod_database_code               7229435
_shelx_shelxl_version_number     2014/7
_shelx_space_group_comment
;
The symmetry employed for this shelxl refinement is uniquely defined
by the following loop, which should always be used as a source of
symmetry information in preference to the above space-group names.
They are only intended as comments.
;
_shelx_estimated_absorpt_t_min   0.878
_shelx_estimated_absorpt_t_max   0.956
_platon_squeeze_void_probe_radius 1.20
_shelx_res_file
;

    gs38x_sq.res created by SHELXL-2014/7


TITL mo_gs38_0m_a.res in P2(1)/n
REM Old TITL mo_gs38_0m in P2(1)/n

REM SHELXT solution in P2(1)/n
REM R1 0.206,  Rweak 0.009,  Alpha 0.048,  Orientation as input
REM Formula found by SHELXT:  C51 N6 O3 Mn

CELL  0.71073  16.9401  13.6509  17.6168   90.000  101.995   90.000
ZERR    4.000   0.0009   0.0007   0.0010    0.000    0.002    0.000
LATT  1
SYMM 1/2-X, 1/2+Y, 1/2-Z
SFAC C H N O MN
UNIT 168 96 32 16 4
TEMP -163.00
size 0.35 0.25 0.12
L.S. 5 0   52
BOND $H
FMAP 2
omit 1 0 13
omit -4 7 6
omit -9 7 6
acta
PLAN -20
ABIN
WGHT    0.042600    7.165500
FVAR       0.22060
MN1   5    0.343399    0.761551    0.451414    11.00000    0.01619    0.02403 =
         0.02481    0.00506   -0.00033   -0.00714
O1    4   -0.194277    0.587681    0.528607    11.00000    0.04024    0.05197 =
         0.10489   -0.00145    0.02021   -0.02627
O2    4    0.891282    0.839745    0.369949    11.00000    0.06143    0.07116 =
         0.15182    0.04941    0.07226    0.02615
O3    4    0.896687    0.976157    0.433714    11.00000    0.05617    0.06169 =
         0.20430    0.03786    0.06722   -0.00710
O4    4   -0.191041    0.719572    0.588270    11.00000    0.09710    0.16177 =
         0.15326   -0.11846    0.10434   -0.09517
N1    3    0.457685    0.720607    0.515944    11.00000    0.02278    0.02594 =
         0.02654    0.00283    0.00469   -0.00222
N2    3    0.236164    0.844170    0.423442    11.00000    0.02089    0.03730 =
         0.03658    0.00987   -0.00017   -0.00892
N3    3    0.194525    1.158924    0.145754    11.00000    0.02646    0.02516 =
         0.03298   -0.00349    0.00102    0.00618
N4    3    0.292539    0.687776    0.534332    11.00000    0.02184    0.03746 =
         0.02479    0.00218    0.00026   -0.00461
N5    3    0.401951    0.877027    0.406617    11.00000    0.02151    0.02757 =
         0.05067    0.00947    0.00533   -0.00072
N6    3   -0.161993    0.663430    0.550728    11.00000    0.03369    0.06043 =
         0.03729   -0.00245    0.00838   -0.02169
N7    3    0.495879    0.355999    0.754020    11.00000    0.03869    0.07330 =
         0.04971    0.03591    0.00587    0.00500
rem N8    3    0.134682    0.383208    0.770273    11.00000    0.06643
N9    3    0.862531    0.900699    0.408579    11.00000    0.04677    0.05440 =
         0.14828    0.04757    0.05643    0.01114
C1    1    0.212194    0.685198    0.536544    11.00000    0.02375    0.04342 =
         0.02782    0.00338    0.00116   -0.01118
C2    1    0.220212    1.069007    0.133122    11.00000    0.03155    0.02825 =
         0.03740   -0.00326    0.01317    0.00075
AFIX  43
H2    2    0.218685    1.049199    0.081142    11.00000   -1.20000
AFIX   0
C3    1    0.472292    0.648051    0.570575    11.00000    0.02634    0.02954 =
         0.02336   -0.00100    0.00483    0.00201
C4    1    0.221199    0.913759    0.366199    11.00000    0.02236    0.03611 =
         0.03862    0.00572    0.00053   -0.00470
C5    1    0.251263    1.030245    0.268438    11.00000    0.01589    0.02727 =
         0.04637    0.00683    0.00431   -0.00381
C6    1    0.280280    0.959685    0.332770    11.00000    0.02474    0.02908 =
         0.04613    0.01036    0.00314   -0.00336
C7    1    0.329911    0.617395    0.584482    11.00000    0.02347    0.04102 =
         0.02398    0.00602   -0.00010   -0.00508
C8    1    0.558481    0.636297    0.596800    11.00000    0.02666    0.03670 =
         0.03107    0.00643    0.00644    0.00781
AFIX  43
H8    2    0.584764    0.591048    0.634724    11.00000   -1.20000
AFIX   0
C9    1    0.135504    0.931610    0.344602    11.00000    0.02246    0.04389 =
         0.03836    0.00793    0.00121   -0.00109
AFIX  43
H9    2    0.109122    0.976091    0.306099    11.00000   -1.20000
AFIX   0
C10   1    0.099789    0.872982    0.389582    11.00000    0.01882    0.04405 =
         0.04037    0.00688    0.00135   -0.00474
AFIX  43
H10   2    0.043666    0.869293    0.389002    11.00000   -1.20000
AFIX   0
C11   1    0.594529    0.700940    0.557807    11.00000    0.02249    0.03639 =
         0.04096    0.00552    0.01194    0.00334
AFIX  43
H11   2    0.650999    0.709647    0.562665    11.00000   -1.20000
AFIX   0
C12   1    0.531822    0.754548    0.507332    11.00000    0.02150    0.02593 =
         0.03457   -0.00082    0.00912   -0.00006
C13   1    0.413262    0.596802    0.600494    11.00000    0.02816    0.03555 =
         0.01963    0.00041    0.00297   -0.00236
C14   1    0.067128    0.726641    0.502740    11.00000    0.02146    0.04198 =
         0.02759    0.00650    0.00024   -0.00763
C15   1    0.162604    0.817338    0.438396    11.00000    0.02277    0.03877 =
         0.03579    0.00365    0.00113   -0.00937
C16   1    0.198470    1.184799    0.219843    11.00000    0.05572    0.02690 =
         0.03279   -0.00684   -0.00482    0.01062
AFIX  43
H16   2    0.181643    1.248942    0.230161    11.00000   -1.20000
AFIX   0
C17   1    0.442224    0.514003    0.654383    11.00000    0.02217    0.04568 =
         0.02538    0.00870    0.00348   -0.00433
C18   1    0.543817    0.830550    0.456998    11.00000    0.02401    0.02604 =
         0.04879    0.00684    0.00732    0.00069
C19   1    0.628706    0.848503    0.447872    11.00000    0.02597    0.03050 =
         0.05026    0.01548    0.00918    0.00336
C20   1    0.669167    0.934945    0.472771    11.00000    0.02516    0.03626 =
         0.06192    0.00574    0.01186    0.00042
AFIX  43
H20   2    0.643726    0.983126    0.498370    11.00000   -1.20000
AFIX   0
C21   1    0.248764    1.003833    0.191980    11.00000    0.03817    0.02441 =
         0.05318    0.00562    0.02062    0.00851
AFIX  43
H21   2    0.266754    0.940784    0.180252    11.00000   -1.20000
AFIX   0
C22   1   -0.083083    0.686329    0.532562    11.00000    0.02459    0.05199 =
         0.03180   -0.00018    0.00558   -0.01695
C23   1    0.483656    0.888508    0.411663    11.00000    0.02134    0.03455 =
         0.07162    0.02066    0.00805   -0.00408
C24   1    0.225624    1.123370    0.281877    11.00000    0.05266    0.03186 =
         0.02911   -0.00670   -0.00344    0.00212
AFIX  43
H24   2    0.226673    1.144933    0.333349    11.00000   -1.20000
AFIX   0
C25   1    0.480098    0.433903    0.630125    11.00000    0.05305    0.03974 =
         0.02661    0.00938    0.00673   -0.00098
AFIX  43
H25   2    0.488760    0.431230    0.578590    11.00000   -1.20000
AFIX   0
C26   1    0.432474    0.514039    0.730689    11.00000    0.02463    0.06911 =
         0.03062    0.01427    0.00863    0.00709
AFIX  43
H26   2    0.407132    0.567665    0.750387    11.00000   -1.20000
AFIX   0
C27   1    0.364235    0.944507    0.353943    11.00000    0.02683    0.03478 =
         0.06441    0.02232    0.00437   -0.00252
C28   1    0.270485    0.568509    0.619593    11.00000    0.02879    0.06136 =
         0.03661    0.02329    0.00086   -0.00854
AFIX  43
H28   2    0.280033    0.516398    0.656096    11.00000   -1.20000
AFIX   0
C29   1    0.151763    0.744609    0.491813    11.00000    0.02037    0.04601 =
         0.02964    0.00210    0.00207   -0.00962
C30   1    0.198796    0.611609    0.590212    11.00000    0.02171    0.06550 =
         0.03937    0.01854    0.00137   -0.01291
AFIX  43
H30   2    0.148494    0.595814    0.602955    11.00000   -1.20000
AFIX   0
C31   1    0.460267    0.434674    0.777665    11.00000    0.03155    0.10779 =
         0.03837    0.03759    0.01091    0.01140
AFIX  43
H31   2    0.453670    0.436108    0.829903    11.00000   -1.20000
AFIX   0
C32   1    0.746634    0.951634    0.460569    11.00000    0.02894    0.03908 =
         0.07398    0.01254    0.01307   -0.00362
AFIX  43
H32   2    0.774325    1.010653    0.477855    11.00000   -1.20000
AFIX   0
C33   1    0.505465    0.357424    0.680979    11.00000    0.05349    0.04502 =
         0.04562    0.01562    0.00633    0.00118
AFIX  43
H33   2    0.531115    0.303001    0.662707    11.00000   -1.20000
AFIX   0
C34   1    0.781961    0.882307    0.423612    11.00000    0.03354    0.03919 =
         0.09757    0.02873    0.03565    0.00795
C35   1   -0.051150    0.625585    0.487594    11.00000    0.02444    0.02629 =
         0.12947   -0.01327    0.01634   -0.00878
AFIX  43
H35   2   -0.079968    0.569049    0.465893    11.00000   -1.20000
AFIX   0
C36   1    0.423827    1.000392    0.325206    11.00000    0.03024    0.06459 =
         0.13521    0.07303    0.01001    0.00183
AFIX  43
H36   2    0.413685    1.051638    0.287964    11.00000   -1.20000
AFIX   0
C37   1    0.024409    0.645909    0.472951    11.00000    0.02754    0.02630 =
         0.15350   -0.02141    0.03044   -0.00403
AFIX  43
H37   2    0.047071    0.602323    0.441245    11.00000   -1.20000
AFIX   0
C38   1    0.668228    0.778826    0.412279    11.00000    0.04864    0.03277 =
         0.09208    0.00728    0.03357   -0.00260
AFIX  43
H38   2    0.642114    0.718248    0.396998    11.00000   -1.20000
AFIX   0
C39   1    0.496452    0.966499    0.360917    11.00000    0.02306    0.06842 =
         0.14758    0.07611    0.00893   -0.00398
AFIX  43
H39   2    0.547241    0.989940    0.353865    11.00000   -1.20000
AFIX   0
C40   1    0.744262    0.794831    0.398411    11.00000    0.06313    0.03592 =
         0.11832    0.01027    0.05987    0.00545
AFIX  43
H40   2    0.769960    0.747355    0.372397    11.00000   -1.20000
AFIX   0
C41   1    0.031900    0.787518    0.545810    11.00000    0.08983    0.14748 =
         0.11211   -0.10730    0.08269   -0.09946
AFIX  43
H41   2    0.059085    0.845997    0.565413    11.00000   -1.20000
AFIX   0
C42   1   -0.043090    0.767306    0.562435    11.00000    0.09592    0.16548 =
         0.13442   -0.12928    0.09766   -0.10606
AFIX  43
H42   2   -0.065872    0.810198    0.594545    11.00000   -1.20000
AFIX   0
HKLF 4

REM  mo_gs38_0m_a.res in P2(1)/n
REM R1 =  0.0514 for    5637 Fo > 4sig(Fo)  and  0.0668 for all    7001 data
REM    496 parameters refined using      0 restraints

END

WGHT      0.0321      6.8543

REM Highest difference peak  0.591,  deepest hole -0.601,  1-sigma level  0.058
Q1    1  -0.2079  0.7616  0.5668  11.00000  0.05    0.59
Q2    1  -0.0613  0.7973  0.5449  11.00000  0.05    0.59
Q3    1  -0.1691  0.7033  0.6077  11.00000  0.05    0.57
Q4    1  -0.0252  0.7416  0.5864  11.00000  0.05    0.52
Q5    1   0.0179  0.8197  0.5313  11.00000  0.05    0.49
Q6    1   0.3653  0.7647  0.4143  11.00000  0.05    0.39
Q7    1   0.0553  0.7672  0.5629  11.00000  0.05    0.37
Q8    1   0.3765  0.8770  0.5545  11.00000  0.05    0.31
Q9    1   0.0433  0.6192  0.4073  11.00000  0.05    0.28
Q10   1   0.3281  0.7417  0.4993  11.00000  0.05    0.28
Q11   1   0.3045  0.7839  0.4278  11.00000  0.05    0.27
Q12   1   0.8770  0.9621  0.4028  11.00000  0.05    0.27
Q13   1   0.5018  0.9775  0.3873  11.00000  0.05    0.27
Q14   1  -0.0452  0.7553  0.6563  11.00000  0.05    0.26
Q15   1   0.9028  0.9658  0.4766  11.00000  0.05    0.25
Q16   1   0.1573  0.7578  0.4500  11.00000  0.05    0.24
Q17   1   0.5167  0.9588  0.3299  11.00000  0.05    0.24
Q18   1   0.8851  1.0358  0.4426  11.00000  0.05    0.22
Q19   1   0.3229  0.7036  0.3954  11.00000  0.05    0.22
Q20   1   0.4184  1.0504  0.3293  11.00000  0.05    0.22
;
_shelx_res_checksum              98669
_shelx_fab_file
;
    2    0    0     11.82      0.00
    4    0    0    -18.33      0.00
    6    0    0    -29.29      0.00
    8    0    0     -3.55      0.00
   10    0    0     -7.74      0.00
   12    0    0     -3.61      0.00
   14    0    0      5.41      0.00
   16    0    0      2.77      0.00
   18    0    0      1.52      0.00
    1    1    0    -79.72      0.00
    2    1    0    -55.36      0.00
    3    1    0     16.91      0.00
    4    1    0    -16.41      0.00
    5    1    0     19.55      0.00
    6    1    0     -5.05      0.00
    7    1    0      5.98      0.00
    8    1    0      6.94      0.00
    9    1    0      3.52      0.00
   10    1    0      1.35      0.00
   11    1    0      5.99      0.00
   12    1    0      4.25      0.00
   13    1    0      1.34      0.00
   14    1    0      0.51      0.00
   15    1    0     -4.11      0.00
   16    1    0     -3.47      0.00
   17    1    0     -1.78      0.00
   18    1    0     -0.35      0.00
   19    1    0     -0.33      0.00
    0    2    0      8.86      0.00
    1    2    0     69.86      0.00
    2    2    0     -1.31      0.00
    3    2    0     22.37      0.00
    4    2    0     -4.35      0.00
    5    2    0     10.27      0.00
    6    2    0      0.48      0.00
    7    2    0    -10.20      0.00
    8    2    0      6.14      0.00
    9    2    0      1.42      0.00
   10    2    0     -5.65      0.00
   11    2    0     -0.84      0.00
   12    2    0     -5.23      0.00
   13    2    0     -4.72      0.00
   14    2    0     -2.16      0.00
   15    2    0      2.24      0.00
   16    2    0      1.87      0.00
   17    2    0      0.85      0.00
   18    2    0      2.56      0.00
   19    2    0      0.69      0.00
    1    3    0     22.30      0.00
    2    3    0    -24.74      0.00
    3    3    0    -11.49      0.00
    4    3    0      5.75      0.00
    5    3    0     -0.26      0.00
    7    3    0    -10.55      0.00
    8    3    0     -1.96      0.00
    9    3    0      4.46      0.00
   10    3    0     -6.00      0.00
   11    3    0      2.36      0.00
   12    3    0     -0.44      0.00
   13    3    0      6.45      0.00
   14    3    0      3.18      0.00
   15    3    0      1.32      0.00
   16    3    0      0.09      0.00
   17    3    0     -3.45      0.00
   18    3    0      0.40      0.00
   19    3    0     -2.07      0.00
    0    4    0    -21.37      0.00
    1    4    0     -1.58      0.00
    2    4    0     21.67      0.00
    3    4    0    -14.20      0.00
    4    4    0      3.46      0.00
    6    4    0     -0.24      0.00
    7    4    0     -8.27      0.00
    8    4    0     -7.19      0.00
    9    4    0     10.29      0.00
   10    4    0     -2.84      0.00
   11    4    0      5.61      0.00
   12    4    0     -0.15      0.00
   13    4    0      0.02      0.00
   14    4    0     -4.27      0.00
   15    4    0     -2.60      0.00
   16    4    0      2.06      0.00
   17    4    0     -2.15      0.00
   18    4    0      2.68      0.00
   19    4    0      0.10      0.00
    1    5    0    -19.97      0.00
    2    5    0     17.34      0.00
    3    5    0    -17.16      0.00
    4    5    0      1.35      0.00
    5    5    0      4.45      0.00
    6    5    0     11.74      0.00
    7    5    0     14.84      0.00
    8    5    0     -5.04      0.00
    9    5    0      8.08      0.00
   10    5    0     -3.33      0.00
   11    5    0     -1.82      0.00
   12    5    0     -6.06      0.00
   13    5    0     -0.83      0.00
   14    5    0      1.78      0.00
   15    5    0     -0.42      0.00
   16    5    0      2.80      0.00
   17    5    0     -1.75      0.00
   18    5    0      0.81      0.00
    0    6    0     27.42      0.00
    1    6    0    -10.72      0.00
    2    6    0     19.42      0.00
    3    6    0      5.04      0.00
    4    6    0     -0.98      0.00
    5    6    0      4.11      0.00
    6    6    0     -8.46      0.00
    7    6    0     -1.10      0.00
    8    6    0    -14.08      0.00
    9    6    0     -1.31      0.00
   10    6    0     -2.44      0.00
   11    6    0     -0.13      0.00
   12    6    0      2.49      0.00
   13    6    0      3.64      0.00
   14    6    0      1.95      0.00
   15    6    0     -2.29      0.00
   16    6    0      1.67      0.00
   17    6    0     -0.62      0.00
   18    6    0     -0.99      0.00
    1    7    0    -17.89      0.00
    2    7    0     -2.96      0.00
    3    7    0      3.30      0.00
    4    7    0    -11.25      0.00
    5    7    0     -1.02      0.00
    6    7    0     -3.97      0.00
    7    7    0      8.44      0.00
   10    7    0      6.03      0.00
   11    7    0      4.45      0.00
   12    7    0     -1.04      0.00
   13    7    0     -2.57      0.00
   14    7    0      0.04      0.00
   15    7    0     -1.41      0.00
   16    7    0     -0.49      0.00
   17    7    0     -0.27      0.00
    0    8    0     10.88      0.00
    1    8    0      2.37      0.00
    2    8    0     -1.48      0.00
    3    8    0      6.85      0.00
    4    8    0     -2.73      0.00
    5    8    0      2.98      0.00
    6    8    0      2.67      0.00
    7    8    0     -1.01      0.00
    8    8    0      0.10      0.00
    9    8    0     -4.23      0.00
   10    8    0     -2.70      0.00
   11    8    0     -1.62      0.00
   12    8    0     -5.76      0.00
   13    8    0      0.34      0.00
   14    8    0      2.65      0.00
   15    8    0     -0.91      0.00
   16    8    0      0.60      0.00
   17    8    0      2.20      0.00
    1    9    0     -3.48      0.00
    2    9    0     -4.68      0.00
    3    9    0      4.04      0.00
    4    9    0      4.60      0.00
    5    9    0     -1.94      0.00
    6    9    0      0.51      0.00
    7    9    0     -3.32      0.00
    8    9    0      3.35      0.00
    9    9    0     -0.18      0.00
   10    9    0     -3.48      0.00
   11    9    0      6.41      0.00
   12    9    0      0.51      0.00
   13    9    0      0.73      0.00
   14    9    0      1.27      0.00
   15    9    0     -1.32      0.00
   16    9    0      0.72      0.00
    0   10    0      5.68      0.00
    1   10    0      2.93      0.00
    2   10    0      3.11      0.00
    3   10    0     -2.69      0.00
    4   10    0     -0.79      0.00
    5   10    0     -6.53      0.00
    6   10    0      0.76      0.00
    7   10    0     -2.29      0.00
    8   10    0      0.20      0.00
    9   10    0      2.88      0.00
   10   10    0     -3.24      0.00
   11   10    0      3.57      0.00
   12   10    0     -2.00      0.00
   13   10    0     -1.72      0.00
   14   10    0      0.40      0.00
   15   10    0     -1.13      0.00
    1   11    0     -5.03      0.00
    2   11    0     -1.56      0.00
    3   11    0     -4.83      0.00
    4   11    0      3.41      0.00
    5   11    0      3.00      0.00
    6   11    0      4.67      0.00
    7   11    0      1.68      0.00
    8   11    0     -0.11      0.00
    9   11    0      3.15      0.00
   10   11    0     -3.91      0.00
   11   11    0      0.95      0.00
   12   11    0     -0.08      0.00
   13   11    0      1.13      0.00
   14   11    0      0.02      0.00
    0   12    0      1.53      0.00
    1   12    0      1.31      0.00
    2   12    0      4.39      0.00
    3   12    0      2.47      0.00
    4   12    0      1.75      0.00
    5   12    0     -1.89      0.00
    6   12    0     -3.13      0.00
    7   12    0     -2.55      0.00
    8   12    0     -4.58      0.00
    9   12    0      1.07      0.00
   10   12    0     -1.12      0.00
   11   12    0      1.21      0.00
   12   12    0     -1.47      0.00
   13   12    0      0.39      0.00
    1   13    0      0.14      0.00
    2   13    0     -1.88      0.00
    3   13    0     -3.52      0.00
    4   13    0     -1.01      0.00
    5   13    0     -0.93      0.00
    6   13    0      1.87      0.00
    7   13    0      2.26      0.00
    8   13    0      1.48      0.00
    9   13    0      3.59      0.00
   10   13    0      0.36      0.00
   11   13    0      0.13      0.00
    0   14    0     -0.57      0.00
    1   14    0     -0.73      0.00
    2   14    0      0.53      0.00
    3   14    0     -0.07      0.00
    4   14    0      3.44      0.00
    5   14    0     -1.27      0.00
    6   14    0      0.59      0.00
    7   14    0     -1.19      0.00
    8   14    0     -2.00      0.00
    9   14    0     -2.04      0.00
   10   14    0     -1.50      0.00
    1   15    0     -0.96      0.00
    2   15    0      1.84      0.00
    3   15    0     -0.96      0.00
    4   15    0     -0.24      0.00
    5   15    0     -0.92      0.00
    6   15    0      1.08      0.00
    7   15    0      1.31      0.00
    1   16    0     -0.56      0.00
    2   16    0      1.82      0.00
    3   16    0     -0.23      0.00
  -19    0    1     -0.35      0.00
  -17    0    1      0.77      0.00
  -15    0    1      1.81      0.00
  -11    0    1     -3.89      0.00
   -9    0    1     -7.44      0.00
   -7    0    1     10.82      0.00
   -5    0    1     -0.38      0.00
   -3    0    1    -37.91      0.00
    1    0    1     85.29      0.00
    3    0    1     15.45      0.00
    5    0    1     12.14      0.00
    7    0    1     -6.66      0.00
    9    0    1     14.72      0.00
   11    0    1      3.85      0.00
   13    0    1     -5.95      0.00
   15    0    1     -2.46      0.00
   17    0    1     -3.80      0.00
   19    0    1     -0.78      0.00
  -19    1    1      0.00      0.00
  -18    1    1     -0.18      0.00
  -17    1    1     -1.50      0.00
  -16    1    1     -0.87      0.00
  -15    1    1      0.72      0.00
  -14    1    1     -6.05      0.00
  -13    1    1     -2.13      0.00
  -12    1    1     -1.32      0.00
  -11    1    1     -2.96      0.00
  -10    1    1      5.88      0.00
   -9    1    1      5.66      0.00
   -8    1    1      0.50      0.00
   -7    1    1      2.41      0.00
   -6    1    1     -8.45      0.00
   -5    1    1     -1.09      0.00
   -4    1    1      4.29      0.00
   -3    1    1    -22.91      0.00
   -1    1    1     49.31      0.00
    0    1    1      2.48      0.00
    1    1    1     24.85      0.00
    2    1    1    -40.69      0.00
    3    1    1    -12.31      0.00
    4    1    1    -11.11      0.00
    5    1    1     -2.19      0.00
    6    1    1      3.62      0.00
    7    1    1      3.67      0.00
    8    1    1     -7.84      0.00
    9    1    1      4.91      0.00
   10    1    1     -8.32      0.00
   11    1    1     -4.02      0.00
   12    1    1      1.21      0.00
   13    1    1     -1.51      0.00
   14    1    1      5.26      0.00
   15    1    1     -0.12      0.00
   16    1    1      2.63      0.00
   17    1    1     -1.40      0.00
   18    1    1      1.28      0.00
   19    1    1      1.50      0.00
  -19    2    1     -1.72      0.00
  -18    2    1      0.19      0.00
  -17    2    1      0.48      0.00
  -16    2    1      1.14      0.00
  -15    2    1      4.28      0.00
  -14    2    1      0.01      0.00
  -13    2    1      3.33      0.00
  -12    2    1      6.82      0.00
  -11    2    1      2.84      0.00
  -10    2    1     -1.22      0.00
   -9    2    1     -4.78      0.00
   -8    2    1    -14.22      0.00
   -7    2    1      5.46      0.00
   -6    2    1     -1.20      0.00
   -5    2    1     -0.97      0.00
   -4    2    1     14.68      0.00
   -3    2    1    -14.13      0.00
   -2    2    1     18.40      0.00
   -1    2    1    -24.45      0.00
    0    2    1    -71.04      0.00
    1    2    1      1.25      0.00
    2    2    1     25.56      0.00
    3    2    1     11.44      0.00
    4    2    1      1.33      0.00
    5    2    1      3.46      0.00
    6    2    1      3.10      0.00
    7    2    1      2.07      0.00
    8    2    1    -14.73      0.00
    9    2    1      6.39      0.00
   10    2    1      1.96      0.00
   11    2    1      0.26      0.00
   12    2    1      5.96      0.00
   13    2    1     -2.93      0.00
   14    2    1     -0.05      0.00
   15    2    1     -3.68      0.00
   16    2    1      2.01      0.00
   17    2    1     -1.08      0.00
   18    2    1     -0.66      0.00
   19    2    1      1.79      0.00
  -19    3    1      0.67      0.00
  -18    3    1      2.39      0.00
  -17    3    1     -0.19      0.00
  -16    3    1     -1.66      0.00
  -15    3    1      1.24      0.00
  -14    3    1     -2.94      0.00
  -13    3    1     -5.10      0.00
  -12    3    1     -3.29      0.00
  -11    3    1     -4.03      0.00
  -10    3    1     -8.33      0.00
   -9    3    1      7.72      0.00
   -8    3    1      1.87      0.00
   -7    3    1     13.55      0.00
   -6    3    1      0.33      0.00
   -5    3    1     -5.80      0.00
   -4    3    1     19.82      0.00
   -3    3    1    -28.18      0.00
   -2    3    1     -6.11      0.00
   -1    3    1     11.73      0.00
    0    3    1     17.32      0.00
    1    3    1      3.54      0.00
    2    3    1      3.54      0.00
    3    3    1    -12.28      0.00
    4    3    1    -16.92      0.00
    5    3    1     -6.68      0.00
    6    3    1     -2.04      0.00
    7    3    1     12.04      0.00
    8    3    1     -4.88      0.00
    9    3    1      4.60      0.00
   10    3    1      5.78      0.00
   11    3    1     -4.05      0.00
   12    3    1     -0.34      0.00
   13    3    1     -3.33      0.00
   14    3    1      2.91      0.00
   15    3    1      0.50      0.00
   16    3    1      1.81      0.00
   17    3    1     -0.20      0.00
   18    3    1     -1.92      0.00
   19    3    1      0.77      0.00
  -19    4    1     -2.74      0.00
  -18    4    1     -1.66      0.00
  -17    4    1     -1.26      0.00
  -16    4    1     -1.19      0.00
  -15    4    1      2.26      0.00
  -14    4    1      0.60      0.00
  -13    4    1     -0.46      0.00
  -12    4    1      1.99      0.00
  -11    4    1      9.03      0.00
  -10    4    1      2.26      0.00
   -9    4    1      8.30      0.00
   -8    4    1     -9.87      0.00
   -7    4    1     -4.10      0.00
   -6    4    1      3.93      0.00
   -5    4    1    -20.01      0.00
   -4    4    1      6.19      0.00
   -3    4    1    -19.46      0.00
   -2    4    1     12.71      0.00
   -1    4    1      9.10      0.00
    0    4    1     -0.80      0.00
    1    4    1    -21.75      0.00
    2    4    1      2.78      0.00
    3    4    1     23.42      0.00
    4    4    1      7.38      0.00
    6    4    1      2.89      0.00
    7    4    1      7.71      0.00
    8    4    1     -6.15      0.00
    9    4    1     -6.59      0.00
   10    4    1     -0.35      0.00
   11    4    1     -3.32      0.00
   12    4    1      1.21      0.00
   13    4    1      1.16      0.00
   14    4    1     -0.29      0.00
   15    4    1     -2.46      0.00
   16    4    1     -0.80      0.00
   17    4    1     -0.15      0.00
   18    4    1     -0.89      0.00
  -19    5    1      0.45      0.00
  -18    5    1      1.28      0.00
  -17    5    1      1.48      0.00
  -16    5    1     -1.03      0.00
  -15    5    1      1.08      0.00
  -14    5    1     -0.21      0.00
  -13    5    1     -0.41      0.00
  -12    5    1     -2.57      0.00
  -11    5    1      2.89      0.00
  -10    5    1     -7.70      0.00
   -9    5    1     -3.15      0.00
   -8    5    1     -2.00      0.00
   -7    5    1     -0.61      0.00
   -6    5    1     12.85      0.00
   -5    5    1    -10.54      0.00
   -4    5    1     22.20      0.00
   -3    5    1      8.92      0.00
   -2    5    1      5.81      0.00
   -1    5    1     -6.62      0.00
    0    5    1      6.61      0.00
    1    5    1      3.68      0.00
    2    5    1     -4.94      0.00
    3    5    1      5.41      0.00
    4    5    1    -16.03      0.00
    5    5    1    -14.39      0.00
    6    5    1    -13.79      0.00
    7    5    1      0.25      0.00
    8    5    1     -0.72      0.00
    9    5    1     -1.29      0.00
   10    5    1      3.76      0.00
   11    5    1      5.96      0.00
   12    5    1     -0.50      0.00
   13    5    1     -0.81      0.00
   14    5    1      1.17      0.00
   15    5    1      0.83      0.00
   16    5    1      2.16      0.00
   17    5    1      1.00      0.00
   18    5    1      0.18      0.00
  -18    6    1     -0.61      0.00
  -17    6    1     -0.23      0.00
  -16    6    1     -0.85      0.00
  -15    6    1      2.12      0.00
  -14    6    1      1.83      0.00
  -13    6    1      1.23      0.00
  -12    6    1     -4.98      0.00
  -11    6    1      1.15      0.00
  -10    6    1      0.43      0.00
   -9    6    1      2.73      0.00
   -8    6    1      4.10      0.00
   -7    6    1     -8.00      0.00
   -6    6    1      7.91      0.00
   -5    6    1     -3.64      0.00
   -4    6    1     -4.55      0.00
   -3    6    1    -12.02      0.00
   -2    6    1    -10.08      0.00
   -1    6    1     -5.68      0.00
    0    6    1      4.88      0.00
    1    6    1     -1.28      0.00
    2    6    1    -13.45      0.00
    3    6    1      4.39      0.00
    4    6    1      3.79      0.00
    5    6    1      7.75      0.00
    6    6    1      6.21      0.00
    7    6    1     10.30      0.00
    8    6    1      3.60      0.00
    9    6    1      2.37      0.00
   10    6    1     -3.45      0.00
   11    6    1     -0.30      0.00
   12    6    1     -3.70      0.00
   13    6    1     -1.82      0.00
   14    6    1      2.44      0.00
   15    6    1     -2.90      0.00
   16    6    1     -0.23      0.00
   17    6    1     -1.19      0.00
   18    6    1      0.29      0.00
  -18    7    1     -1.15      0.00
  -17    7    1      0.09      0.00
  -16    7    1     -1.86      0.00
  -15    7    1     -1.85      0.00
  -14    7    1     -1.96      0.00
  -13    7    1     -0.89      0.00
  -12    7    1     -2.53      0.00
  -11    7    1      2.39      0.00
  -10    7    1      4.16      0.00
   -9    7    1     -1.15      0.00
   -8    7    1      1.00      0.00
   -7    7    1     -2.24      0.00
   -6    7    1      2.43      0.00
   -5    7    1      0.30      0.00
   -4    7    1     -4.85      0.00
   -3    7    1      7.34      0.00
   -2    7    1     12.63      0.00
   -1    7    1     -0.11      0.00
    0    7    1      2.41      0.00
    1    7    1      2.46      0.00
    2    7    1     -2.04      0.00
    3    7    1      6.37      0.00
    4    7    1      5.62      0.00
    5    7    1     -0.06      0.00
    6    7    1     -8.85      0.00
    7    7    1     -2.15      0.00
    9    7    1     -0.84      0.00
   10    7    1     -6.87      0.00
   11    7    1      3.26      0.00
   12    7    1      4.66      0.00
   13    7    1     -3.49      0.00
   14    7    1      2.97      0.00
   15    7    1     -1.76      0.00
   16    7    1      2.35      0.00
   17    7    1      0.15      0.00
  -17    8    1      1.38      0.00
  -16    8    1      0.27      0.00
  -15    8    1      0.87      0.00
  -14    8    1      4.02      0.00
  -13    8    1      5.94      0.00
  -12    8    1      1.96      0.00
  -11    8    1     -2.23      0.00
  -10    8    1     -1.92      0.00
   -9    8    1     -1.16      0.00
   -8    8    1     -2.57      0.00
   -7    8    1     -0.40      0.00
   -6    8    1     -5.12      0.00
   -5    8    1      5.24      0.00
   -4    8    1      0.90      0.00
   -3    8    1     -5.84      0.00
   -2    8    1      1.28      0.00
   -1    8    1    -10.06      0.00
    0    8    1      3.50      0.00
    1    8    1      4.73      0.00
    2    8    1     -0.34      0.00
    3    8    1     -1.38      0.00
    4    8    1     -3.46      0.00
    5    8    1     -1.19      0.00
    6    8    1     -3.45      0.00
    7    8    1      3.67      0.00
    8    8    1     -2.08      0.00
    9    8    1      6.24      0.00
   10    8    1     -0.18      0.00
   11    8    1      1.36      0.00
   12    8    1      3.17      0.00
   13    8    1     -6.14      0.00
   14    8    1      3.97      0.00
   15    8    1     -1.53      0.00
   16    8    1     -0.74      0.00
  -16    9    1      0.71      0.00
  -15    9    1     -1.06      0.00
  -14    9    1     -2.60      0.00
  -13    9    1     -3.20      0.00
  -12    9    1     -4.68      0.00
  -11    9    1     -2.54      0.00
  -10    9    1     -0.77      0.00
   -9    9    1      6.51      0.00
   -8    9    1     -1.46      0.00
   -7    9    1      3.76      0.00
   -6    9    1     -0.20      0.00
   -5    9    1      3.30      0.00
   -4    9    1      3.12      0.00
   -3    9    1     -8.32      0.00
   -2    9    1     12.10      0.00
   -1    9    1     -2.47      0.00
    0    9    1      0.94      0.00
    1    9    1     -3.51      0.00
    2    9    1     -8.35      0.00
    3    9    1     -4.78      0.00
    4    9    1     -1.27      0.00
    5    9    1      5.36      0.00
    6    9    1      0.02      0.00
    7    9    1      2.25      0.00
    8    9    1     -0.84      0.00
    9    9    1      4.31      0.00
   10    9    1     -2.14      0.00
   11    9    1     -4.50      0.00
   12    9    1      4.54      0.00
   13    9    1     -2.72      0.00
   14    9    1      1.10      0.00
   15    9    1      0.17      0.00
   16    9    1      0.31      0.00
  -15   10    1     -0.47      0.00
  -14   10    1     -1.19      0.00
  -13   10    1      2.83      0.00
  -12   10    1      3.18      0.00
  -11   10    1      4.45      0.00
  -10   10    1     -1.43      0.00
   -9   10    1      2.49      0.00
   -8   10    1     -3.19      0.00
   -7   10    1     -0.13      0.00
   -6   10    1     -1.24      0.00
   -5   10    1     -5.84      0.00
   -4   10    1      5.69      0.00
   -3   10    1    -10.26      0.00
   -2   10    1      2.86      0.00
   -1   10    1     -5.88      0.00
    0   10    1     -3.24      0.00
    1   10    1      4.78      0.00
    2   10    1      4.94      0.00
    3   10    1      9.60      0.00
    4   10    1      4.02      0.00
    5   10    1      2.47      0.00
    6   10    1     -0.45      0.00
    7   10    1     -0.50      0.00
    8   10    1     -3.05      0.00
    9   10    1     -1.00      0.00
   10   10    1      0.87      0.00
   11   10    1     -2.65      0.00
   12   10    1      2.13      0.00
   13   10    1     -0.87      0.00
   14   10    1     -1.63      0.00
   15   10    1      1.14      0.00
  -14   11    1     -1.29      0.00
  -13   11    1      1.25      0.00
  -12   11    1     -1.82      0.00
  -11   11    1     -1.65      0.00
  -10   11    1     -2.43      0.00
   -9   11    1      0.67      0.00
   -8   11    1      0.75      0.00
   -7   11    1     -1.13      0.00
   -6   11    1      2.76      0.00
   -5   11    1     -4.60      0.00
   -4   11    1      9.58      0.00
   -3   11    1     -1.98      0.00
   -2   11    1      4.05      0.00
   -1   11    1      7.23      0.00
    0   11    1      1.50      0.00
    1   11    1      5.15      0.00
    2   11    1     -4.25      0.00
    3   11    1     -4.64      0.00
    4   11    1     -7.98      0.00
    5   11    1     -6.15      0.00
    6   11    1     -1.42      0.00
    7   11    1     -0.66      0.00
    8   11    1     -1.15      0.00
    9   11    1      0.88      0.00
   10   11    1      1.52      0.00
   11   11    1     -0.92      0.00
   12   11    1     -0.02      0.00
   13   11    1      2.56      0.00
   14   11    1      0.10      0.00
  -13   12    1      1.65      0.00
  -12   12    1      0.30      0.00
  -11   12    1     -0.31      0.00
  -10   12    1      0.36      0.00
   -9   12    1     -0.74      0.00
   -8   12    1      0.86      0.00
   -7   12    1     -1.82      0.00
   -6   12    1      4.19      0.00
   -5   12    1     -3.38      0.00
   -4   12    1      3.14      0.00
   -3   12    1     -0.43      0.00
   -2   12    1     -4.34      0.00
   -1   12    1      0.25      0.00
    0   12    1     -7.26      0.00
    1   12    1     -3.82      0.00
    2   12    1     -2.65      0.00
    3   12    1      0.53      0.00
    4   12    1      6.21      0.00
    5   12    1      3.30      0.00
    6   12    1      4.67      0.00
    7   12    1      4.21      0.00
    8   12    1     -0.27      0.00
    9   12    1      0.83      0.00
   10   12    1     -0.60      0.00
   11   12    1      1.89      0.00
   12   12    1     -1.07      0.00
   13   12    1     -0.81      0.00
  -12   13    1      0.35      0.00
  -11   13    1      0.21      0.00
  -10   13    1     -0.12      0.00
   -9   13    1      0.63      0.00
   -8   13    1      2.33      0.00
   -7   13    1     -0.64      0.00
   -6   13    1      0.69      0.00
   -5   13    1     -2.64      0.00
   -4   13    1     -2.46      0.00
   -3   13    1     -0.65      0.00
   -2   13    1     -5.05      0.00
   -1   13    1      0.77      0.00
    0   13    1      2.47      0.00
    1   13    1      2.24      0.00
    2   13    1      7.49      0.00
    3   13    1     -2.04      0.00
    4   13    1      1.84      0.00
    5   13    1     -3.16      0.00
    6   13    1     -3.30      0.00
    7   13    1     -0.42      0.00
    8   13    1     -3.87      0.00
    9   13    1      1.00      0.00
   10   13    1     -1.37      0.00
   11   13    1      0.79      0.00
  -10   14    1     -1.52      0.00
   -9   14    1     -0.71      0.00
   -8   14    1     -1.93      0.00
   -7   14    1     -1.85      0.00
   -6   14    1     -2.02      0.00
   -5   14    1     -0.68      0.00
   -4   14    1      0.10      0.00
   -3   14    1      3.66      0.00
   -2   14    1      2.93      0.00
   -1   14    1      1.02      0.00
    0   14    1      3.80      0.00
    1   14    1     -3.73      0.00
    2   14    1      0.77      0.00
    3   14    1     -4.92      0.00
    4   14    1      0.22      0.00
    5   14    1      1.36      0.00
    6   14    1     -2.31      0.00
    7   14    1      3.95      0.00
    8   14    1     -0.78      0.00
    9   14    1      1.84      0.00
   -7   15    1      3.64      0.00
   -6   15    1      3.37      0.00
   -5   15    1      1.93      0.00
   -4   15    1      2.03      0.00
   -3   15    1      0.21      0.00
   -2   15    1      1.66      0.00
   -1   15    1     -4.34      0.00
    0   15    1      0.05      0.00
    1   15    1     -3.40      0.00
    2   15    1      0.12      0.00
    3   15    1      2.06      0.00
    4   15    1     -1.48      0.00
    5   15    1      2.02      0.00
    6   15    1     -3.49      0.00
    7   15    1      2.25      0.00
   -3   16    1     -3.85      0.00
   -2   16    1      0.33      0.00
   -1   16    1     -0.68      0.00
    1   16    1      0.61      0.00
    2   16    1     -0.16      0.00
    3   16    1      2.73      0.00
  -20    0    2      1.44      0.00
  -18    0    2     -2.08      0.00
  -16    0    2     -6.87      0.00
  -14    0    2     -6.67      0.00
  -12    0    2      4.82      0.00
  -10    0    2      8.16      0.00
   -8    0    2      8.75      0.00
   -6    0    2     22.23      0.00
   -4    0    2     30.02      0.00
   -2    0    2    -21.08      0.00
    0    0    2   -149.46      0.00
    2    0    2     -3.95      0.00
    4    0    2      8.98      0.00
    6    0    2     24.17      0.00
    8    0    2     -5.58      0.00
   10    0    2      4.82      0.00
   12    0    2      2.16      0.00
   14    0    2     -2.63      0.00
   16    0    2      0.88      0.00
   18    0    2     -0.92      0.00
  -20    1    2     -1.54      0.00
  -19    1    2      0.08      0.00
  -18    1    2     -1.66      0.00
  -17    1    2      2.97      0.00
  -16    1    2     -3.20      0.00
  -15    1    2      7.11      0.00
  -14    1    2      3.33      0.00
  -13    1    2     -1.33      0.00
  -12    1    2      4.22      0.00
  -11    1    2     -5.13      0.00
  -10    1    2      1.23      0.00
   -9    1    2     -3.38      0.00
   -8    1    2      1.09      0.00
   -7    1    2     -7.44      0.00
   -6    1    2     -9.99      0.00
   -5    1    2    -20.50      0.00
   -4    1    2    -14.73      0.00
   -3    1    2    -33.52      0.00
   -2    1    2    -53.39      0.00
   -1    1    2     75.82      0.00
    0    1    2     32.78      0.00
    1    1    2     46.92      0.00
    2    1    2     35.46      0.00
    3    1    2      2.40      0.00
    4    1    2     17.69      0.00
    5    1    2    -16.50      0.00
    6    1    2     -4.22      0.00
    7    1    2      2.42      0.00
    8    1    2     -7.74      0.00
    9    1    2     -1.10      0.00
   10    1    2     -1.67      0.00
   11    1    2     -4.59      0.00
   12    1    2     -2.87      0.00
   13    1    2     -1.65      0.00
   14    1    2      1.12      0.00
   15    1    2      0.87      0.00
   16    1    2      2.88      0.00
   17    1    2      0.54      0.00
   18    1    2     -0.67      0.00
   19    1    2      0.21      0.00
  -19    2    2      1.95      0.00
  -18    2    2     -1.54      0.00
  -17    2    2      1.81      0.00
  -16    2    2     -2.59      0.00
  -15    2    2     -0.22      0.00
  -14    2    2      1.04      0.00
  -13    2    2     -6.83      0.00
  -12    2    2      1.64      0.00
  -11    2    2     -0.07      0.00
  -10    2    2      2.52      0.00
   -9    2    2      2.60      0.00
   -8    2    2     -9.43      0.00
   -7    2    2     -1.07      0.00
   -6    2    2      7.34      0.00
   -5    2    2      4.59      0.00
   -4    2    2     19.90      0.00
   -3    2    2     30.61      0.00
   -2    2    2     24.76      0.00
   -1    2    2     38.77      0.00
    0    2    2     -5.51      0.00
    1    2    2    -63.39      0.00
    2    2    2    -13.51      0.00
    3    2    2    -14.93      0.00
    4    2    2     -7.40      0.00
    5    2    2    -10.07      0.00
    6    2    2     -8.65      0.00
    7    2    2     16.09      0.00
    8    2    2     -4.68      0.00
    9    2    2     -0.97      0.00
   10    2    2      4.90      0.00
   11    2    2      1.63      0.00
   12    2    2      6.64      0.00
   13    2    2      1.90      0.00
   14    2    2      2.40      0.00
   15    2    2     -3.56      0.00
   16    2    2     -0.58      0.00
   17    2    2     -0.17      0.00
   18    2    2     -2.14      0.00
   19    2    2      0.18      0.00
  -19    3    2      1.09      0.00
  -18    3    2      0.18      0.00
  -17    3    2      2.01      0.00
  -16    3    2     -0.39      0.00
  -15    3    2     -1.70      0.00
  -14    3    2      5.28      0.00
  -13    3    2     -1.80      0.00
  -12    3    2     -1.05      0.00
  -11    3    2      0.87      0.00
  -10    3    2     -7.14      0.00
   -9    3    2      1.28      0.00
   -8    3    2     -1.62      0.00
   -7    3    2      5.46      0.00
   -6    3    2     14.41      0.00
   -5    3    2    -11.05      0.00
   -4    3    2     11.80      0.00
   -3    3    2    -10.16      0.00
   -2    3    2    -30.33      0.00
   -1    3    2    -44.76      0.00
    0    3    2      7.13      0.00
    1    3    2      4.51      0.00
    2    3    2      9.13      0.00
    3    3    2     19.17      0.00
    4    3    2      3.76      0.00
    5    3    2     13.50      0.00
    6    3    2    -12.87      0.00
    7    3    2     10.87      0.00
    8    3    2      2.12      0.00
    9    3    2     -4.75      0.00
   10    3    2      3.32      0.00
   11    3    2     -3.82      0.00
   12    3    2     -0.19      0.00
   13    3    2     -7.76      0.00
   14    3    2     -1.17      0.00
   15    3    2     -1.42      0.00
   16    3    2      0.37      0.00
   17    3    2      2.89      0.00
   18    3    2     -0.06      0.00
  -19    4    2     -0.55      0.00
  -18    4    2     -1.35      0.00
  -17    4    2     -1.54      0.00
  -16    4    2     -1.61      0.00
  -15    4    2     -2.33      0.00
  -14    4    2      2.70      0.00
  -13    4    2      1.31      0.00
  -12    4    2     -4.30      0.00
  -11    4    2      5.52      0.00
  -10    4    2      1.32      0.00
   -9    4    2     10.59      0.00
   -8    4    2      5.69      0.00
   -7    4    2    -14.68      0.00
   -6    4    2      9.89      0.00
   -5    4    2    -16.63      0.00
   -4    4    2     -0.39      0.00
   -3    4    2    -16.50      0.00
   -2    4    2      3.55      0.00
   -1    4    2     12.10      0.00
    0    4    2     15.75      0.00
    1    4    2     11.42      0.00
    2    4    2    -29.10      0.00
    3    4    2      8.78      0.00
    4    4    2     -7.03      0.00
    6    4    2     -9.20      0.00
    7    4    2      1.00      0.00
    8    4    2      5.97      0.00
    9    4    2     -7.13      0.00
   10    4    2      1.06      0.00
   11    4    2     -4.10      0.00
   12    4    2      3.70      0.00
   13    4    2      1.57      0.00
   14    4    2      5.00      0.00
   15    4    2      2.04      0.00
   16    4    2     -1.26      0.00
   17    4    2      1.33      0.00
   18    4    2     -2.45      0.00
  -19    5    2     -0.77      0.00
  -18    5    2      1.30      0.00
  -17    5    2      2.46      0.00
  -16    5    2      2.08      0.00
  -15    5    2      0.75      0.00
  -14    5    2     -0.03      0.00
  -13    5    2      4.33      0.00
  -12    5    2     -4.96      0.00
  -11    5    2      2.49      0.00
  -10    5    2     -4.17      0.00
   -9    5    2     -8.70      0.00
   -8    5    2     -0.61      0.00
   -7    5    2    -16.53      0.00
   -6    5    2     11.22      0.00
   -5    5    2     -8.02      0.00
   -4    5    2      5.70      0.00
   -3    5    2     15.08      0.00
   -2    5    2     14.90      0.00
   -1    5    2      9.46      0.00
    0    5    2    -16.83      0.00
    1    5    2     20.80      0.00
    2    5    2    -12.31      0.00
    3    5    2     11.32      0.00
    4    5    2     -0.70      0.00
    5    5    2      2.09      0.00
    6    5    2     -5.90      0.00
    7    5    2     -8.64      0.00
    8    5    2      5.79      0.00
    9    5    2     -3.21      0.00
   10    5    2      2.21      0.00
   11    5    2      1.45      0.00
   12    5    2      4.91      0.00
   13    5    2     -2.38      0.00
   14    5    2     -3.02      0.00
   15    5    2     -1.62      0.00
   16    5    2     -2.42      0.00
   17    5    2      1.12      0.00
   18    5    2     -0.23      0.00
  -18    6    2      0.23      0.00
  -17    6    2     -0.96      0.00
  -16    6    2     -2.89      0.00
  -15    6    2     -2.21      0.00
  -14    6    2     -3.75      0.00
  -13    6    2      3.83      0.00
  -12    6    2     -3.21      0.00
  -11    6    2     -2.04      0.00
  -10    6    2      1.69      0.00
   -9    6    2     -0.27      0.00
   -8    6    2     16.61      0.00
   -7    6    2     -1.21      0.00
   -6    6    2      8.27      0.00
   -5    6    2      8.12      0.00
   -4    6    2      5.13      0.00
   -3    6    2     -3.10      0.00
   -2    6    2    -19.62      0.00
   -1    6    2     -4.55      0.00
    0    6    2    -20.64      0.00
    1    6    2     10.98      0.00
    2    6    2    -12.50      0.00
    3    6    2     -7.93      0.00
    4    6    2     -1.56      0.00
    5    6    2     -0.71      0.00
    6    6    2      5.62      0.00
    7    6    2     -0.37      0.00
    8    6    2      6.16      0.00
    9    6    2      3.15      0.00
   10    6    2      0.32      0.00
   11    6    2     -2.52      0.00
   12    6    2     -0.99      0.00
   13    6    2     -2.61      0.00
   14    6    2      0.62      0.00
   15    6    2      2.39      0.00
   16    6    2      0.56      0.00
   17    6    2     -0.13      0.00
  -18    7    2     -1.54      0.00
  -17    7    2      1.18      0.00
  -16    7    2      0.74      0.00
  -15    7    2      2.17      0.00
  -14    7    2     -0.61      0.00
  -13    7    2      2.90      0.00
  -12    7    2      1.57      0.00
  -11    7    2     -1.41      0.00
  -10    7    2      5.01      0.00
   -9    7    2     -3.59      0.00
   -8    7    2      0.95      0.00
   -7    7    2     -7.45      0.00
   -6    7    2     -7.26      0.00
   -5    7    2     -5.35      0.00
   -4    7    2    -10.44      0.00
   -3    7    2     -7.04      0.00
   -2    7    2      1.62      0.00
   -1    7    2     17.23      0.00
    0    7    2      0.63      0.00
    1    7    2     10.86      0.00
    2    7    2      5.83      0.00
    3    7    2     -0.17      0.00
    4    7    2      8.24      0.00
    5    7    2      3.48      0.00
    6    7    2      0.73      0.00
    7    7    2     -4.00      0.00
    8    7    2     -5.69      0.00
    9    7    2      0.48      0.00
   10    7    2     -5.08      0.00
   11    7    2     -4.83      0.00
   12    7    2      3.67      0.00
   13    7    2      1.76      0.00
   14    7    2      0.27      0.00
   15    7    2     -0.48      0.00
   16    7    2      0.75      0.00
   17    7    2     -0.81      0.00
  -17    8    2      1.30      0.00
  -16    8    2     -0.98      0.00
  -15    8    2     -0.75      0.00
  -14    8    2     -3.24      0.00
  -13    8    2     -0.72      0.00
  -12    8    2      4.11      0.00
  -11    8    2     -1.33      0.00
  -10    8    2     -1.28      0.00
   -9    8    2     -3.93      0.00
   -8    8    2      0.03      0.00
   -7    8    2      2.11      0.00
   -6    8    2     -0.81      0.00
   -5    8    2      2.70      0.00
   -4    8    2     12.76      0.00
   -3    8    2      7.25      0.00
   -2    8    2      3.08      0.00
   -1    8    2     -0.89      0.00
    0    8    2     -8.01      0.00
    1    8    2     -3.90      0.00
    2    8    2      0.58      0.00
    3    8    2     -5.32      0.00
    4    8    2     -3.85      0.00
    5    8    2     -2.31      0.00
    6    8    2     -4.34      0.00
    7    8    2      4.69      0.00
    8    8    2     -3.23      0.00
    9    8    2      4.43      0.00
   10    8    2      5.12      0.00
   11    8    2      0.25      0.00
   12    8    2      4.92      0.00
   13    8    2     -1.25      0.00
   14    8    2     -1.48      0.00
   15    8    2     -0.14      0.00
   16    8    2      0.94      0.00
  -16    9    2      0.65      0.00
  -15    9    2      2.97      0.00
  -14    9    2      1.16      0.00
  -13    9    2     -0.92      0.00
  -12    9    2     -0.20      0.00
  -11    9    2     -2.70      0.00
  -10    9    2     -2.55      0.00
   -9    9    2      2.53      0.00
   -8    9    2      3.52      0.00
   -7    9    2      2.22      0.00
   -6    9    2      2.34      0.00
   -5    9    2     -3.29      0.00
   -4    9    2      3.34      0.00
   -3    9    2    -10.00      0.00
   -2    9    2     -6.09      0.00
   -1    9    2      1.30      0.00
    0    9    2      1.95      0.00
    1    9    2      3.35      0.00
    2    9    2      2.69      0.00
    3    9    2      0.22      0.00
    4    9    2     -3.37      0.00
    5    9    2      5.65      0.00
    6    9    2     -0.65      0.00
    7    9    2      5.70      0.00
    8    9    2     -3.09      0.00
    9    9    2     -0.52      0.00
   10    9    2      3.23      0.00
   11    9    2     -7.78      0.00
   12    9    2     -0.78      0.00
   13    9    2     -0.70      0.00
   14    9    2     -0.61      0.00
   15    9    2     -0.62      0.00
  -15   10    2     -0.69      0.00
  -14   10    2     -1.13      0.00
  -13   10    2     -1.46      0.00
  -12   10    2      1.10      0.00
  -11   10    2      4.24      0.00
  -10   10    2      1.74      0.00
   -9   10    2      0.86      0.00
   -8   10    2     -0.39      0.00
   -7   10    2     -3.82      0.00
   -6   10    2      1.68      0.00
   -5   10    2     -8.92      0.00
   -4   10    2      3.35      0.00
   -3   10    2      0.56      0.00
   -2   10    2      1.05      0.00
   -1   10    2      3.16      0.00
    0   10    2     -4.50      0.00
    1   10    2     -2.43      0.00
    2   10    2     -4.67      0.00
    3   10    2      3.31      0.00
    4   10    2     -0.65      0.00
    5   10    2      3.83      0.00
    6   10    2     -4.28      0.00
    7   10    2      1.36      0.00
    8   10    2     -1.30      0.00
    9   10    2     -4.90      0.00
   10   10    2      3.68      0.00
   11   10    2     -1.83      0.00
   12   10    2      2.17      0.00
   13   10    2      1.38      0.00
   14   10    2      1.46      0.00
   15   10    2      1.11      0.00
  -14   11    2      0.49      0.00
  -13   11    2     -0.01      0.00
  -12   11    2     -0.73      0.00
  -11   11    2     -1.41      0.00
  -10   11    2     -3.76      0.00
   -9   11    2     -3.44      0.00
   -8   11    2      0.85      0.00
   -7   11    2     -2.77      0.00
   -6   11    2      6.15      0.00
   -5   11    2     -3.67      0.00
   -4   11    2      3.59      0.00
   -3   11    2      3.05      0.00
   -2   11    2     -3.04      0.00
   -1   11    2      1.59      0.00
    0   11    2     -0.16      0.00
    1   11    2      5.99      0.00
    2   11    2      1.51      0.00
    3   11    2      4.20      0.00
    4   11    2     -2.63      0.00
    5   11    2     -0.75      0.00
    6   11    2     -3.66      0.00
    7   11    2      0.42      0.00
    8   11    2      2.15      0.00
    9   11    2     -1.79      0.00
   10   11    2      3.92      0.00
   11   11    2     -0.35      0.00
   12   11    2     -0.47      0.00
   13   11    2     -2.24      0.00
   14   11    2      0.34      0.00
  -13   12    2     -0.08      0.00
  -12   12    2      0.67      0.00
  -11   12    2      1.91      0.00
  -10   12    2      2.76      0.00
   -9   12    2      1.25      0.00
   -8   12    2      4.24      0.00
   -7   12    2     -2.16      0.00
   -6   12    2      4.42      0.00
   -5   12    2     -2.20      0.00
   -4   12    2     -1.95      0.00
   -3   12    2      1.44      0.00
   -2   12    2     -1.62      0.00
   -1   12    2      1.64      0.00
    0   12    2     -0.77      0.00
    1   12    2     -1.52      0.00
    2   12    2     -4.72      0.00
    3   12    2     -3.38      0.00
    4   12    2     -1.96      0.00
    5   12    2      2.32      0.00
    6   12    2      0.92      0.00
    7   12    2      1.94      0.00
    8   12    2      3.53      0.00
    9   12    2     -1.34      0.00
   10   12    2     -1.04      0.00
   11   12    2     -0.94      0.00
   12   12    2      1.73      0.00
  -12   13    2     -0.13      0.00
  -11   13    2      0.06      0.00
  -10   13    2     -0.32      0.00
   -9   13    2     -3.83      0.00
   -8   13    2      0.55      0.00
   -7   13    2     -2.54      0.00
   -6   13    2      1.15      0.00
   -5   13    2      0.72      0.00
   -4   13    2     -0.36      0.00
   -3   13    2      2.35      0.00
   -2   13    2     -0.02      0.00
   -1   13    2     -1.70      0.00
    0   13    2     -1.44      0.00
    1   13    2     -0.10      0.00
    2   13    2      3.67      0.00
    3   13    2      4.01      0.00
    4   13    2      0.55      0.00
    5   13    2      1.73      0.00
    6   13    2     -2.08      0.00
    7   13    2     -1.88      0.00
    8   13    2     -1.60      0.00
    9   13    2     -1.30      0.00
   10   13    2     -0.43      0.00
   11   13    2      0.12      0.00
  -10   14    2      1.19      0.00
   -9   14    2     -0.85      0.00
   -8   14    2      1.47      0.00
   -7   14    2     -0.95      0.00
   -6   14    2      0.51      0.00
   -5   14    2     -0.20      0.00
   -4   14    2     -2.37      0.00
   -3   14    2     -1.61      0.00
   -2   14    2      0.30      0.00
   -1   14    2     -0.24      0.00
    0   14    2      1.46      0.00
    1   14    2      1.21      0.00
    2   14    2     -0.69      0.00
    3   14    2     -0.65      0.00
    4   14    2     -3.68      0.00
    5   14    2      1.82      0.00
    6   14    2     -1.39      0.00
    7   14    2      1.16      0.00
    8   14    2      0.94      0.00
    9   14    2      1.97      0.00
   -7   15    2     -2.34      0.00
   -6   15    2      0.28      0.00
   -5   15    2     -0.85      0.00
   -4   15    2     -0.23      0.00
   -3   15    2     -0.40      0.00
   -2   15    2      1.41      0.00
   -1   15    2      0.93      0.00
    0   15    2     -0.28      0.00
    1   15    2     -0.59      0.00
    2   15    2     -2.46      0.00
    3   15    2      1.60      0.00
    4   15    2      0.07      0.00
    5   15    2      1.96      0.00
    6   15    2     -0.94      0.00
    7   15    2      0.14      0.00
   -3   16    2      0.40      0.00
   -2   16    2     -1.38      0.00
   -1   16    2     -0.50      0.00
    0   16    2     -0.66      0.00
    1   16    2      0.80      0.00
    2   16    2     -0.83      0.00
  -19    0    3      1.55      0.00
  -17    0    3      3.55      0.00
  -15    0    3     -1.10      0.00
  -13    0    3     -5.19      0.00
  -11    0    3      3.15      0.00
   -9    0    3      0.49      0.00
   -7    0    3    -15.11      0.00
   -5    0    3    -15.66      0.00
   -3    0    3     46.80      0.00
   -1    0    3     76.80      0.00
    1    0    3    -31.51      0.00
    3    0    3     -1.47      0.00
    5    0    3    -10.68      0.00
    7    0    3      3.16      0.00
    9    0    3    -16.29      0.00
   11    0    3     -2.71      0.00
   13    0    3      4.69      0.00
   15    0    3      2.42      0.00
   17    0    3      4.01      0.00
  -20    1    3     -0.21      0.00
  -19    1    3      0.91      0.00
  -18    1    3     -1.52      0.00
  -17    1    3      0.79      0.00
  -16    1    3     -2.01      0.00
  -15    1    3     -2.34      0.00
  -14    1    3      5.86      0.00
  -13    1    3      3.08      0.00
  -12    1    3      0.34      0.00
  -11    1    3      1.26      0.00
  -10    1    3     -2.71      0.00
   -9    1    3     -3.16      0.00
   -8    1    3      5.91      0.00
   -7    1    3     -3.50      0.00
   -6    1    3     17.88      0.00
   -5    1    3      3.93      0.00
   -4    1    3      3.55      0.00
   -3    1    3     19.54      0.00
   -2    1    3    -75.10      0.00
   -1    1    3    -46.88      0.00
    0    1    3     -8.62      0.00
    1    1    3     -2.34      0.00
    2    1    3      1.83      0.00
    3    1    3     -2.15      0.00
    4    1    3     12.24      0.00
    5    1    3      4.70      0.00
    6    1    3     -5.25      0.00
    7    1    3     -5.56      0.00
    8    1    3     11.25      0.00
    9    1    3     -1.05      0.00
   10    1    3      7.80      0.00
   11    1    3      3.99      0.00
   12    1    3     -0.46      0.00
   13    1    3      1.10      0.00
   14    1    3     -3.39      0.00
   15    1    3     -0.22      0.00
   16    1    3     -2.96      0.00
   17    1    3     -0.08      0.00
   18    1    3     -0.69      0.00
  -20    2    3     -1.91      0.00
  -19    2    3      0.98      0.00
  -18    2    3     -0.81      0.00
  -17    2    3      0.97      0.00
  -16    2    3      1.11      0.00
  -15    2    3     -3.09      0.00
  -14    2    3     -0.13      0.00
  -12    2    3     -6.01      0.00
  -11    2    3     -3.30      0.00
  -10    2    3      2.76      0.00
   -9    2    3      1.73      0.00
   -8    2    3     11.64      0.00
   -7    2    3    -13.67      0.00
   -6    2    3      3.71      0.00
   -5    2    3     -7.86      0.00
   -4    2    3    -25.03      0.00
   -3    2    3      8.53      0.00
   -2    2    3     -0.53      0.00
   -1    2    3     35.54      0.00
    0    2    3     38.26      0.00
    1    2    3     13.89      0.00
    2    2    3    -12.48      0.00
    3    2    3     -3.74      0.00
    4    2    3      4.64      0.00
    5    2    3     -0.01      0.00
    6    2    3     -3.37      0.00
    7    2    3     -3.47      0.00
    8    2    3     10.91      0.00
    9    2    3     -5.39      0.00
   10    2    3     -5.06      0.00
   11    2    3     -3.27      0.00
   12    2    3     -3.98      0.00
   13    2    3      1.06      0.00
   14    2    3      0.77      0.00
   15    2    3      1.70      0.00
   16    2    3     -0.97      0.00
   17    2    3      0.90      0.00
   18    2    3      1.24      0.00
  -19    3    3     -0.24      0.00
  -18    3    3     -1.98      0.00
  -17    3    3      0.52      0.00
  -16    3    3      1.06      0.00
  -15    3    3     -2.91      0.00
  -14    3    3      0.36      0.00
  -13    3    3      5.70      0.00
  -11    3    3      3.01      0.00
  -10    3    3      6.58      0.00
   -9    3    3     -9.03      0.00
   -8    3    3      4.57      0.00
   -7    3    3    -13.00      0.00
   -5    3    3      7.84      0.00
   -4    3    3     -6.92      0.00
   -3    3    3     30.91      0.00
   -2    3    3      3.20      0.00
   -1    3    3    -12.96      0.00
    0    3    3    -33.23      0.00
    1    3    3      3.20      0.00
    2    3    3     -0.73      0.00
    3    3    3     -3.32      0.00
    4    3    3      4.35      0.00
    5    3    3      7.67      0.00
    6    3    3      2.15      0.00
    7    3    3     -9.96      0.00
    8    3    3      1.87      0.00
    9    3    3     -0.47      0.00
   10    3    3     -1.53      0.00
   11    3    3      3.10      0.00
   12    3    3      3.62      0.00
   13    3    3      0.85      0.00
   14    3    3     -0.92      0.00
   15    3    3     -0.40      0.00
   16    3    3     -1.04      0.00
   17    3    3      0.16      0.00
   18    3    3      0.26      0.00
  -19    4    3      2.23      0.00
  -18    4    3      1.01      0.00
  -17    4    3      1.46      0.00
  -16    4    3      1.56      0.00
  -15    4    3     -0.70      0.00
  -14    4    3     -0.92      0.00
  -13    4    3      0.44      0.00
  -12    4    3     -2.25      0.00
  -11    4    3     -9.96      0.00
  -10    4    3     -3.46      0.00
   -9    4    3     -8.24      0.00
   -8    4    3     11.16      0.00
   -7    4    3     -0.28      0.00
   -6    4    3     -3.28      0.00
   -5    4    3     18.28      0.00
   -4    4    3     -5.32      0.00
   -3    4    3      3.72      0.00
   -2    4    3    -17.84      0.00
   -1    4    3      7.24      0.00
    0    4    3      3.49      0.00
    1    4    3     18.54      0.00
    2    4    3      2.09      0.00
    3    4    3    -13.55      0.00
    4    4    3     -7.44      0.00
    5    4    3     -2.66      0.00
    6    4    3     -1.65      0.00
    7    4    3     -5.86      0.00
    8    4    3      2.49      0.00
    9    4    3      5.22      0.00
   10    4    3      2.31      0.00
   11    4    3     -3.06      0.00
   12    4    3     -0.04      0.00
   13    4    3     -2.31      0.00
   14    4    3      1.20      0.00
   15    4    3      2.00      0.00
   16    4    3     -0.36      0.00
   17    4    3      1.65      0.00
   18    4    3     -0.63      0.00
  -19    5    3     -1.05      0.00
  -18    5    3     -2.22      0.00
  -17    5    3     -1.22      0.00
  -16    5    3      1.14      0.00
  -15    5    3     -0.59      0.00
  -14    5    3     -2.26      0.00
  -13    5    3     -0.49      0.00
  -12    5    3      3.71      0.00
  -11    5    3      1.26      0.00
  -10    5    3      8.47      0.00
   -9    5    3      2.11      0.00
   -8    5    3      4.00      0.00
   -7    5    3      2.43      0.00
   -6    5    3     -8.64      0.00
   -5    5    3      0.69      0.00
   -4    5    3    -16.11      0.00
   -3    5    3     -5.57      0.00
   -2    5    3     -3.22      0.00
   -1    5    3     10.06      0.00
    0    5    3    -15.16      0.00
    1    5    3     -8.00      0.00
    2    5    3      2.36      0.00
    3    5    3      0.99      0.00
    4    5    3      5.16      0.00
    5    5    3     11.50      0.00
    6    5    3     10.36      0.00
    7    5    3      1.69      0.00
    8    5    3      0.05      0.00
    9    5    3     -1.68      0.00
   10    5    3      0.88      0.00
   11    5    3     -6.81      0.00
   12    5    3      3.42      0.00
   13    5    3      1.04      0.00
   14    5    3     -1.01      0.00
   15    5    3     -0.55      0.00
   16    5    3     -3.52      0.00
   17    5    3      0.59      0.00
   18    5    3     -1.39      0.00
  -18    6    3      0.90      0.00
  -17    6    3      0.89      0.00
  -16    6    3      1.15      0.00
  -15    6    3     -0.10      0.00
  -14    6    3     -1.05      0.00
  -13    6    3      0.38      0.00
  -12    6    3      3.88      0.00
  -11    6    3     -0.18      0.00
  -10    6    3     -2.45      0.00
   -9    6    3     -6.59      0.00
   -8    6    3     -3.62      0.00
   -7    6    3      2.47      0.00
   -6    6    3     -5.79      0.00
   -5    6    3     -2.32      0.00
   -4    6    3     12.87      0.00
   -3    6    3     12.90      0.00
   -2    6    3      1.99      0.00
   -1    6    3      8.34      0.00
    0    6    3     -2.37      0.00
    1    6    3      8.82      0.00
    2    6    3      9.28      0.00
    3    6    3      1.90      0.00
    4    6    3     -6.59      0.00
    5    6    3     -6.73      0.00
    6    6    3     -4.82      0.00
    7    6    3     -7.62      0.00
    8    6    3     -3.16      0.00
    9    6    3     -4.74      0.00
   10    6    3      6.88      0.00
   11    6    3     -1.80      0.00
   12    6    3      0.94      0.00
   13    6    3      0.89      0.00
   14    6    3     -2.75      0.00
   15    6    3      3.00      0.00
   16    6    3      0.65      0.00
   17    6    3      2.08      0.00
  -18    7    3     -0.42      0.00
  -17    7    3     -0.47      0.00
  -16    7    3      0.10      0.00
  -15    7    3      2.06      0.00
  -14    7    3      0.30      0.00
  -13    7    3     -1.58      0.00
  -12    7    3     -1.62      0.00
  -11    7    3     -1.43      0.00
  -10    7    3     -0.35      0.00
   -9    7    3      1.22      0.00
   -8    7    3      3.29      0.00
   -7    7    3      1.69      0.00
   -6    7    3      7.88      0.00
   -5    7    3     -2.30      0.00
   -4    7    3      2.82      0.00
   -3    7    3     -5.82      0.00
   -2    7    3    -16.10      0.00
   -1    7    3      3.09      0.00
    0    7    3     -7.34      0.00
    1    7    3     -4.19      0.00
    2    7    3     -6.33      0.00
    3    7    3     -4.17      0.00
    4    7    3     -4.90      0.00
    5    7    3      0.57      0.00
    6    7    3      7.07      0.00
    7    7    3      3.14      0.00
    8    7    3      6.88      0.00
    9    7    3     -0.73      0.00
   10    7    3      7.47      0.00
   11    7    3     -2.57      0.00
   12    7    3     -4.27      0.00
   13    7    3      4.62      0.00
   14    7    3     -1.50      0.00
   15    7    3      1.14      0.00
   16    7    3     -2.25      0.00
   17    7    3     -1.21      0.00
  -17    8    3      0.17      0.00
  -16    8    3     -1.45      0.00
  -15    8    3      0.49      0.00
  -14    8    3     -2.01      0.00
  -13    8    3     -3.68      0.00
  -12    8    3     -0.65      0.00
  -11    8    3      2.52      0.00
  -10    8    3      3.55      0.00
   -9    8    3     -3.18      0.00
   -8    8    3      2.18      0.00
   -7    8    3     -4.51      0.00
   -6    8    3      4.48      0.00
   -5    8    3    -10.88      0.00
   -4    8    3     -4.77      0.00
   -3    8    3     10.72      0.00
   -2    8    3     -2.71      0.00
   -1    8    3     11.00      0.00
    0    8    3     -3.12      0.00
    1    8    3      1.45      0.00
    2    8    3      3.11      0.00
    3    8    3      5.82      0.00
    4    8    3      4.39      0.00
    5    8    3      1.15      0.00
    6    8    3      0.14      0.00
    7    8    3     -2.76      0.00
    8    8    3      1.04      0.00
    9    8    3     -8.89      0.00
   10    8    3     -0.29      0.00
   11    8    3      0.08      0.00
   12    8    3     -3.32      0.00
   13    8    3      3.51      0.00
   14    8    3     -2.60      0.00
   15    8    3      0.22      0.00
   16    8    3      1.53      0.00
  -16    9    3     -1.42      0.00
  -15    9    3      0.73      0.00
  -14    9    3      2.89      0.00
  -13    9    3      2.75      0.00
  -12    9    3      3.55      0.00
  -11    9    3     -0.44      0.00
  -10    9    3      1.79      0.00
   -9    9    3     -6.91      0.00
   -8    9    3      3.22      0.00
   -7    9    3     -4.61      0.00
   -6    9    3      2.81      0.00
   -5    9    3      1.32      0.00
   -4    9    3     -2.10      0.00
   -3    9    3      9.92      0.00
   -2    9    3    -11.69      0.00
   -1    9    3      1.62      0.00
    0    9    3     -1.48      0.00
    1    9    3      2.55      0.00
    2    9    3      3.40      0.00
    3    9    3      0.97      0.00
    4    9    3     -2.52      0.00
    5    9    3     -3.07      0.00
    6    9    3     -2.05      0.00
    7    9    3     -1.22      0.00
    8    9    3      2.48      0.00
    9    9    3     -2.24      0.00
   10    9    3      3.12      0.00
   11    9    3      4.13      0.00
   12    9    3     -2.48      0.00
   13    9    3      0.83      0.00
   14    9    3      1.00      0.00
   15    9    3     -0.60      0.00
  -15   10    3     -0.49      0.00
  -14   10    3      0.90      0.00
  -13   10    3     -2.89      0.00
  -12   10    3     -3.24      0.00
  -11   10    3     -4.17      0.00
  -10   10    3      3.15      0.00
   -9   10    3     -2.03      0.00
   -8   10    3      3.76      0.00
   -7   10    3      0.11      0.00
   -6   10    3      2.02      0.00
   -5   10    3      5.08      0.00
   -4   10    3     -7.90      0.00
   -3   10    3      7.40      0.00
   -2   10    3     -0.60      0.00
   -1   10    3      4.43      0.00
    0   10    3      2.44      0.00
    1   10    3     -3.64      0.00
    2   10    3     -4.95      0.00
    3   10    3     -5.24      0.00
    4   10    3     -3.58      0.00
    5   10    3      2.45      0.00
    6   10    3     -0.39      0.00
    7   10    3      0.85      0.00
    8   10    3      4.00      0.00
    9   10    3     -0.61      0.00
   10   10    3     -1.84      0.00
   11   10    3      0.50      0.00
   12   10    3      0.19      0.00
   13   10    3     -1.55      0.00
   14   10    3      1.44      0.00
  -14   11    3      0.99      0.00
  -13   11    3      0.17      0.00
  -12   11    3      2.40      0.00
  -11   11    3      2.18      0.00
  -10   11    3      1.96      0.00
   -9   11    3     -0.99      0.00
   -8   11    3     -0.14      0.00
   -7   11    3     -0.63      0.00
   -6   11    3     -2.58      0.00
   -5   11    3      2.70      0.00
   -4   11    3     -7.40      0.00
   -3   11    3     -0.05      0.00
   -2   11    3     -2.31      0.00
   -1   11    3     -7.35      0.00
    0   11    3     -2.92      0.00
    1   11    3     -2.47      0.00
    2   11    3      3.27      0.00
    3   11    3      7.00      0.00
    4   11    3      3.22      0.00
    5   11    3      5.92      0.00
    6   11    3      0.30      0.00
    7   11    3     -1.43      0.00
    8   11    3      1.02      0.00
    9   11    3     -1.41      0.00
   10   11    3     -0.15      0.00
   11   11    3     -0.72      0.00
   12   11    3      1.77      0.00
   13   11    3     -2.87      0.00
  -13   12    3     -1.02      0.00
  -12   12    3     -1.63      0.00
  -11   12    3     -0.86      0.00
  -10   12    3     -0.64      0.00
   -9   12    3      0.02      0.00
   -8   12    3     -0.72      0.00
   -7   12    3     -0.97      0.00
   -6   12    3     -1.90      0.00
   -5   12    3      2.75      0.00
   -4   12    3      0.07      0.00
   -3   12    3     -0.96      0.00
   -2   12    3      4.82      0.00
   -1   12    3      2.65      0.00
    0   12    3      5.70      0.00
    1   12    3      5.71      0.00
    2   12    3     -0.47      0.00
    3   12    3      0.62      0.00
    4   12    3     -7.23      0.00
    5   12    3     -2.97      0.00
    6   12    3     -2.70      0.00
    7   12    3     -4.93      0.00
    8   12    3      0.88      0.00
    9   12    3     -0.26      0.00
   10   12    3      1.85      0.00
   11   12    3     -2.67      0.00
   12   12    3      1.80      0.00
  -12   13    3     -0.20      0.00
  -11   13    3      0.14      0.00
  -10   13    3      1.06      0.00
   -9   13    3     -0.45      0.00
   -8   13    3      0.48      0.00
   -7   13    3      0.13      0.00
   -6   13    3      0.81      0.00
   -5   13    3      1.03      0.00
   -4   13    3      3.13      0.00
   -3   13    3     -0.35      0.00
   -2   13    3      2.85      0.00
   -1   13    3      0.55      0.00
    0   13    3     -5.89      0.00
    1   13    3     -2.72      0.00
    2   13    3     -8.70      0.00
    3   13    3      3.38      0.00
    4   13    3     -0.53      0.00
    5   13    3      2.11      0.00
    6   13    3      4.78      0.00
    7   13    3      0.25      0.00
    8   13    3      3.13      0.00
    9   13    3     -1.16      0.00
   10   13    3      2.00      0.00
  -10   14    3      1.11      0.00
   -9   14    3      0.14      0.00
   -8   14    3      2.79      0.00
   -7   14    3     -0.37      0.00
   -6   14    3      1.49      0.00
   -5   14    3     -0.36      0.00
   -4   14    3     -0.13      0.00
   -3   14    3     -2.50      0.00
   -2   14    3     -4.33      0.00
   -1   14    3      0.54      0.00
    0   14    3     -2.79      0.00
    1   14    3      5.58      0.00
    2   14    3      0.75      0.00
    3   14    3      4.38      0.00
    4   14    3     -0.08      0.00
    5   14    3     -1.37      0.00
    6   14    3      1.48      0.00
    7   14    3     -3.15      0.00
    8   14    3      0.36      0.00
    9   14    3     -2.57      0.00
   -7   15    3     -3.33      0.00
   -6   15    3     -1.96      0.00
   -5   15    3     -1.50      0.00
   -4   15    3     -1.69      0.00
   -3   15    3      1.59      0.00
   -2   15    3     -2.05      0.00
   -1   15    3      4.32      0.00
    0   15    3      0.50      0.00
    1   15    3      2.01      0.00
    2   15    3     -1.33      0.00
    3   15    3     -3.06      0.00
    4   15    3      0.29      0.00
    5   15    3     -0.97      0.00
    6   15    3      1.57      0.00
   -2   16    3     -0.70      0.00
   -1   16    3      0.35      0.00
    0   16    3     -1.94      0.00
  -20    0    4     -0.72      0.00
  -18    0    4      1.06      0.00
  -16    0    4      9.05      0.00
  -14    0    4      5.38      0.00
  -12    0    4     -5.58      0.00
  -10    0    4     -7.36      0.00
   -8    0    4     -4.15      0.00
   -6    0    4     -7.67      0.00
   -4    0    4    -31.00      0.00
   -2    0    4     18.80      0.00
    0    0    4     64.08      0.00
    2    0    4     -0.85      0.00
    4    0    4     -9.74      0.00
    6    0    4    -11.05      0.00
    8    0    4     10.75      0.00
   10    0    4     -1.47      0.00
   12    0    4     -0.49      0.00
   14    0    4     -0.20      0.00
   16    0    4     -2.52      0.00
   18    0    4     -0.16      0.00
  -20    1    4      1.35      0.00
  -19    1    4      0.19      0.00
  -18    1    4      2.07      0.00
  -17    1    4     -2.70      0.00
  -16    1    4      2.65      0.00
  -15    1    4     -8.25      0.00
  -14    1    4     -5.91      0.00
  -13    1    4      1.94      0.00
  -12    1    4     -3.52      0.00
  -11    1    4      3.59      0.00
  -10    1    4     -0.36      0.00
   -9    1    4      0.48      0.00
   -8    1    4      6.74      0.00
   -7    1    4     -0.19      0.00
   -6    1    4      8.37      0.00
   -5    1    4     17.37      0.00
   -4    1    4     13.26      0.00
   -3    1    4     34.89      0.00
   -2    1    4     29.85      0.00
   -1    1    4    -40.15      0.00
    0    1    4    -37.60      0.00
    1    1    4    -11.46      0.00
    2    1    4    -17.22      0.00
    3    1    4     -7.47      0.00
    4    1    4    -13.29      0.00
    5    1    4     12.73      0.00
    6    1    4     11.17      0.00
    7    1    4    -10.14      0.00
    8    1    4      4.45      0.00
    9    1    4     -1.15      0.00
   10    1    4      1.79      0.00
   11    1    4      1.70      0.00
   12    1    4      1.11      0.00
   13    1    4      1.46      0.00
   14    1    4     -1.68      0.00
   15    1    4      1.71      0.00
   16    1    4     -1.67      0.00
   17    1    4      0.04      0.00
   18    1    4      0.71      0.00
  -20    2    4     -0.45      0.00
  -19    2    4     -1.69      0.00
  -18    2    4     -0.17      0.00
  -17    2    4     -2.93      0.00
  -16    2    4      2.30      0.00
  -15    2    4      3.06      0.00
  -14    2    4      0.15      0.00
  -13    2    4      7.19      0.00
  -12    2    4      1.33      0.00
  -11    2    4     -0.01      0.00
  -10    2    4      2.76      0.00
   -9    2    4     -5.91      0.00
   -8    2    4     12.63      0.00
   -7    2    4     -4.43      0.00
   -6    2    4     -8.38      0.00
   -5    2    4      0.77      0.00
   -4    2    4    -28.56      0.00
   -3    2    4    -29.08      0.00
   -2    2    4    -37.90      0.00
   -1    2    4     -2.81      0.00
    0    2    4     -1.89      0.00
    1    2    4     35.91      0.00
    2    2    4     14.02      0.00
    3    2    4     11.26      0.00
    4    2    4     10.19      0.00
    5    2    4      1.68      0.00
    6    2    4     11.06      0.00
    7    2    4    -14.01      0.00
    8    2    4      3.95      0.00
    9    2    4      1.16      0.00
   10    2    4     -1.86      0.00
   11    2    4     -2.19      0.00
   12    2    4     -4.98      0.00
   13    2    4      0.43      0.00
   14    2    4     -2.14      0.00
   15    2    4      3.32      0.00
   16    2    4     -0.57      0.00
   17    2    4      0.43      0.00
   18    2    4      1.10      0.00
  -19    3    4      0.35      0.00
  -18    3    4     -0.13      0.00
  -17    3    4     -0.05      0.00
  -16    3    4      1.33      0.00
  -15    3    4      2.69      0.00
  -14    3    4     -6.28      0.00
  -13    3    4     -2.90      0.00
  -11    3    4     -4.25      0.00
  -10    3    4      6.72      0.00
   -9    3    4     -8.94      0.00
   -8    3    4      1.29      0.00
   -7    3    4     -0.78      0.00
   -6    3    4    -14.76      0.00
   -5    3    4     13.36      0.00
   -4    3    4    -10.19      0.00
   -3    3    4     30.77      0.00
   -2    3    4     23.23      0.00
   -1    3    4     44.48      0.00
    0    3    4     -8.16      0.00
    1    3    4    -12.60      0.00
    2    3    4      2.00      0.00
    3    3    4    -17.65      0.00
    4    3    4     -7.11      0.00
    5    3    4    -18.39      0.00
    6    3    4     10.85      0.00
    7    3    4     -6.06      0.00
    8    3    4     -3.38      0.00
    9    3    4      1.71      0.00
   10    3    4     -0.24      0.00
   11    3    4      2.94      0.00
   12    3    4      0.78      0.00
   13    3    4      6.10      0.00
   14    3    4     -0.58      0.00
   15    3    4      1.42      0.00
   16    3    4     -0.67      0.00
   17    3    4     -1.23      0.00
   18    3    4     -1.08      0.00
  -19    4    4      0.91      0.00
  -18    4    4      0.00      0.00
  -17    4    4      0.15      0.00
  -16    4    4     -0.56      0.00
  -15    4    4      1.36      0.00
  -14    4    4     -0.50      0.00
  -13    4    4     -1.88      0.00
  -11    4    4     -4.57      0.00
  -10    4    4      2.85      0.00
   -9    4    4     -7.34      0.00
   -8    4    4     -2.25      0.00
   -7    4    4     16.73      0.00
   -6    4    4    -10.76      0.00
   -4    4    4     -2.16      0.00
   -3    4    4     12.85      0.00
   -2    4    4    -25.13      0.00
   -1    4    4    -18.25      0.00
    0    4    4     -8.52      0.00
    1    4    4    -13.56      0.00
    2    4    4     20.67      0.00
    3    4    4     -4.19      0.00
    4    4    4     10.01      0.00
    5    4    4     -2.88      0.00
    6    4    4      9.26      0.00
    7    4    4      3.92      0.00
    8    4    4     -3.09      0.00
    9    4    4      2.99      0.00
   10    4    4      2.30      0.00
   11    4    4      1.54      0.00
   12    4    4     -5.10      0.00
   13    4    4     -2.43      0.00
   14    4    4     -4.36      0.00
   15    4    4     -0.75      0.00
   16    4    4     -0.02      0.00
   17    4    4     -0.22      0.00
  -19    5    4      1.44      0.00
  -18    5    4     -1.38      0.00
  -17    5    4     -2.81      0.00
  -16    5    4     -1.20      0.00
  -15    5    4      0.34      0.00
  -14    5    4      2.12      0.00
  -13    5    4     -5.71      0.00
  -12    5    4      2.67      0.00
  -11    5    4     -2.76      0.00
   -9    5    4      5.80      0.00
   -8    5    4     -4.26      0.00
   -7    5    4     11.73      0.00
   -6    5    4     -7.34      0.00
   -5    5    4      3.66      0.00
   -4    5    4    -11.47      0.00
   -3    5    4     -7.09      0.00
   -2    5    4     -6.32      0.00
   -1    5    4      3.94      0.00
    1    5    4    -13.21      0.00
    2    5    4      8.09      0.00
    3    5    4     -3.58      0.00
    4    5    4     -1.13      0.00
    5    5    4     -4.62      0.00
    6    5    4     -2.39      0.00
    7    5    4      3.67      0.00
    8    5    4     -2.93      0.00
    9    5    4     -3.82      0.00
   10    5    4     -0.40      0.00
   11    5    4     -1.18      0.00
   12    5    4     -2.42      0.00
   13    5    4      4.12      0.00
   14    5    4      3.32      0.00
   15    5    4      2.71      0.00
   16    5    4      1.05      0.00
   17    5    4     -0.28      0.00
  -18    6    4      0.48      0.00
  -17    6    4      1.40      0.00
  -16    6    4      2.77      0.00
  -15    6    4      1.01      0.00
  -14    6    4      3.66      0.00
  -13    6    4     -2.52      0.00
  -12    6    4      2.29      0.00
  -11    6    4      1.49      0.00
  -10    6    4     -0.84      0.00
   -9    6    4     -0.64      0.00
   -8    6    4    -12.39      0.00
   -7    6    4     -0.56      0.00
   -6    6    4     -4.14      0.00
   -5    6    4     -7.97      0.00
   -4    6    4     -4.89      0.00
   -3    6    4     10.98      0.00
   -2    6    4     12.19      0.00
   -1    6    4     -1.04      0.00
    0    6    4      7.80      0.00
    1    6    4     -7.39      0.00
    2    6    4      3.35      0.00
    3    6    4      6.14      0.00
    4    6    4     -0.63      0.00
    5    6    4      2.23      0.00
    6    6    4     -2.43      0.00
    7    6    4      0.46      0.00
    8    6    4      2.58      0.00
    9    6    4     -5.20      0.00
   10    6    4      3.10      0.00
   11    6    4      4.18      0.00
   12    6    4      0.20      0.00
   13    6    4      0.76      0.00
   14    6    4     -2.77      0.00
   15    6    4     -2.45      0.00
   16    6    4     -1.63      0.00
   17    6    4      0.62      0.00
  -18    7    4      1.10      0.00
  -17    7    4     -1.22      0.00
  -16    7    4     -1.40      0.00
  -15    7    4     -2.48      0.00
  -14    7    4      1.23      0.00
  -13    7    4     -0.80      0.00
  -12    7    4     -2.66      0.00
  -11    7    4     -1.67      0.00
  -10    7    4     -2.98      0.00
   -9    7    4      3.53      0.00
   -8    7    4      2.80      0.00
   -7    7    4      2.19      0.00
   -6    7    4      9.94      0.00
   -5    7    4      9.74      0.00
   -4    7    4      4.31      0.00
   -3    7    4      7.33      0.00
   -2    7    4     -6.27      0.00
   -1    7    4     -9.19      0.00
    0    7    4     -0.75      0.00
    1    7    4     -3.16      0.00
    2    7    4     -6.47      0.00
    3    7    4      2.00      0.00
    4    7    4     -5.09      0.00
    5    7    4     -1.79      0.00
    6    7    4      1.20      0.00
    7    7    4     -2.44      0.00
    8    7    4      7.88      0.00
    9    7    4     -3.91      0.00
   10    7    4      1.84      0.00
   11    7    4      2.61      0.00
   12    7    4     -4.52      0.00
   13    7    4     -1.34      0.00
   14    7    4      0.08      0.00
   15    7    4      2.59      0.00
   16    7    4     -0.40      0.00
  -17    8    4     -1.15      0.00
  -16    8    4      0.81      0.00
  -15    8    4      0.00      0.00
  -14    8    4      1.97      0.00
  -13    8    4      1.51      0.00
  -12    8    4     -1.98      0.00
  -11    8    4      1.13      0.00
  -10    8    4      4.51      0.00
   -9    8    4      1.74      0.00
   -8    8    4      1.73      0.00
   -7    8    4     -4.78      0.00
   -6    8    4     -0.01      0.00
   -5    8    4     -2.02      0.00
   -4    8    4    -19.24      0.00
   -3    8    4     -3.88      0.00
   -2    8    4     -4.01      0.00
   -1    8    4      3.54      0.00
    0    8    4      2.46      0.00
    1    8    4      3.78      0.00
    2    8    4     -0.90      0.00
    3    8    4      5.02      0.00
    4    8    4      4.02      0.00
    5    8    4      0.34      0.00
    6    8    4      5.33      0.00
    7    8    4     -7.59      0.00
    8    8    4      6.18      0.00
    9    8    4     -3.55      0.00
   10    8    4     -5.03      0.00
   11    8    4      1.66      0.00
   12    8    4     -1.92      0.00
   13    8    4      1.96      0.00
   14    8    4      0.15      0.00
   15    8    4      0.19      0.00
   16    8    4     -2.38      0.00
  -16    9    4      0.71      0.00
  -15    9    4     -2.30      0.00
  -14    9    4     -1.97      0.00
  -13    9    4      1.14      0.00
  -12    9    4      1.20      0.00
  -11    9    4     -0.65      0.00
  -10    9    4      1.19      0.00
   -9    9    4     -5.99      0.00
   -8    9    4     -1.71      0.00
   -7    9    4     -2.72      0.00
   -6    9    4     -4.10      0.00
   -5    9    4      8.16      0.00
   -4    9    4     -1.43      0.00
   -3    9    4     13.15      0.00
   -2    9    4      5.13      0.00
   -1    9    4      1.29      0.00
    0    9    4     -2.20      0.00
    1    9    4     -1.40      0.00
    2    9    4     -2.60      0.00
    3    9    4     -1.49      0.00
    4    9    4      0.59      0.00
    5    9    4     -6.58      0.00
    6    9    4      2.92      0.00
    7    9    4     -7.24      0.00
    8    9    4      2.34      0.00
    9    9    4      1.35      0.00
   10    9    4     -2.17      0.00
   11    9    4      5.69      0.00
   12    9    4      0.28      0.00
   13    9    4      0.53      0.00
   14    9    4     -0.35      0.00
   15    9    4      1.55      0.00
  -15   10    4      0.38      0.00
  -14   10    4      0.49      0.00
  -13   10    4      1.10      0.00
  -12   10    4     -0.57      0.00
  -11   10    4     -4.70      0.00
  -10   10    4      1.39      0.00
   -9   10    4     -0.13      0.00
   -8   10    4      1.95      0.00
   -7   10    4      4.33      0.00
   -6   10    4     -2.72      0.00
   -5   10    4      9.88      0.00
   -4   10    4     -5.77      0.00
   -3   10    4     -3.98      0.00
   -2   10    4     -4.17      0.00
   -1   10    4     -2.72      0.00
    0   10    4      1.99      0.00
    1   10    4      1.94      0.00
    2   10    4      2.53      0.00
    3   10    4     -1.08      0.00
    4   10    4      1.71      0.00
    5   10    4     -1.74      0.00
    6   10    4      6.09      0.00
    7   10    4     -1.08      0.00
    8   10    4      1.30      0.00
    9   10    4      5.16      0.00
   10   10    4     -3.01      0.00
   11   10    4     -0.16      0.00
   12   10    4     -1.54      0.00
   13   10    4     -0.41      0.00
   14   10    4     -1.61      0.00
  -14   11    4     -0.32      0.00
  -13   11    4     -1.06      0.00
  -12   11    4      1.55      0.00
  -11   11    4      1.05      0.00
  -10   11    4      4.35      0.00
   -9   11    4      1.70      0.00
   -8   11    4     -0.82      0.00
   -7   11    4      2.63      0.00
   -6   11    4     -7.52      0.00
   -5   11    4      2.90      0.00
   -4   11    4     -2.19      0.00
   -3   11    4     -0.73      0.00
   -2   11    4      4.05      0.00
   -1   11    4      1.50      0.00
    0   11    4     -0.02      0.00
    1   11    4     -3.53      0.00
    2   11    4     -2.60      0.00
    3   11    4     -1.77      0.00
    4   11    4      1.68      0.00
    5   11    4     -1.95      0.00
    6   11    4      2.39      0.00
    7   11    4     -0.63      0.00
    8   11    4     -3.37      0.00
    9   11    4      0.41      0.00
   10   11    4     -2.43      0.00
   11   11    4     -0.11      0.00
   12   11    4      1.05      0.00
   13   11    4      1.73      0.00
  -13   12    4      0.20      0.00
  -12   12    4      0.44      0.00
  -11   12    4     -3.22      0.00
  -10   12    4     -3.07      0.00
   -9   12    4     -1.56      0.00
   -8   12    4     -2.46      0.00
   -7   12    4      2.04      0.00
   -6   12    4     -3.93      0.00
   -5   12    4      2.01      0.00
   -4   12    4      2.26      0.00
   -3   12    4     -1.19      0.00
   -2   12    4     -1.32      0.00
   -1   12    4     -1.50      0.00
    0   12    4     -0.62      0.00
    1   12    4      3.08      0.00
    2   12    4      2.45      0.00
    3   12    4      2.75      0.00
    4   12    4      2.16      0.00
    5   12    4     -2.19      0.00
    6   12    4      0.39      0.00
    7   12    4     -0.42      0.00
    8   12    4     -2.11      0.00
    9   12    4      0.22      0.00
   10   12    4      2.32      0.00
   11   12    4      0.00      0.00
   12   12    4     -0.90      0.00
  -12   13    4      0.40      0.00
  -11   13    4      0.49      0.00
  -10   13    4      0.85      0.00
   -9   13    4      2.43      0.00
   -8   13    4      0.33      0.00
   -7   13    4      2.06      0.00
   -6   13    4     -0.03      0.00
   -5   13    4     -1.38      0.00
   -4   13    4     -0.35      0.00
   -3   13    4     -0.78      0.00
   -2   13    4     -1.11      0.00
   -1   13    4      3.18      0.00
    0   13    4      1.16      0.00
    1   13    4      1.04      0.00
    2   13    4     -4.47      0.00
    3   13    4     -3.67      0.00
    4   13    4      0.21      0.00
    5   13    4     -1.50      0.00
    6   13    4      1.13      0.00
    7   13    4      0.61      0.00
    8   13    4      2.13      0.00
    9   13    4     -1.00      0.00
   10   13    4      1.07      0.00
  -10   14    4     -1.32      0.00
   -9   14    4     -0.86      0.00
   -8   14    4     -0.52      0.00
   -7   14    4     -0.11      0.00
   -6   14    4     -0.31      0.00
   -5   14    4     -0.24      0.00
   -4   14    4      1.28      0.00
   -3   14    4      2.68      0.00
   -2   14    4     -1.32      0.00
   -1   14    4      0.25      0.00
    0   14    4     -3.14      0.00
    1   14    4     -0.60      0.00
    2   14    4      0.94      0.00
    3   14    4      0.93      0.00
    4   14    4      2.07      0.00
    5   14    4     -1.26      0.00
    6   14    4      1.50      0.00
    7   14    4     -1.67      0.00
    8   14    4      1.73      0.00
   -7   15    4      2.29      0.00
   -6   15    4      0.67      0.00
   -5   15    4      1.76      0.00
   -4   15    4     -0.30      0.00
   -3   15    4      1.26      0.00
   -2   15    4     -1.37      0.00
   -1   15    4      0.04      0.00
    0   15    4      0.00      0.00
    2   15    4      2.12      0.00
    3   15    4     -0.71      0.00
    4   15    4     -0.52      0.00
    5   15    4     -1.59      0.00
  -19    0    5     -1.35      0.00
  -17    0    5     -7.19      0.00
  -15    0    5      1.05      0.00
  -13    0    5      3.94      0.00
  -11    0    5     -2.22      0.00
   -9    0    5      0.05      0.00
   -7    0    5     17.84      0.00
   -5    0    5     23.77      0.00
   -3    0    5    -36.26      0.00
   -1    0    5    -36.64      0.00
    1    0    5     -1.69      0.00
    3    0    5     -1.14      0.00
    5    0    5      1.10      0.00
    7    0    5      0.35      0.00
    9    0    5     12.07      0.00
   11    0    5      0.21      0.00
   13    0    5     -2.03      0.00
   15    0    5     -1.26      0.00
   17    0    5     -1.89      0.00
  -20    1    5      0.03      0.00
  -19    1    5     -1.41      0.00
  -18    1    5      2.89      0.00
  -17    1    5     -0.23      0.00
  -16    1    5      4.19      0.00
  -15    1    5      3.22      0.00
  -14    1    5     -5.06      0.00
  -13    1    5     -3.33      0.00
  -12    1    5      0.52      0.00
  -11    1    5     -0.38      0.00
  -10    1    5      1.83      0.00
   -9    1    5      0.54      0.00
   -8    1    5     -6.99      0.00
   -7    1    5      5.00      0.00
   -6    1    5    -24.21      0.00
   -5    1    5     -8.87      0.00
   -4    1    5     -8.17      0.00
   -3    1    5     -9.98      0.00
   -2    1    5     46.37      0.00
   -1    1    5     28.10      0.00
    0    1    5      9.13      0.00
    1    1    5     -2.08      0.00
    2    1    5     12.30      0.00
    3    1    5      7.31      0.00
    4    1    5     -6.99      0.00
    5    1    5     -4.79      0.00
    6    1    5      7.84      0.00
    7    1    5      5.43      0.00
    8    1    5    -10.22      0.00
    9    1    5     -3.43      0.00
   10    1    5     -4.19      0.00
   11    1    5     -2.99      0.00
   12    1    5     -0.45      0.00
   13    1    5     -0.02      0.00
   14    1    5      0.70      0.00
   15    1    5      1.02      0.00
   16    1    5      1.88      0.00
   17    1    5      1.03      0.00
   18    1    5     -0.44      0.00
  -20    2    5      1.63      0.00
  -19    2    5     -0.16      0.00
  -18    2    5      1.58      0.00
  -17    2    5     -2.10      0.00
  -16    2    5     -3.30      0.00
  -15    2    5      1.10      0.00
  -14    2    5      0.72      0.00
  -13    2    5      0.77      0.00
  -12    2    5      4.03      0.00
  -11    2    5      1.13      0.00
  -10    2    5     -1.73      0.00
   -9    2    5     -0.26      0.00
   -8    2    5    -10.19      0.00
   -7    2    5     15.86      0.00
   -6    2    5     -1.13      0.00
   -5    2    5     15.94      0.00
   -4    2    5     26.11      0.00
   -3    2    5      2.33      0.00
   -2    2    5    -10.26      0.00
   -1    2    5    -25.70      0.00
    0    2    5    -12.65      0.00
    1    2    5    -15.22      0.00
    2    2    5     -0.69      0.00
    3    2    5     -2.15      0.00
    4    2    5     -3.06      0.00
    5    2    5     -4.48      0.00
    6    2    5     -0.67      0.00
    7    2    5      0.93      0.00
    8    2    5     -4.07      0.00
    9    2    5      2.47      0.00
   10    2    5      7.00      0.00
   11    2    5      4.39      0.00
   12    2    5      1.14      0.00
   13    2    5      1.26      0.00
   14    2    5     -1.40      0.00
   15    2    5     -0.11      0.00
   16    2    5     -0.71      0.00
   17    2    5     -0.35      0.00
   18    2    5     -0.62      0.00
  -19    3    5      0.21      0.00
  -18    3    5      0.75      0.00
  -17    3    5     -0.52      0.00
  -16    3    5     -0.44      0.00
  -15    3    5      3.85      0.00
  -14    3    5      2.29      0.00
  -13    3    5     -4.78      0.00
  -12    3    5     -3.69      0.00
  -11    3    5     -2.14      0.00
  -10    3    5     -2.26      0.00
   -9    3    5      8.14      0.00
   -8    3    5     -7.55      0.00
   -7    3    5     10.84      0.00
   -6    3    5     -3.61      0.00
   -5    3    5    -10.72      0.00
   -4    3    5    -12.02      0.00
   -3    3    5    -21.50      0.00
   -2    3    5     -3.70      0.00
   -1    3    5     10.84      0.00
    0    3    5     24.66      0.00
    1    3    5     -4.69      0.00
    2    3    5      2.63      0.00
    3    3    5      7.37      0.00
    4    3    5      4.49      0.00
    5    3    5     -5.31      0.00
    6    3    5      0.39      0.00
    7    3    5      7.68      0.00
    8    3    5      3.41      0.00
    9    3    5     -3.50      0.00
   10    3    5     -1.85      0.00
   11    3    5     -1.44      0.00
   12    3    5     -5.30      0.00
   13    3    5      0.82      0.00
   14    3    5     -0.77      0.00
   15    3    5     -0.13      0.00
   16    3    5      0.64      0.00
   17    3    5      0.11      0.00
  -19    4    5     -1.15      0.00
  -18    4    5      0.01      0.00
  -17    4    5     -0.07      0.00
  -16    4    5     -1.79      0.00
  -15    4    5     -1.66      0.00
  -14    4    5      0.41      0.00
  -13    4    5     -0.26      0.00
  -10    4    5      2.96      0.00
   -9    4    5      6.08      0.00
   -8    4    5     -9.36      0.00
   -7    4    5      1.02      0.00
   -6    4    5      0.87      0.00
   -5    4    5     -7.06      0.00
   -4    4    5      3.25      0.00
   -3    4    5     13.16      0.00
   -2    4    5     13.70      0.00
   -1    4    5    -10.58      0.00
    0    4    5     -2.14      0.00
    1    4    5    -11.18      0.00
    2    4    5     -1.23      0.00
    3    4    5      2.38      0.00
    4    4    5      5.75      0.00
    5    4    5     -1.73      0.00
    6    4    5      0.25      0.00
    7    4    5     -1.26      0.00
    8    4    5      0.29      0.00
    9    4    5     -4.52      0.00
   10    4    5     -3.20      0.00
   11    4    5      7.04      0.00
   12    4    5     -0.71      0.00
   13    4    5      2.49      0.00
   14    4    5     -0.60      0.00
   15    4    5     -1.10      0.00
   16    4    5      1.49      0.00
   17    4    5     -2.85      0.00
  -19    5    5      0.88      0.00
  -18    5    5      2.48      0.00
  -17    5    5      0.41      0.00
  -16    5    5     -1.50      0.00
  -15    5    5      0.34      0.00
  -14    5    5      3.67      0.00
  -13    5    5      1.00      0.00
  -12    5    5     -2.72      0.00
  -11    5    5     -4.14      0.00
  -10    5    5     -6.10      0.00
   -9    5    5     -0.14      0.00
   -8    5    5     -3.52      0.00
   -7    5    5     -2.37      0.00
   -6    5    5      4.45      0.00
   -3    5    5      0.98      0.00
   -2    5    5     -2.06      0.00
   -1    5    5     -8.43      0.00
    0    5    5     15.72      0.00
    1    5    5      3.33      0.00
    2    5    5     -0.29      0.00
    3    5    5     -3.14      0.00
    4    5    5      1.02      0.00
    5    5    5     -7.36      0.00
    6    5    5     -4.14      0.00
    7    5    5     -3.77      0.00
    8    5    5      3.92      0.00
    9    5    5      4.01      0.00
   10    5    5     -3.73      0.00
   11    5    5      5.32      0.00
   12    5    5     -4.08      0.00
   13    5    5     -1.17      0.00
   14    5    5      0.84      0.00
   15    5    5     -0.05      0.00
   16    5    5      3.23      0.00
   17    5    5     -1.37      0.00
  -18    6    5     -0.56      0.00
  -17    6    5     -1.30      0.00
  -16    6    5     -0.45      0.00
  -15    6    5     -0.94      0.00
  -14    6    5     -0.60      0.00
  -13    6    5     -1.81      0.00
  -12    6    5     -0.94      0.00
  -11    6    5     -0.40      0.00
  -10    6    5      2.45      0.00
   -9    6    5      6.15      0.00
   -8    6    5      2.53      0.00
   -7    6    5      1.89      0.00
   -6    6    5     -0.19      0.00
   -5    6    5      6.63      0.00
   -4    6    5    -16.21      0.00
   -3    6    5     -7.41      0.00
   -2    6    5      4.43      0.00
   -1    6    5     -8.24      0.00
    0    6    5      1.38      0.00
    1    6    5     -9.94      0.00
    2    6    5     -4.43      0.00
    3    6    5     -3.10      0.00
    4    6    5      4.79      0.00
    5    6    5      3.57      0.00
    6    6    5      5.86      0.00
    7    6    5      1.93      0.00
    8    6    5      1.88      0.00
    9    6    5      4.22      0.00
   10    6    5     -7.78      0.00
   11    6    5      2.30      0.00
   12    6    5      1.75      0.00
   13    6    5     -0.15      0.00
   14    6    5      1.68      0.00
   15    6    5     -2.40      0.00
   16    6    5     -1.16      0.00
  -18    7    5      1.93      0.00
  -17    7    5      0.76      0.00
  -16    7    5      1.19      0.00
  -15    7    5     -1.77      0.00
  -14    7    5      0.08      0.00
  -13    7    5      2.46      0.00
  -12    7    5      4.66      0.00
  -11    7    5      0.48      0.00
  -10    7    5     -2.16      0.00
   -9    7    5     -1.40      0.00
   -8    7    5     -4.12      0.00
   -7    7    5     -1.08      0.00
   -6    7    5    -14.74      0.00
   -5    7    5      6.21      0.00
   -4    7    5     -0.88      0.00
   -3    7    5      2.53      0.00
   -2    7    5     12.68      0.00
   -1    7    5     -4.29      0.00
    0    7    5      9.45      0.00
    1    7    5      5.79      0.00
    2    7    5      6.27      0.00
    3    7    5      3.04      0.00
    4    7    5      3.71      0.00
    5    7    5     -2.07      0.00
    6    7    5     -2.17      0.00
    7    7    5     -4.81      0.00
    8    7    5     -5.45      0.00
    9    7    5      2.65      0.00
   10    7    5     -5.30      0.00
   11    7    5      0.55      0.00
   12    7    5      2.56      0.00
   13    7    5     -3.77      0.00
   14    7    5     -0.14      0.00
   15    7    5      0.70      0.00
   16    7    5      1.45      0.00
  -17    8    5     -1.03      0.00
  -16    8    5      0.90      0.00
  -15    8    5     -0.20      0.00
  -14    8    5      0.75      0.00
  -13    8    5      0.90      0.00
  -12    8    5     -0.81      0.00
  -11    8    5     -2.79      0.00
  -10    8    5     -2.15      0.00
   -9    8    5      4.15      0.00
   -8    8    5     -1.56      0.00
   -7    8    5      7.32      0.00
   -6    8    5     -3.22      0.00
   -5    8    5     13.67      0.00
   -4    8    5      5.57      0.00
   -3    8    5    -10.58      0.00
   -2    8    5      3.29      0.00
   -1    8    5     -7.71      0.00
    0    8    5      0.39      0.00
    1    8    5     -3.60      0.00
    2    8    5     -6.26      0.00
    3    8    5     -5.88      0.00
    4    8    5     -2.77      0.00
    5    8    5     -3.34      0.00
    6    8    5      3.06      0.00
    7    8    5      0.81      0.00
    8    8    5     -0.12      0.00
    9    8    5      7.51      0.00
   10    8    5      0.76      0.00
   11    8    5     -1.09      0.00
   12    8    5      2.22      0.00
   13    8    5     -0.02      0.00
   14    8    5      1.04      0.00
   15    8    5      0.92      0.00
  -16    9    5      0.73      0.00
  -15    9    5      0.93      0.00
  -14    9    5     -2.63      0.00
  -13    9    5     -2.71      0.00
  -12    9    5     -1.31      0.00
  -11    9    5      1.67      0.00
  -10    9    5     -0.32      0.00
   -9    9    5      4.82      0.00
   -8    9    5     -2.86      0.00
   -7    9    5      5.22      0.00
   -6    9    5     -6.26      0.00
   -5    9    5     -5.17      0.00
   -4    9    5      0.35      0.00
   -3    9    5     -8.44      0.00
   -2    9    5      6.54      0.00
   -1    9    5     -0.68      0.00
    0    9    5     -0.23      0.00
    1    9    5      1.53      0.00
    2    9    5     -0.09      0.00
    3    9    5      1.73      0.00
    4    9    5      5.65      0.00
    5    9    5     -0.52      0.00
    6    9    5      4.33      0.00
    7    9    5      0.92      0.00
    8    9    5     -2.91      0.00
    9    9    5      0.16      0.00
   10    9    5     -1.85      0.00
   11    9    5     -2.14      0.00
   12    9    5     -0.38      0.00
   13    9    5      0.00      0.00
   14    9    5     -2.53      0.00
  -15   10    5      0.11      0.00
  -14   10    5     -0.22      0.00
  -13   10    5      2.90      0.00
  -12   10    5      3.69      0.00
  -11   10    5      1.24      0.00
  -10   10    5     -3.05      0.00
   -9   10    5      1.08      0.00
   -8   10    5     -3.94      0.00
   -7   10    5      0.37      0.00
   -6   10    5     -2.46      0.00
   -5   10    5     -1.95      0.00
   -4   10    5      8.59      0.00
   -3   10    5     -2.60      0.00
   -2   10    5     -1.07      0.00
   -1   10    5     -0.40      0.00
    0   10    5     -2.16      0.00
    1   10    5      3.58      0.00
    2   10    5      2.57      0.00
    3   10    5     -0.39      0.00
    4   10    5      3.33      0.00
    5   10    5     -5.55      0.00
    6   10    5      0.37      0.00
    7   10    5     -1.31      0.00
    8   10    5     -4.17      0.00
    9   10    5      0.88      0.00
   10   10    5      1.33      0.00
   11   10    5      1.14      0.00
   12   10    5     -1.38      0.00
   13   10    5      2.70      0.00
  -14   11    5      0.56      0.00
  -13   11    5     -2.04      0.00
  -12   11    5     -2.48      0.00
  -11   11    5     -2.62      0.00
  -10   11    5     -1.37      0.00
   -9   11    5      0.62      0.00
   -8   11    5     -1.06      0.00
   -7   11    5      2.81      0.00
   -6   11    5      1.82      0.00
   -5   11    5     -1.32      0.00
   -4   11    5      3.08      0.00
   -3   11    5      1.73      0.00
   -2   11    5     -0.16      0.00
   -1   11    5      5.74      0.00
    0   11    5      1.29      0.00
    1   11    5      0.76      0.00
    2   11    5     -1.42      0.00
    3   11    5     -7.18      0.00
    4   11    5      1.30      0.00
    5   11    5     -4.03      0.00
    6   11    5     -0.03      0.00
    7   11    5      2.96      0.00
    8   11    5      0.62      0.00
    9   11    5      1.81      0.00
   10   11    5     -0.65      0.00
   11   11    5      1.43      0.00
   12   11    5     -1.71      0.00
  -13   12    5     -0.07      0.00
  -12   12    5      2.96      0.00
  -11   12    5      2.04      0.00
  -10   12    5      0.82      0.00
   -9   12    5      0.95      0.00
   -8   12    5      0.62      0.00
   -7   12    5      2.87      0.00
   -6   12    5     -0.16      0.00
   -5   12    5     -1.26      0.00
   -4   12    5     -2.58      0.00
   -3   12    5      2.22      0.00
   -2   12    5     -4.74      0.00
   -1   12    5     -3.52      0.00
    0   12    5     -4.19      0.00
    1   12    5     -4.99      0.00
    2   12    5      3.33      0.00
    3   12    5     -1.48      0.00
    4   12    5      5.29      0.00
    5   12    5      2.53      0.00
    6   12    5      0.90      0.00
    7   12    5      3.37      0.00
    8   12    5     -0.34      0.00
    9   12    5     -1.03      0.00
   10   12    5     -2.06      0.00
   11   12    5      1.54      0.00
  -11   13    5     -0.33      0.00
  -10   13    5     -0.25      0.00
   -9   13    5     -0.42      0.00
   -8   13    5     -2.51      0.00
   -7   13    5     -0.49      0.00
   -6   13    5     -1.89      0.00
   -5   13    5      0.55      0.00
   -4   13    5     -3.61      0.00
   -3   13    5      1.18      0.00
   -2   13    5     -1.26      0.00
   -1   13    5      0.15      0.00
    0   13    5      6.27      0.00
    1   13    5      2.26      0.00
    2   13    5      7.37      0.00
    3   13    5     -2.94      0.00
    4   13    5     -0.95      0.00
    5   13    5     -1.06      0.00
    6   13    5     -3.51      0.00
    7   13    5     -1.56      0.00
    8   13    5     -1.54      0.00
    9   13    5      0.60      0.00
   -9   14    5     -0.86      0.00
   -8   14    5     -2.16      0.00
   -7   14    5      1.53      0.00
   -6   14    5     -0.60      0.00
   -5   14    5      1.70      0.00
   -4   14    5      0.88      0.00
   -3   14    5      2.26      0.00
   -2   14    5      3.56      0.00
   -1   14    5     -0.26      0.00
    0   14    5      0.41      0.00
    1   14    5     -5.56      0.00
    2   14    5     -1.76      0.00
    3   14    5     -2.02      0.00
    4   14    5      0.31      0.00
    5   14    5      0.05      0.00
    6   14    5      0.38      0.00
    7   14    5      0.75      0.00
   -7   15    5      2.22      0.00
   -6   15    5      0.29      0.00
   -5   15    5      0.00      0.00
   -4   15    5      0.43      0.00
   -3   15    5     -2.51      0.00
   -2   15    5      0.74      0.00
   -1   15    5     -2.80      0.00
    0   15    5     -1.44      0.00
  -20    0    6     -0.01      0.00
  -18    0    6      1.36      0.00
  -16    0    6     -8.54      0.00
  -14    0    6     -2.77      0.00
  -12    0    6      6.24      0.00
  -10    0    6      6.27      0.00
   -8    0    6     -6.98      0.00
   -6    0    6     -4.01      0.00
   -4    0    6     20.74      0.00
   -2    0    6    -12.44      0.00
    0    0    6     -9.03      0.00
    2    0    6      8.44      0.00
    4    0    6     13.58      0.00
    6    0    6     -0.70      0.00
    8    0    6     -9.71      0.00
   10    0    6     -0.53      0.00
   12    0    6     -1.40      0.00
   14    0    6      2.08      0.00
   16    0    6      3.20      0.00
  -20    1    6     -0.07      0.00
  -19    1    6     -1.23      0.00
  -18    1    6     -2.16      0.00
  -17    1    6      1.45      0.00
  -16    1    6     -1.46      0.00
  -15    1    6      7.20      0.00
  -14    1    6      6.95      0.00
  -13    1    6     -2.69      0.00
  -12    1    6      2.58      0.00
  -11    1    6     -3.01      0.00
  -10    1    6     -2.23      0.00
   -9    1    6      3.65      0.00
   -8    1    6    -10.76      0.00
   -7    1    6      9.84      0.00
   -6    1    6     -3.17      0.00
   -5    1    6    -10.38      0.00
   -4    1    6    -11.20      0.00
   -3    1    6    -22.82      0.00
   -2    1    6     -8.09      0.00
   -1    1    6     10.97      0.00
    0    1    6     27.80      0.00
    1    1    6     -8.13      0.00
    2    1    6      7.68      0.00
    3    1    6      1.21      0.00
    4    1    6      4.55      0.00
    5    1    6     -8.65      0.00
    6    1    6    -11.69      0.00
    7    1    6     11.80      0.00
    8    1    6     -0.16      0.00
    9    1    6      1.42      0.00
   10    1    6     -1.80      0.00
   11    1    6      1.40      0.00
   12    1    6      0.25      0.00
   13    1    6     -1.09      0.00
   14    1    6      1.63      0.00
   15    1    6     -2.85      0.00
   16    1    6      0.52      0.00
   17    1    6     -0.75      0.00
  -20    2    6      0.17      0.00
  -19    2    6      0.93      0.00
  -18    2    6      1.53      0.00
  -17    2    6      3.59      0.00
  -16    2    6     -1.40      0.00
  -15    2    6     -5.27      0.00
  -14    2    6     -1.11      0.00
  -13    2    6     -6.18      0.00
  -12    2    6     -2.35      0.00
  -11    2    6      0.46      0.00
  -10    2    6     -6.03      0.00
   -9    2    6     10.31      0.00
   -8    2    6    -13.63      0.00
   -7    2    6      3.50      0.00
   -6    2    6      3.33      0.00
   -5    2    6     -1.90      0.00
   -4    2    6     23.93      0.00
   -3    2    6     20.87      0.00
   -2    2    6     33.05      0.00
   -1    2    6    -14.26      0.00
    0    2    6      6.89      0.00
    1    2    6    -17.93      0.00
    2    2    6     -8.40      0.00
    3    2    6     -5.69      0.00
    4    2    6     -6.53      0.00
    5    2    6      7.25      0.00
    6    2    6     -7.89      0.00
    7    2    6      6.62      0.00
    8    2    6     -2.30      0.00
    9    2    6     -1.54      0.00
   10    2    6     -1.16      0.00
   11    2    6      2.38      0.00
   12    2    6      2.35      0.00
   13    2    6     -1.93      0.00
   14    2    6      1.84      0.00
   15    2    6     -2.11      0.00
   16    2    6      0.60      0.00
   17    2    6     -0.39      0.00
  -19    3    6     -0.62      0.00
  -18    3    6     -0.46      0.00
  -17    3    6     -1.53      0.00
  -16    3    6     -1.75      0.00
  -15    3    6     -2.60      0.00
  -14    3    6      5.59      0.00
  -13    3    6      4.89      0.00
  -12    3    6     -0.65      0.00
  -11    3    6      6.32      0.00
  -10    3    6     -6.04      0.00
   -9    3    6     12.11      0.00
   -8    3    6     -1.16      0.00
   -7    3    6      0.11      0.00
   -6    3    6     12.93      0.00
   -5    3    6     -6.79      0.00
   -4    3    6      3.69      0.00
   -3    3    6    -35.24      0.00
   -2    3    6    -13.34      0.00
   -1    3    6    -32.25      0.00
    0    3    6      8.26      0.00
    1    3    6     10.00      0.00
    2    3    6     -4.38      0.00
    3    3    6     13.13      0.00
    4    3    6      3.79      0.00
    5    3    6     13.01      0.00
    6    3    6     -6.74      0.00
    7    3    6      0.37      0.00
    8    3    6      4.58      0.00
    9    3    6      1.49      0.00
   10    3    6     -2.01      0.00
   11    3    6     -1.43      0.00
   12    3    6     -0.45      0.00
   13    3    6     -3.65      0.00
   14    3    6      1.24      0.00
   15    3    6     -0.98      0.00
   16    3    6      0.77      0.00
   17    3    6      0.78      0.00
  -19    4    6     -1.28      0.00
  -18    4    6      0.50      0.00
  -17    4    6      1.57      0.00
  -16    4    6      2.63      0.00
  -15    4    6      0.32      0.00
  -14    4    6     -1.49      0.00
  -13    4    6      1.68      0.00
  -12    4    6     -5.60      0.00
  -11    4    6      3.08      0.00
  -10    4    6     -6.24      0.00
   -9    4    6      3.05      0.00
   -8    4    6     -0.41      0.00
   -7    4    6    -14.10      0.00
   -6    4    6      3.03      0.00
   -5    4    6    -12.24      0.00
   -4    4    6      2.47      0.00
   -3    4    6     -6.09      0.00
   -2    4    6     31.42      0.00
   -1    4    6     15.01      0.00
    0    4    6      5.55      0.00
    1    4    6     11.11      0.00
    2    4    6    -12.29      0.00
    3    4    6      0.10      0.00
    4    4    6     -8.44      0.00
    5    4    6     -2.21      0.00
    6    4    6     -2.62      0.00
    7    4    6     -5.95      0.00
    8    4    6      0.08      0.00
    9    4    6      0.61      0.00
   10    4    6     -4.36      0.00
   11    4    6      0.14      0.00
   12    4    6      4.56      0.00
   13    4    6      1.98      0.00
   14    4    6      2.58      0.00
   15    4    6     -0.08      0.00
   16    4    6      0.90      0.00
   17    4    6     -0.71      0.00
  -19    5    6     -1.95      0.00
  -18    5    6      1.49      0.00
  -17    5    6      2.51      0.00
  -16    5    6     -0.75      0.00
  -15    5    6     -1.18      0.00
  -14    5    6     -2.82      0.00
  -13    5    6      4.53      0.00
  -12    5    6     -1.13      0.00
  -10    5    6     -3.77      0.00
   -8    5    6      6.17      0.00
   -7    5    6     -3.72      0.00
   -6    5    6      2.95      0.00
   -5    5    6      4.49      0.00
   -4    5    6     13.74      0.00
   -3    5    6     -0.26      0.00
   -2    5    6     -1.10      0.00
   -1    5    6    -12.20      0.00
    0    5    6    -16.38      0.00
    1    5    6      5.50      0.00
    2    5    6     -4.84      0.00
    3    5    6     -0.92      0.00
    4    5    6      5.27      0.00
    5    5    6      1.45      0.00
    6    5    6      6.85      0.00
    7    5    6     -1.06      0.00
    8    5    6     -0.69      0.00
    9    5    6      8.16      0.00
   10    5    6     -0.55      0.00
   11    5    6      0.60      0.00
   12    5    6      0.08      0.00
   13    5    6     -3.48      0.00
   14    5    6     -2.35      0.00
   15    5    6     -2.53      0.00
   16    5    6     -0.22      0.00
  -18    6    6     -1.13      0.00
  -17    6    6     -1.51      0.00
  -16    6    6     -2.09      0.00
  -15    6    6      0.63      0.00
  -14    6    6     -1.70      0.00
  -13    6    6      0.12      0.00
  -12    6    6     -0.67      0.00
  -11    6    6      0.19      0.00
  -10    6    6      1.28      0.00
   -5    6    6      3.71      0.00
   -4    6    6      1.52      0.00
   -3    6    6    -13.66      0.00
   -2    6    6     -3.60      0.00
   -1    6    6      4.35      0.00
    1    6    6      5.07      0.00
    2    6    6      3.95      0.00
    3    6    6     -4.86      0.00
    4    6    6      3.79      0.00
    5    6    6     -5.09      0.00
    6    6    6      1.41      0.00
    7    6    6      1.12      0.00
    8    6    6     -7.74      0.00
    9    6    6      5.28      0.00
   10    6    6     -4.51      0.00
   11    6    6     -3.98      0.00
   12    6    6     -0.14      0.00
   13    6    6      0.85      0.00
   14    6    6      2.99      0.00
   15    6    6      1.80      0.00
   16    6    6      1.98      0.00
  -18    7    6     -1.10      0.00
  -17    7    6      1.55      0.00
  -16    7    6      1.79      0.00
  -15    7    6      1.44      0.00
  -14    7    6     -0.76      0.00
  -13    7    6     -1.62      0.00
  -12    7    6      3.11      0.00
  -11    7    6      2.17      0.00
  -10    7    6      0.01      0.00
   -9    7    6     -2.49      0.00
   -8    7    6     -5.68      0.00
   -5    7    6     -8.97      0.00
   -4    7    6      3.40      0.00
   -3    7    6     -3.84      0.00
   -2    7    6      7.67      0.00
   -1    7    6      1.47      0.00
    0    7    6     -0.46      0.00
    1    7    6     -1.83      0.00
    2    7    6      4.58      0.00
    3    7    6     -5.77      0.00
    4    7    6      3.75      0.00
    5    7    6     -0.31      0.00
    6    7    6     -2.05      0.00
    7    7    6      5.66      0.00
    8    7    6     -7.92      0.00
    9    7    6      4.69      0.00
   10    7    6      1.51      0.00
   11    7    6      0.27      0.00
   12    7    6      3.26      0.00
   13    7    6      0.45      0.00
   14    7    6     -0.78      0.00
   15    7    6     -3.17      0.00
  -17    8    6      1.84      0.00
  -16    8    6     -0.83      0.00
  -15    8    6     -0.65      0.00
  -14    8    6      0.31      0.00
  -13    8    6     -1.59      0.00
  -12    8    6      0.41      0.00
  -11    8    6     -1.80      0.00
  -10    8    6     -5.54      0.00
   -9    8    6      2.48      0.00
   -8    8    6     -3.98      0.00
   -7    8    6      6.46      0.00
   -5    8    6      0.40      0.00
   -4    8    6     17.35      0.00
   -3    8    6     -0.56      0.00
   -2    8    6      2.71      0.00
   -1    8    6     -3.63      0.00
    0    8    6      1.27      0.00
    1    8    6     -2.23      0.00
    2    8    6      2.27      0.00
    3    8    6     -4.42      0.00
    4    8    6     -1.44      0.00
    5    8    6      0.51      0.00
    6    8    6     -5.04      0.00
    7    8    6      7.90      0.00
    8    8    6     -5.40      0.00
    9    8    6      1.38      0.00
   10    8    6      3.16      0.00
   11    8    6     -2.47      0.00
   12    8    6     -0.05      0.00
   13    8    6     -1.49      0.00
   14    8    6      1.21      0.00
   15    8    6      0.09      0.00
  -16    9    6     -1.53      0.00
  -15    9    6      1.52      0.00
  -14    9    6      2.52      0.00
  -13    9    6     -1.49      0.00
  -12    9    6     -1.25      0.00
  -11    9    6      3.44      0.00
  -10    9    6     -1.02      0.00
   -9    9    6      6.99      0.00
   -8    9    6     -1.42      0.00
   -7    9    6      3.64      0.00
   -6    9    6      5.06      0.00
   -5    9    6    -10.47      0.00
   -4    9    6     -0.24      0.00
   -3    9    6    -10.52      0.00
   -2    9    6     -2.88      0.00
   -1    9    6     -2.12      0.00
    0    9    6      0.56      0.00
    1    9    6     -0.35      0.00
    3    9    6      0.63      0.00
    4    9    6      1.79      0.00
    5    9    6      4.97      0.00
    6    9    6     -3.95      0.00
    7    9    6      6.09      0.00
    8    9    6     -0.81      0.00
    9    9    6     -2.11      0.00
   10    9    6      0.57      0.00
   11    9    6     -2.81      0.00
   12    9    6      0.70      0.00
   13    9    6     -0.80      0.00
   14    9    6      0.27      0.00
  -15   10    6     -0.50      0.00
  -14   10    6     -0.92      0.00
  -13   10    6     -0.29      0.00
  -12   10    6      0.51      0.00
  -11   10    6      4.75      0.00
  -10   10    6     -4.22      0.00
   -9   10    6      0.33      0.00
   -8   10    6     -2.20      0.00
   -7   10    6     -4.23      0.00
   -6   10    6      2.49      0.00
   -5   10    6     -7.82      0.00
   -4   10    6      5.76      0.00
   -3   10    6      5.73      0.00
   -2   10    6      4.28      0.00
   -1   10    6      2.43      0.00
    0   10    6     -0.15      0.00
    1   10    6     -1.51      0.00
    2   10    6      0.79      0.00
    3   10    6     -1.26      0.00
    4   10    6     -1.60      0.00
    5   10    6      0.37      0.00
    6   10    6     -4.92      0.00
    7   10    6      0.06      0.00
    8   10    6     -0.55      0.00
    9   10    6     -3.42      0.00
   10   10    6      1.84      0.00
   11   10    6      0.97      0.00
   12   10    6      0.46      0.00
   13   10    6     -0.31      0.00
  -14   11    6      0.78      0.00
  -13   11    6      1.80      0.00
  -12   11    6     -2.68      0.00
  -11   11    6      0.00      0.00
  -10   11    6     -3.28      0.00
   -9   11    6     -0.01      0.00
   -8   11    6      0.33      0.00
   -7   11    6     -2.18      0.00
   -6   11    6      7.22      0.00
   -5   11    6     -0.46      0.00
   -4   11    6     -0.70      0.00
   -3   11    6     -0.36      0.00
   -2   11    6     -4.11      0.00
   -1   11    6     -2.33      0.00
    0   11    6      0.00      0.00
    1   11    6     -0.41      0.00
    2   11    6      2.92      0.00
    3   11    6     -0.62      0.00
    4   11    6     -0.79      0.00
    5   11    6      2.70      0.00
    6   11    6     -0.96      0.00
    7   11    6     -0.67      0.00
    8   11    6      2.93      0.00
    9   11    6      0.81      0.00
   10   11    6      1.03      0.00
   11   11    6      0.66      0.00
   12   11    6     -1.32      0.00
  -13   12    6     -1.13      0.00
  -12   12    6     -0.92      0.00
  -11   12    6      2.58      0.00
  -10   12    6      2.47      0.00
   -9   12    6      0.84      0.00
   -8   12    6      0.34      0.00
   -7   12    6     -1.33      0.00
   -6   12    6      1.64      0.00
   -5   12    6     -0.77      0.00
   -4   12    6     -2.56      0.00
   -3   12    6      1.97      0.00
   -2   12    6      2.37      0.00
   -1   12    6      1.41      0.00
    0   12    6      1.87      0.00
    1   12    6     -4.03      0.00
    2   12    6      0.02      0.00
    3   12    6     -1.08      0.00
    4   12    6     -1.35      0.00
    5   12    6      1.20      0.00
    6   12    6      0.01      0.00
    7   12    6     -0.03      0.00
    8   12    6      1.09      0.00
    9   12    6      0.89      0.00
   10   12    6     -2.73      0.00
  -11   13    6     -2.37      0.00
  -10   13    6      0.36      0.00
   -9   13    6      0.19      0.00
   -8   13    6     -0.36      0.00
   -7   13    6     -0.40      0.00
   -6   13    6     -1.46      0.00
   -5   13    6      1.92      0.00
   -4   13    6      0.05      0.00
   -3   13    6     -0.22      0.00
   -2   13    6      0.64      0.00
   -1   13    6     -3.41      0.00
    0   13    6      0.08      0.00
    1   13    6     -1.49      0.00
    2   13    6      3.47      0.00
    3   13    6      2.31      0.00
    4   13    6     -0.08      0.00
    5   13    6      0.31      0.00
    6   13    6     -0.35      0.00
    7   13    6      0.56      0.00
    8   13    6     -2.95      0.00
    9   13    6      1.27      0.00
   -9   14    6      1.39      0.00
   -8   14    6     -0.95      0.00
   -7   14    6      0.64      0.00
   -6   14    6     -0.39      0.00
   -5   14    6      0.12      0.00
   -4   14    6     -0.92      0.00
   -3   14    6     -2.20      0.00
   -2   14    6      1.62      0.00
   -1   14    6     -0.23      0.00
    0   14    6      3.81      0.00
    1   14    6     -0.11      0.00
    2   14    6     -1.04      0.00
    3   14    6     -1.62      0.00
    4   14    6      0.11      0.00
    5   14    6      0.63      0.00
    6   14    6     -1.56      0.00
    7   14    6      2.21      0.00
   -6   15    6     -0.02      0.00
   -5   15    6     -1.09      0.00
   -4   15    6      0.69      0.00
   -3   15    6     -1.18      0.00
   -2   15    6      1.15      0.00
   -1   15    6     -0.62      0.00
    0   15    6      0.17      0.00
    3   15    6     -0.82      0.00
    4   15    6      0.92      0.00
  -19    0    7      1.16      0.00
  -17    0    7      7.87      0.00
  -15    0    7     -1.67      0.00
  -13    0    7     -2.46      0.00
  -11    0    7      1.80      0.00
   -9    0    7      3.76      0.00
   -7    0    7    -17.13      0.00
   -5    0    7    -18.75      0.00
   -3    0    7     21.52      0.00
   -1    0    7      7.31      0.00
    1    0    7      5.02      0.00
    3    0    7     -1.24      0.00
    5    0    7      5.75      0.00
    7    0    7     -2.76      0.00
    9    0    7     -5.30      0.00
   11    0    7      1.89      0.00
   13    0    7     -0.90      0.00
   15    0    7     -1.22      0.00
   17    0    7      0.43      0.00
  -20    1    7      0.39      0.00
  -19    1    7      1.83      0.00
  -18    1    7     -3.59      0.00
  -17    1    7      0.04      0.00
  -16    1    7     -4.28      0.00
  -15    1    7     -2.69      0.00
  -14    1    7      4.06      0.00
  -13    1    7      2.73      0.00
  -12    1    7     -1.17      0.00
  -11    1    7      0.34      0.00
  -10    1    7     -3.57      0.00
   -9    1    7      0.06      0.00
   -8    1    7      4.39      0.00
   -7    1    7     -3.32      0.00
   -6    1    7     21.49      0.00
   -5    1    7     12.35      0.00
   -4    1    7      7.17      0.00
   -3    1    7      1.10      0.00
   -2    1    7    -18.03      0.00
   -1    1    7    -15.64      0.00
    0    1    7     -1.04      0.00
    1    1    7      0.52      0.00
    2    1    7     -9.36      0.00
    3    1    7     -5.60      0.00
    4    1    7      1.98      0.00
    5    1    7      2.99      0.00
    6    1    7     -7.35      0.00
    7    1    7     -3.30      0.00
    8    1    7      6.75      0.00
    9    1    7      6.16      0.00
   10    1    7     -0.23      0.00
   11    1    7      1.23      0.00
   12    1    7      1.44      0.00
   13    1    7     -1.10      0.00
   14    1    7      1.56      0.00
   15    1    7     -1.19      0.00
   16    1    7      0.10      0.00
   17    1    7     -0.65      0.00
  -19    2    7     -0.37      0.00
  -18    2    7     -1.67      0.00
  -17    2    7      2.52      0.00
  -16    2    7      3.92      0.00
  -15    2    7      0.30      0.00
  -14    2    7     -1.31      0.00
  -13    2    7      0.00      0.00
  -12    2    7     -2.01      0.00
  -11    2    7      1.70      0.00
  -10    2    7     -0.27      0.00
   -9    2    7      2.15      0.00
   -8    2    7      8.95      0.00
   -7    2    7    -11.36      0.00
   -6    2    7     -5.04      0.00
   -5    2    7    -17.73      0.00
   -4    2    7    -19.25      0.00
   -3    2    7    -10.95      0.00
   -2    2    7     14.89      0.00
   -1    2    7      9.15      0.00
    0    2    7      4.51      0.00
    1    2    7      9.46      0.00
    2    2    7      4.03      0.00
    3    2    7      3.77      0.00
    4    2    7     -0.22      0.00
    5    2    7      6.18      0.00
    6    2    7      3.84      0.00
    7    2    7      1.39      0.00
    8    2    7     -1.92      0.00
    9    2    7      0.22      0.00
   10    2    7     -6.60      0.00
   11    2    7     -4.22      0.00
   12    2    7      0.98      0.00
   13    2    7     -2.26      0.00
   14    2    7      1.54      0.00
   15    2    7     -0.67      0.00
   16    2    7      0.77      0.00
   17    2    7     -0.32      0.00
  -19    3    7      0.07      0.00
  -18    3    7      0.39      0.00
  -17    3    7     -0.26      0.00
  -16    3    7     -0.54      0.00
  -15    3    7     -3.36      0.00
  -14    3    7     -2.84      0.00
  -13    3    7      3.17      0.00
  -12    3    7      1.04      0.00
  -11    3    7      1.92      0.00
  -10    3    7     -2.09      0.00
   -9    3    7     -6.25      0.00
   -8    3    7      3.74      0.00
   -7    3    7     -6.92      0.00
   -6    3    7      3.74      0.00
   -5    3    7     10.54      0.00
   -4    3    7     25.30      0.00
   -3    3    7      9.19      0.00
   -2    3    7      7.77      0.00
   -1    3    7     -9.62      0.00
    0    3    7    -13.02      0.00
    1    3    7      4.45      0.00
    2    3    7     -3.57      0.00
    3    3    7     -4.46      0.00
    4    3    7     -6.88      0.00
    5    3    7      1.46      0.00
    6    3    7     -3.61      0.00
    7    3    7     -4.65      0.00
    8    3    7     -6.46      0.00
    9    3    7      5.21      0.00
   10    3    7      4.09      0.00
   11    3    7      0.04      0.00
   12    3    7      5.22      0.00
   13    3    7     -0.62      0.00
   14    3    7      1.07      0.00
   15    3    7      0.38      0.00
   16    3    7     -0.76      0.00
  -19    4    7      0.00      0.00
  -18    4    7     -1.14      0.00
  -17    4    7     -0.96      0.00
  -16    4    7      2.17      0.00
  -15    4    7      3.00      0.00
  -14    4    7     -0.13      0.00
  -13    4    7     -0.07      0.00
  -12    4    7     -2.42      0.00
  -11    4    7     -0.86      0.00
  -10    4    7     -2.33      0.00
   -9    4    7     -2.02      0.00
   -8    4    7      6.75      0.00
   -7    4    7      2.30      0.00
   -6    4    7      1.79      0.00
   -5    4    7     -5.53      0.00
   -4    4    7     -0.38      0.00
   -3    4    7    -22.70      0.00
   -2    4    7     -7.43      0.00
   -1    4    7      7.01      0.00
    0    4    7     -1.75      0.00
    1    4    7      6.30      0.00
    2    4    7     -0.73      0.00
    3    4    7      2.27      0.00
    4    4    7     -2.86      0.00
    5    4    7      3.54      0.00
    6    4    7      1.47      0.00
    7    4    7      7.26      0.00
    8    4    7     -1.43      0.00
    9    4    7      3.30      0.00
   10    4    7      3.02      0.00
   11    4    7     -7.52      0.00
   12    4    7      0.09      0.00
   13    4    7     -2.46      0.00
   14    4    7     -0.51      0.00
   15    4    7      0.45      0.00
   16    4    7     -1.50      0.00
  -19    5    7     -0.11      0.00
  -18    5    7     -1.90      0.00
  -17    5    7      0.63      0.00
  -16    5    7      1.41      0.00
  -15    5    7     -1.29      0.00
  -14    5    7     -3.28      0.00
  -13    5    7      0.03      0.00
  -12    5    7      1.16      0.00
  -11    5    7      5.05      0.00
  -10    5    7      2.42      0.00
   -9    5    7     -0.20      0.00
   -8    5    7      0.75      0.00
   -7    5    7      0.31      0.00
   -6    5    7     -1.58      0.00
   -5    5    7    -14.93      0.00
   -3    5    7      2.78      0.00
   -2    5    7      5.61      0.00
   -1    5    7      7.43      0.00
    0    5    7    -11.27      0.00
    1    5    7      1.11      0.00
    2    5    7      0.20      0.00
    3    5    7      1.87      0.00
    4    5    7     -1.35      0.00
    5    5    7      3.25      0.00
    6    5    7     -1.70      0.00
    7    5    7      3.23      0.00
    8    5    7     -6.52      0.00
    9    5    7     -5.19      0.00
   10    5    7      3.56      0.00
   11    5    7     -2.44      0.00
   12    5    7      2.91      0.00
   13    5    7      1.04      0.00
   14    5    7      0.31      0.00
   15    5    7      0.59      0.00
   16    5    7     -2.09      0.00
  -18    6    7     -0.15      0.00
  -17    6    7      0.54      0.00
  -16    6    7     -0.01      0.00
  -15    6    7      1.26      0.00
  -14    6    7      2.11      0.00
  -13    6    7      1.87      0.00
  -12    6    7     -2.14      0.00
  -11    6    7      0.46      0.00
  -10    6    7     -2.65      0.00
   -8    6    7     -2.59      0.00
   -7    6    7     -2.88      0.00
   -6    6    7      6.57      0.00
   -5    6    7     -7.54      0.00
   -4    6    7     13.51      0.00
   -3    6    7      2.02      0.00
   -2    6    7     -7.59      0.00
   -1    6    7      6.15      0.00
    0    6    7     -1.12      0.00
    1    6    7      5.65      0.00
    2    6    7      2.93      0.00
    3    6    7      0.41      0.00
    4    6    7     -2.18      0.00
    5    6    7     -2.51      0.00
    6    6    7     -5.49      0.00
    7    6    7      2.81      0.00
    8    6    7      0.10      0.00
    9    6    7     -1.76      0.00
   10    6    7      6.00      0.00
   11    6    7     -0.88      0.00
   12    6    7     -2.19      0.00
   13    6    7     -0.14      0.00
   14    6    7     -0.36      0.00
   15    6    7      0.67      0.00
  -18    7    7     -2.60      0.00
  -17    7    7     -1.14      0.00
  -16    7    7     -0.79      0.00
  -15    7    7      1.37      0.00
  -14    7    7     -0.55      0.00
  -13    7    7     -2.39      0.00
  -12    7    7     -4.61      0.00
  -11    7    7      1.58      0.00
  -10    7    7      1.90      0.00
   -9    7    7      2.00      0.00
   -6    7    7     15.47      0.00
   -4    7    7     -1.22      0.00
   -3    7    7      0.49      0.00
   -2    7    7     -6.68      0.00
   -1    7    7      3.01      0.00
    0    7    7     -7.37      0.00
    1    7    7     -6.74      0.00
    2    7    7     -1.56      0.00
    3    7    7     -3.59      0.00
    4    7    7     -0.65      0.00
    5    7    7      3.58      0.00
    6    7    7     -0.64      0.00
    7    7    7      4.87      0.00
    8    7    7      2.61      0.00
    9    7    7     -2.97      0.00
   10    7    7      1.47      0.00
   11    7    7      0.56      0.00
   12    7    7     -0.94      0.00
   13    7    7      1.33      0.00
   14    7    7      0.87      0.00
   15    7    7     -1.42      0.00
  -17    8    7      1.27      0.00
  -16    8    7     -0.17      0.00
  -15    8    7     -0.94      0.00
  -14    8    7     -0.33      0.00
  -13    8    7      1.52      0.00
  -12    8    7      1.31      0.00
  -11    8    7      3.27      0.00
  -10    8    7     -0.49      0.00
   -9    8    7     -2.03      0.00
   -8    8    7      0.67      0.00
   -4    8    7     -4.31      0.00
   -3    8    7      6.94      0.00
   -2    8    7     -2.24      0.00
   -1    8    7      2.86      0.00
    0    8    7      2.96      0.00
    1    8    7      1.32      0.00
    2    8    7      8.34      0.00
    3    8    7      3.61      0.00
    4    8    7      1.49      0.00
    5    8    7      4.11      0.00
    6    8    7     -5.42      0.00
    7    8    7      0.28      0.00
    8    8    7     -0.84      0.00
    9    8    7     -3.69      0.00
   10    8    7     -0.81      0.00
   11    8    7      0.63      0.00
   12    8    7     -0.62      0.00
   13    8    7     -1.66      0.00
   14    8    7      0.32      0.00
  -16    9    7     -0.66      0.00
  -15    9    7     -1.37      0.00
  -14    9    7      2.74      0.00
  -13    9    7      1.81      0.00
  -12    9    7     -2.21      0.00
  -11    9    7     -0.91      0.00
  -10    9    7     -1.17      0.00
   -9    9    7     -2.79      0.00
   -8    9    7      0.71      0.00
   -7    9    7     -4.95      0.00
   -5    9    7      6.85      0.00
   -4    9    7      0.52      0.00
   -3    9    7      4.82      0.00
   -2    9    7     -0.23      0.00
   -1    9    7     -0.28      0.00
    0    9    7      2.95      0.00
    1    9    7     -5.31      0.00
    2    9    7     -0.88      0.00
    3    9    7     -3.70      0.00
    4    9    7     -7.26      0.00
    5    9    7      3.17      0.00
    6    9    7     -5.05      0.00
    7    9    7      0.08      0.00
    8    9    7      2.17      0.00
    9    9    7      1.45      0.00
   10    9    7      1.14      0.00
   11    9    7      0.18      0.00
   12    9    7      2.54      0.00
   13    9    7      0.28      0.00
  -15   10    7      0.69      0.00
  -14   10    7     -0.76      0.00
  -13   10    7     -2.65      0.00
  -12   10    7     -3.45      0.00
  -11   10    7      1.41      0.00
  -10   10    7      1.99      0.00
   -9   10    7      0.25      0.00
   -8   10    7      4.50      0.00
   -7   10    7     -0.04      0.00
   -6   10    7      1.21      0.00
   -5   10    7     -0.75      0.00
   -4   10    7     -6.94      0.00
   -3   10    7     -1.62      0.00
   -2   10    7      1.61      0.00
   -1   10    7     -3.51      0.00
    0   10    7      2.29      0.00
    1   10    7     -3.76      0.00
    2   10    7     -0.35      0.00
    3   10    7      4.15      0.00
    4   10    7     -2.54      0.00
    5   10    7      6.70      0.00
    6   10    7     -0.06      0.00
    7   10    7      1.75      0.00
    8   10    7      2.60      0.00
    9   10    7     -1.30      0.00
   10   10    7     -0.71      0.00
   11   10    7     -2.05      0.00
   12   10    7      0.48      0.00
  -14   11    7     -0.69      0.00
  -13   11    7      3.98      0.00
  -12   11    7      2.35      0.00
  -11   11    7      2.11      0.00
  -10   11    7      1.04      0.00
   -9   11    7      0.45      0.00
   -8   11    7      1.17      0.00
   -7   11    7     -4.42      0.00
   -6   11    7     -1.69      0.00
   -5   11    7      1.01      0.00
   -4   11    7      0.52      0.00
   -3   11    7     -2.45      0.00
   -2   11    7      1.95      0.00
   -1   11    7     -3.61      0.00
    0   11    7      1.22      0.00
    1   11    7      0.49      0.00
    2   11    7      0.25      0.00
    3   11    7      5.63      0.00
    4   11    7     -3.52      0.00
    5   11    7      1.68      0.00
    6   11    7     -0.41      0.00
    7   11    7     -3.12      0.00
    8   11    7     -1.90      0.00
    9   11    7     -1.46      0.00
   10   11    7      0.80      0.00
   11   11    7     -0.25      0.00
  -13   12    7     -0.33      0.00
  -12   12    7     -3.11      0.00
  -11   12    7     -2.52      0.00
  -10   12    7     -2.06      0.00
   -9   12    7     -1.61      0.00
   -8   12    7     -0.64      0.00
   -7   12    7     -2.60      0.00
   -6   12    7      1.68      0.00
   -5   12    7      0.06      0.00
   -4   12    7      3.07      0.00
   -3   12    7     -2.31      0.00
   -2   12    7      3.99      0.00
   -1   12    7      2.74      0.00
    0   12    7      2.95      0.00
    1   12    7      3.05      0.00
    2   12    7     -4.16      0.00
    3   12    7      0.57      0.00
    4   12    7     -2.77      0.00
    5   12    7     -1.80      0.00
    6   12    7     -0.04      0.00
    7   12    7     -1.02      0.00
    8   12    7      0.07      0.00
    9   12    7      2.42      0.00
   10   12    7      0.56      0.00
  -11   13    7      0.63      0.00
  -10   13    7     -1.29      0.00
   -9   13    7      1.59      0.00
   -8   13    7      3.56      0.00
   -7   13    7      1.42      0.00
   -6   13    7      2.13      0.00
   -5   13    7     -0.87      0.00
   -4   13    7      3.29      0.00
   -3   13    7     -1.61      0.00
   -2   13    7      0.32      0.00
   -1   13    7     -1.82      0.00
    0   13    7     -4.97      0.00
    1   13    7     -1.90      0.00
    2   13    7     -3.98      0.00
    3   13    7      1.53      0.00
    4   13    7      1.80      0.00
    5   13    7      1.12      0.00
    6   13    7      1.45      0.00
    7   13    7      2.56      0.00
    8   13    7      0.00      0.00
   -9   14    7      1.13      0.00
   -8   14    7      0.52      0.00
   -7   14    7     -2.25      0.00
   -6   14    7     -1.20      0.00
   -5   14    7     -2.01      0.00
   -4   14    7     -1.68      0.00
   -3   14    7     -2.40      0.00
   -2   14    7     -1.52      0.00
   -1   14    7     -0.51      0.00
    0   14    7      1.89      0.00
    1   14    7      4.14      0.00
    2   14    7      2.58      0.00
    3   14    7      0.19      0.00
    4   14    7     -1.33      0.00
    5   14    7      0.81      0.00
    6   14    7     -1.80      0.00
   -5   15    7      1.87      0.00
   -4   15    7      1.08      0.00
   -3   15    7      2.50      0.00
   -2   15    7      0.59      0.00
   -1   15    7      1.02      0.00
    0   15    7      1.67      0.00
    1   15    7     -1.28      0.00
    2   15    7     -0.37      0.00
  -18    0    8     -2.86      0.00
  -16    0    8      6.37      0.00
  -14    0    8     -0.54      0.00
  -12    0    8     -5.71      0.00
  -10    0    8     -5.22      0.00
   -8    0    8     14.69      0.00
   -6    0    8      8.21      0.00
   -4    0    8     -6.44      0.00
   -2    0    8     10.62      0.00
    0    0    8    -10.58      0.00
    2    0    8    -10.77      0.00
    4    0    8    -14.69      0.00
    6    0    8      6.54      0.00
    8    0    8      5.50      0.00
   10    0    8      1.44      0.00
   12    0    8      2.29      0.00
   14    0    8     -1.47      0.00
   16    0    8     -3.28      0.00
  -19    1    8      2.32      0.00
  -18    1    8      1.60      0.00
  -17    1    8     -0.52      0.00
  -16    1    8     -0.53      0.00
  -15    1    8     -4.76      0.00
  -14    1    8     -6.11      0.00
  -13    1    8      3.09      0.00
  -12    1    8     -1.17      0.00
  -11    1    8      3.24      0.00
  -10    1    8      4.65      0.00
   -9    1    8     -6.56      0.00
   -8    1    8      8.86      0.00
   -7    1    8    -13.51      0.00
   -6    1    8     -0.18      0.00
   -5    1    8      2.05      0.00
   -4    1    8      8.49      0.00
   -3    1    8      7.32      0.00
   -2    1    8     -3.25      0.00
   -1    1    8     -0.59      0.00
    0    1    8    -17.80      0.00
    1    1    8     13.24      0.00
    2    1    8     -1.45      0.00
    3    1    8      4.29      0.00
    4    1    8      2.52      0.00
    5    1    8      5.44      0.00
    6    1    8      8.06      0.00
    7    1    8     -8.99      0.00
    8    1    8     -2.74      0.00
    9    1    8     -0.44      0.00
   10    1    8      1.47      0.00
   11    1    8     -3.08      0.00
   12    1    8     -0.91      0.00
   13    1    8      0.26      0.00
   14    1    8     -0.87      0.00
   15    1    8      2.07      0.00
   16    1    8      0.72      0.00
  -19    2    8     -1.32      0.00
  -18    2    8     -1.79      0.00
  -17    2    8     -2.66      0.00
  -16    2    8      0.86      0.00
  -15    2    8      6.44      0.00
  -14    2    8      1.49      0.00
  -13    2    8      3.86      0.00
  -12    2    8      2.03      0.00
  -11    2    8     -1.17      0.00
  -10    2    8      5.51      0.00
   -9    2    8    -11.85      0.00
   -8    2    8     11.89      0.00
   -7    2    8      0.05      0.00
   -6    2    8      2.97      0.00
   -5    2    8     -0.56      0.00
   -4    2    8    -12.39      0.00
   -3    2    8    -11.42      0.00
   -2    2    8    -19.16      0.00
   -1    2    8     17.74      0.00
    0    2    8     -5.90      0.00
    1    2    8      8.35      0.00
    2    2    8      3.13      0.00
    3    2    8      0.60      0.00
    4    2    8      1.47      0.00
    5    2    8    -11.05      0.00
    6    2    8      2.89      0.00
    7    2    8      0.03      0.00
    8    2    8      0.47      0.00
    9    2    8      1.57      0.00
   10    2    8      2.75      0.00
   11    2    8     -1.54      0.00
   12    2    8     -0.60      0.00
   13    2    8      1.68      0.00
   14    2    8     -0.40      0.00
   15    2    8      1.19      0.00
   16    2    8     -0.10      0.00
  -19    3    8      0.78      0.00
  -18    3    8      1.87      0.00
  -17    3    8      1.85      0.00
  -16    3    8      1.09      0.00
  -15    3    8      1.24      0.00
  -14    3    8     -3.97      0.00
  -13    3    8     -4.40      0.00
  -12    3    8     -0.06      0.00
  -11    3    8     -5.74      0.00
  -10    3    8      5.39      0.00
   -9    3    8     -9.52      0.00
   -8    3    8      0.16      0.00
   -7    3    8     -2.36      0.00
   -6    3    8     -7.96      0.00
   -5    3    8     -1.97      0.00
   -4    3    8      1.72      0.00
   -3    3    8     26.91      0.00
   -2    3    8      5.55      0.00
   -1    3    8     17.87      0.00
    0    3    8     -8.04      0.00
    1    3    8     -7.75      0.00
    2    3    8      2.79      0.00
    3    3    8     -7.30      0.00
    4    3    8      0.11      0.00
    5    3    8     -4.31      0.00
    6    3    8      2.87      0.00
    7    3    8      3.44      0.00
    8    3    8     -4.41      0.00
    9    3    8     -3.17      0.00
   10    3    8      2.42      0.00
   11    3    8      0.19      0.00
   12    3    8      0.15      0.00
   13    3    8      1.18      0.00
   14    3    8     -1.16      0.00
   15    3    8      0.07      0.00
   16    3    8     -0.95      0.00
  -19    4    8      1.23      0.00
  -18    4    8     -0.95      0.00
  -17    4    8     -3.39      0.00
  -16    4    8     -3.05      0.00
  -15    4    8     -1.21      0.00
  -14    4    8      2.32      0.00
  -13    4    8     -1.33      0.00
  -12    4    8      3.05      0.00
  -11    4    8     -0.71      0.00
  -10    4    8      5.95      0.00
   -9    4    8     -0.15      0.00
   -8    4    8      1.17      0.00
   -7    4    8      9.14      0.00
   -6    4    8      6.03      0.00
   -5    4    8      6.22      0.00
   -4    4    8     -1.27      0.00
   -3    4    8     -0.07      0.00
   -2    4    8    -25.21      0.00
   -1    4    8     -9.23      0.00
    0    4    8     -1.72      0.00
    1    4    8     -6.12      0.00
    2    4    8      7.02      0.00
    3    4    8      2.37      0.00
    4    4    8      4.05      0.00
    5    4    8      4.12      0.00
    6    4    8     -3.20      0.00
    7    4    8      5.14      0.00
    8    4    8      1.18      0.00
    9    4    8     -2.08      0.00
   10    4    8      4.17      0.00
   11    4    8     -0.59      0.00
   12    4    8     -1.97      0.00
   13    4    8     -1.47      0.00
   14    4    8     -1.16      0.00
   15    4    8      1.17      0.00
   16    4    8     -0.50      0.00
  -18    5    8     -0.69      0.00
  -17    5    8     -1.07      0.00
  -16    5    8      2.64      0.00
  -15    5    8      1.23      0.00
  -14    5    8      2.06      0.00
  -13    5    8     -1.99      0.00
  -12    5    8      0.00      0.00
  -11    5    8     -0.46      0.00
  -10    5    8      0.99      0.00
   -9    5    8     -0.12      0.00
   -6    5    8      0.74      0.00
   -5    5    8     -9.63      0.00
   -4    5    8    -11.47      0.00
   -3    5    8      3.32      0.00
   -2    5    8      6.02      0.00
   -1    5    8     11.69      0.00
    0    5    8     10.98      0.00
    1    5    8     -1.42      0.00
    2    5    8      1.56      0.00
    3    5    8      1.88      0.00
    4    5    8     -6.86      0.00
    5    5    8      2.48      0.00
    6    5    8     -7.07      0.00
    7    5    8      0.33      0.00
    8    5    8      2.82      0.00
    9    5    8     -7.76      0.00
   10    5    8      0.42      0.00
   11    5    8     -0.75      0.00
   12    5    8      1.14      0.00
   13    5    8      1.63      0.00
   14    5    8      0.65      0.00
   15    5    8      2.10      0.00
  -18    6    8      1.82      0.00
  -17    6    8      0.98      0.00
  -16    6    8     -0.09      0.00
  -15    6    8     -1.23      0.00
  -14    6    8      0.30      0.00
  -13    6    8      1.96      0.00
  -12    6    8     -1.53      0.00
  -11    6    8     -0.65      0.00
  -10    6    8     -1.43      0.00
   -9    6    8     -0.68      0.00
   -8    6    8      1.26      0.00
   -7    6    8     -6.44      0.00
   -6    6    8      7.98      0.00
   -5    6    8      0.67      0.00
   -4    6    8      2.05      0.00
   -3    6    8     10.32      0.00
   -2    6    8     -1.55      0.00
   -1    6    8     -6.14      0.00
    0    6    8     -4.23      0.00
    1    6    8     -4.23      0.00
    2    6    8     -5.91      0.00
    3    6    8      3.84      0.00
    4    6    8     -4.84      0.00
    5    6    8      5.42      0.00
    6    6    8     -1.97      0.00
    7    6    8     -1.67      0.00
    8    6    8      7.58      0.00
    9    6    8     -3.65      0.00
   10    6    8      4.12      0.00
   11    6    8      2.20      0.00
   12    6    8      0.42      0.00
   13    6    8     -0.73      0.00
   14    6    8     -2.33      0.00
   15    6    8     -0.94      0.00
  -17    7    8     -1.33      0.00
  -16    7    8     -1.96      0.00
  -15    7    8      0.30      0.00
  -14    7    8     -0.43      0.00
  -13    7    8      2.47      0.00
  -12    7    8     -3.56      0.00
  -11    7    8     -0.99      0.00
  -10    7    8      2.33      0.00
   -9    7    8      0.07      0.00
   -8    7    8      6.62      0.00
   -7    7    8     -8.36      0.00
   -5    7    8      5.09      0.00
   -4    7    8     -7.23      0.00
   -3    7    8     -0.62      0.00
   -2    7    8     -5.22      0.00
   -1    7    8      3.01      0.00
    0    7    8      2.68      0.00
    1    7    8      3.32      0.00
    2    7    8     -0.93      0.00
    3    7    8      6.43      0.00
    4    7    8     -3.51      0.00
    5    7    8      2.35      0.00
    6    7    8      1.93      0.00
    7    7    8     -5.13      0.00
    8    7    8      5.50      0.00
    9    7    8     -3.39      0.00
   10    7    8     -2.64      0.00
   11    7    8     -1.77      0.00
   12    7    8     -1.58      0.00
   13    7    8      0.39      0.00
   14    7    8      0.54      0.00
  -17    8    8     -1.20      0.00
  -16    8    8      1.34      0.00
  -15    8    8      0.59      0.00
  -14    8    8     -1.59      0.00
  -13    8    8      2.48      0.00
  -12    8    8      0.51      0.00
  -11    8    8      1.32      0.00
  -10    8    8      4.73      0.00
   -9    8    8     -5.01      0.00
   -8    8    8      6.36      0.00
   -6    8    8     -1.17      0.00
   -5    8    8      1.22      0.00
   -4    8    8     -9.84      0.00
   -3    8    8      2.91      0.00
   -2    8    8     -0.30      0.00
   -1    8    8      1.35      0.00
    0    8    8     -1.73      0.00
    1    8    8     -0.88      0.00
    2    8    8     -3.18      0.00
    3    8    8      3.49      0.00
    4    8    8     -1.01      0.00
    5    8    8      0.34      0.00
    6    8    8      3.01      0.00
    7    8    8     -5.98      0.00
    8    8    8      2.83      0.00
    9    8    8     -0.07      0.00
   10    8    8     -0.96      0.00
   11    8    8      2.18      0.00
   12    8    8     -0.12      0.00
   13    8    8      0.72      0.00
  -16    9    8      1.43      0.00
  -15    9    8     -2.12      0.00
  -14    9    8     -1.63      0.00
  -13    9    8      1.52      0.00
  -12    9    8      0.32      0.00
  -11    9    8     -4.65      0.00
  -10    9    8      1.52      0.00
   -9    9    8     -5.33      0.00
   -8    9    8      2.61      0.00
   -7    9    8     -3.91      0.00
   -6    9    8     -4.83      0.00
   -5    9    8      9.31      0.00
   -4    9    8      1.39      0.00
   -3    9    8      4.50      0.00
   -2    9    8      1.13      0.00
   -1    9    8      0.55      0.00
    0    9    8      1.51      0.00
    1    9    8      1.00      0.00
    2    9    8     -2.34      0.00
    3    9    8      1.22      0.00
    4    9    8     -3.97      0.00
    5    9    8     -2.51      0.00
    6    9    8      3.26      0.00
    7    9    8     -3.08      0.00
    8    9    8     -0.02      0.00
    9    9    8      1.89      0.00
   10    9    8      0.69      0.00
   11    9    8      1.13      0.00
   12    9    8     -0.93      0.00
   13    9    8      1.38      0.00
  -15   10    8      0.81      0.00
  -14   10    8      0.95      0.00
  -13   10    8     -0.77      0.00
  -12   10    8      0.09      0.00
  -11   10    8     -3.41      0.00
  -10   10    8      3.54      0.00
   -9   10    8     -0.79      0.00
   -8   10    8      1.79      0.00
   -6   10    8     -1.14      0.00
   -5   10    8      3.62      0.00
   -4   10    8     -3.41      0.00
   -3   10    8     -5.95      0.00
   -2   10    8     -1.93      0.00
   -1   10    8     -2.19      0.00
    0   10    8     -0.11      0.00
    1   10    8      1.04      0.00
    2   10    8     -3.00      0.00
    3   10    8      2.33      0.00
    4   10    8      0.46      0.00
    5   10    8      0.56      0.00
    6   10    8      2.63      0.00
    7   10    8      0.87      0.00
    8   10    8      0.14      0.00
    9   10    8      1.47      0.00
   10   10    8     -1.03      0.00
   11   10    8     -0.80      0.00
   12   10    8      0.16      0.00
  -14   11    8     -1.77      0.00
  -13   11    8     -1.04      0.00
  -12   11    8      2.60      0.00
  -11   11    8     -0.03      0.00
  -10   11    8      1.58      0.00
   -9   11    8     -0.53      0.00
   -8   11    8      0.07      0.00
   -7   11    8      0.74      0.00
   -6   11    8     -6.01      0.00
   -5   11    8     -2.26      0.00
   -4   11    8      3.69      0.00
   -3   11    8      0.05      0.00
   -2   11    8      3.91      0.00
   -1   11    8      1.70      0.00
    0   11    8      0.00      0.00
    1   11    8      2.38      0.00
    2   11    8     -1.96      0.00
    3   11    8      2.49      0.00
    4   11    8      0.41      0.00
    5   11    8     -2.11      0.00
    6   11    8     -0.27      0.00
    7   11    8      1.07      0.00
    8   11    8     -2.19      0.00
    9   11    8     -1.39      0.00
   10   11    8     -0.71      0.00
  -12   12    8     -0.01      0.00
  -11   12    8      0.10      0.00
  -10   12    8     -1.29      0.00
   -9   12    8     -1.08      0.00
   -8   12    8      0.60      0.00
   -7   12    8      0.53      0.00
   -6   12    8      1.47      0.00
   -5   12    8     -0.16      0.00
   -4   12    8      3.15      0.00
   -3   12    8     -2.99      0.00
   -2   12    8     -2.39      0.00
   -1   12    8     -1.85      0.00
    0   12    8     -2.32      0.00
    1   12    8      3.05      0.00
    2   12    8     -1.13      0.00
    3   12    8     -0.14      0.00
    4   12    8     -0.02      0.00
    5   12    8     -0.61      0.00
    6   12    8     -0.57      0.00
    7   12    8      0.23      0.00
    8   12    8     -0.61      0.00
    9   12    8     -0.17      0.00
  -10   13    8     -1.35      0.00
   -9   13    8     -1.87      0.00
   -8   13    8      0.02      0.00
   -7   13    8     -0.46      0.00
   -6   13    8      1.73      0.00
   -5   13    8     -2.99      0.00
   -4   13    8      0.58      0.00
   -3   13    8      0.45      0.00
   -2   13    8      0.77      0.00
   -1   13    8      3.29      0.00
    0   13    8     -0.11      0.00
    1   13    8      0.96      0.00
    2   13    8     -2.18      0.00
    3   13    8     -0.77      0.00
    4   13    8     -0.01      0.00
    5   13    8      0.69      0.00
    6   13    8      0.18      0.00
    7   13    8     -0.37      0.00
   -8   14    8      1.34      0.00
   -7   14    8     -0.03      0.00
   -6   14    8      0.61      0.00
   -5   14    8      0.13      0.00
   -4   14    8      1.23      0.00
   -3   14    8      1.29      0.00
   -2   14    8     -1.21      0.00
   -1   14    8     -0.56      0.00
    0   14    8     -3.38      0.00
    1   14    8      0.26      0.00
    2   14    8      0.62      0.00
    3   14    8      2.17      0.00
    4   14    8     -0.75      0.00
    5   14    8     -0.49      0.00
   -2   15    8     -0.74      0.00
   -1   15    8      0.48      0.00
    0   15    8      0.41      0.00
  -19    0    9     -0.81      0.00
  -17    0    9     -5.68      0.00
  -15    0    9      2.65      0.00
  -13    0    9     -0.08      0.00
  -11    0    9     -0.79      0.00
   -9    0    9     -6.73      0.00
   -7    0    9     11.57      0.00
   -5    0    9      7.46      0.00
   -3    0    9    -10.84      0.00
   -1    0    9      6.03      0.00
    1    0    9     -2.70      0.00
    3    0    9      5.54      0.00
    5    0    9     -7.13      0.00
    7    0    9      3.70      0.00
    9    0    9     -0.72      0.00
   11    0    9     -2.71      0.00
   13    0    9      1.47      0.00
   15    0    9      3.31      0.00
  -19    1    9     -1.64      0.00
  -18    1    9      3.00      0.00
  -17    1    9      0.02      0.00
  -16    1    9      2.42      0.00
  -15    1    9      1.37      0.00
  -14    1    9     -2.26      0.00
  -13    1    9     -1.29      0.00
  -12    1    9      1.17      0.00
  -11    1    9     -1.00      0.00
  -10    1    9      5.85      0.00
   -9    1    9      0.02      0.00
   -8    1    9     -1.21      0.00
   -7    1    9     -1.05      0.00
   -6    1    9    -12.12      0.00
   -5    1    9    -11.21      0.00
   -4    1    9     -3.31      0.00
   -3    1    9      4.51      0.00
   -2    1    9      2.46      0.00
   -1    1    9      9.76      0.00
    0    1    9     -4.36      0.00
    1    1    9      0.96      0.00
    2    1    9      2.78      0.00
    3    1    9      1.89      0.00
    4    1    9     -0.34      0.00
    5    1    9     -0.96      0.00
    6    1    9      4.76      0.00
    7    1    9      1.18      0.00
    8    1    9     -3.24      0.00
    9    1    9     -6.11      0.00
   10    1    9      3.02      0.00
   11    1    9      0.09      0.00
   12    1    9     -0.99      0.00
   13    1    9      1.36      0.00
   14    1    9     -2.45      0.00
   15    1    9      0.75      0.00
   16    1    9     -1.10      0.00
  -19    2    9      0.03      0.00
  -18    2    9      1.08      0.00
  -17    2    9     -1.94      0.00
  -16    2    9     -3.48      0.00
  -15    2    9     -0.75      0.00
  -14    2    9      1.61      0.00
  -13    2    9     -0.60      0.00
  -12    2    9     -0.12      0.00
  -11    2    9     -3.92      0.00
  -10    2    9      2.11      0.00
   -9    2    9     -5.46      0.00
   -8    2    9     -5.52      0.00
   -7    2    9      4.60      0.00
   -6    2    9      9.50      0.00
   -5    2    9     14.13      0.00
   -4    2    9      9.25      0.00
   -3    2    9     11.90      0.00
   -2    2    9    -14.69      0.00
   -1    2    9      0.76      0.00
    0    2    9     -2.54      0.00
    1    2    9     -2.83      0.00
    2    2    9     -4.05      0.00
    3    2    9     -2.39      0.00
    4    2    9      3.15      0.00
    5    2    9     -5.16      0.00
    6    2    9     -4.58      0.00
    7    2    9     -1.96      0.00
    8    2    9      4.85      0.00
    9    2    9     -1.41      0.00
   10    2    9      4.42      0.00
   11    2    9      3.10      0.00
   12    2    9     -1.34      0.00
   13    2    9      1.26      0.00
   14    2    9     -1.77      0.00
   15    2    9      1.04      0.00
  -19    3    9     -0.69      0.00
  -18    3    9     -0.34      0.00
  -17    3    9      1.38      0.00
  -16    3    9      1.10      0.00
  -15    3    9      1.76      0.00
  -14    3    9      2.07      0.00
  -13    3    9     -0.99      0.00
  -12    3    9      1.41      0.00
  -11    3    9     -1.93      0.00
  -10    3    9      5.45      0.00
   -9    3    9      4.61      0.00
   -8    3    9      2.72      0.00
   -7    3    9      2.01      0.00
   -6    3    9     -2.73      0.00
   -5    3    9     -7.49      0.00
   -4    3    9    -26.64      0.00
   -3    3    9     -0.96      0.00
   -2    3    9     -8.22      0.00
   -1    3    9      6.94      0.00
    0    3    9      5.00      0.00
    1    3    9     -2.68      0.00
    2    3    9      2.86      0.00
    3    3    9      1.05      0.00
    4    3    9      5.19      0.00
    6    3    9      4.63      0.00
    7    3    9      2.12      0.00
    8    3    9      6.19      0.00
    9    3    9     -4.72      0.00
   10    3    9     -4.57      0.00
   11    3    9     -0.09      0.00
   12    3    9     -3.69      0.00
   13    3    9      0.76      0.00
   14    3    9     -0.67      0.00
   15    3    9     -0.45      0.00
  -19    4    9      0.76      0.00
  -18    4    9      1.50      0.00
  -17    4    9      0.94      0.00
  -16    4    9     -2.09      0.00
  -15    4    9     -2.89      0.00
  -14    4    9      0.75      0.00
  -13    4    9      0.30      0.00
  -12    4    9      1.67      0.00
  -11    4    9     -2.92      0.00
  -10    4    9      1.52      0.00
   -9    4    9     -2.63      0.00
   -8    4    9     -4.80      0.00
   -7    4    9     -6.61      0.00
   -6    4    9     -3.22      0.00
   -5    4    9     11.84      0.00
   -4    4    9     -0.06      0.00
   -3    4    9     21.33      0.00
   -2    4    9      3.68      0.00
   -1    4    9     -3.38      0.00
    0    4    9      3.80      0.00
    1    4    9     -2.86      0.00
    2    4    9      1.62      0.00
    3    4    9     -3.01      0.00
    4    4    9      0.00      0.00
    5    4    9     -2.94      0.00
    6    4    9     -2.59      0.00
    7    4    9     -8.52      0.00
    8    4    9      0.96      0.00
    9    4    9     -1.63      0.00
   10    4    9     -1.65      0.00
   11    4    9      5.55      0.00
   12    4    9      0.87      0.00
   13    4    9      2.65      0.00
   14    4    9      0.03      0.00
   15    4    9     -0.57      0.00
  -18    5    9      0.29      0.00
  -17    5    9     -0.66      0.00
  -16    5    9     -0.49      0.00
  -15    5    9      1.26      0.00
  -14    5    9      1.49      0.00
  -13    5    9     -1.35      0.00
  -12    5    9      0.25      0.00
  -11    5    9     -4.58      0.00
  -10    5    9      0.67      0.00
   -9    5    9     -0.32      0.00
   -8    5    9      3.61      0.00
   -7    5    9      1.83      0.00
   -6    5    9      0.76      0.00
   -5    5    9     14.24      0.00
   -4    5    9    -11.45      0.00
   -3    5    9     -5.50      0.00
   -2    5    9     -5.06      0.00
   -1    5    9     -6.25      0.00
    0    5    9      5.48      0.00
    1    5    9     -3.53      0.00
    2    5    9     -0.86      0.00
    3    5    9      0.71      0.00
    4    5    9     -0.88      0.00
    5    5    9      0.98      0.00
    6    5    9      3.64      0.00
    7    5    9     -1.47      0.00
    8    5    9      6.65      0.00
    9    5    9      4.71      0.00
   10    5    9     -1.74      0.00
   11    5    9      0.18      0.00
   12    5    9     -2.28      0.00
   13    5    9     -0.20      0.00
   14    5    9     -1.14      0.00
   15    5    9     -0.69      0.00
  -18    6    9      0.62      0.00
  -17    6    9      0.99      0.00
  -16    6    9      0.04      0.00
  -15    6    9     -1.80      0.00
  -14    6    9     -2.23      0.00
  -13    6    9     -0.43      0.00
  -12    6    9      3.86      0.00
  -11    6    9     -1.00      0.00
  -10    6    9      3.51      0.00
   -9    6    9      0.45      0.00
   -8    6    9      3.74      0.00
   -7    6    9      1.13      0.00
   -6    6    9     -9.90      0.00
   -5    6    9      4.75      0.00
   -4    6    9     -7.72      0.00
   -3    6    9      0.68      0.00
   -2    6    9      7.36      0.00
   -1    6    9     -4.03      0.00
    0    6    9      2.00      0.00
    1    6    9     -0.97      0.00
    2    6    9     -2.88      0.00
    3    6    9      3.91      0.00
    4    6    9     -0.85      0.00
    5    6    9      2.94      0.00
    6    6    9      3.41      0.00
    7    6    9     -4.67      0.00
    8    6    9     -1.17      0.00
    9    6    9     -1.31      0.00
   10    6    9     -3.45      0.00
   11    6    9     -0.36      0.00
   12    6    9      0.72      0.00
   13    6    9      0.80      0.00
   14    6    9     -0.17      0.00
  -17    7    9      0.50      0.00
  -16    7    9      0.61      0.00
  -15    7    9     -0.37      0.00
  -14    7    9      0.70      0.00
  -13    7    9      1.49      0.00
  -12    7    9      3.23      0.00
  -11    7    9     -3.39      0.00
  -10    7    9     -0.25      0.00
   -9    7    9     -3.68      0.00
   -8    7    9     -1.24      0.00
   -7    7    9     -0.98      0.00
   -6    7    9    -11.34      0.00
   -5    7    9      7.86      0.00
   -4    7    9      3.35      0.00
   -3    7    9     -2.34      0.00
   -2    7    9      2.12      0.00
   -1    7    9     -1.41      0.00
    0    7    9      4.01      0.00
    1    7    9      5.95      0.00
    2    7    9     -3.58      0.00
    3    7    9      4.45      0.00
    4    7    9     -3.21      0.00
    5    7    9     -4.01      0.00
    6    7    9      2.19      0.00
    7    7    9     -4.11      0.00
    8    7    9      0.24      0.00
    9    7    9      2.36      0.00
   10    7    9      1.30      0.00
   11    7    9     -0.04      0.00
   12    7    9     -0.03      0.00
   13    7    9      0.43      0.00
  -16    8    9      0.86      0.00
  -15    8    9      1.39      0.00
  -14    8    9     -0.90      0.00
  -13    8    9     -2.68      0.00
  -12    8    9     -0.22      0.00
  -11    8    9     -3.43      0.00
  -10    8    9      1.65      0.00
   -9    8    9     -0.87      0.00
   -8    8    9      1.12      0.00
   -7    8    9      8.49      0.00
   -6    8    9     -0.61      0.00
   -5    8    9      5.68      0.00
   -4    8    9      2.76      0.00
   -3    8    9     -3.45      0.00
   -2    8    9      1.39      0.00
   -1    8    9      0.38      0.00
    0    8    9     -4.51      0.00
    1    8    9      2.34      0.00
    2    8    9     -8.75      0.00
    3    8    9     -0.69      0.00
    4    8    9      0.14      0.00
    5    8    9     -4.05      0.00
    6    8    9      6.00      0.00
    7    8    9     -1.11      0.00
    8    8    9      1.37      0.00
    9    8    9      0.52      0.00
   10    8    9     -0.15      0.00
   11    8    9      0.49      0.00
   12    8    9     -0.74      0.00
   13    8    9      1.58      0.00
  -15    9    9      1.20      0.00
  -14    9    9     -1.96      0.00
  -13    9    9     -0.41      0.00
  -12    9    9      4.16      0.00
  -11    9    9      0.43      0.00
  -10    9    9      2.68      0.00
   -9    9    9      1.85      0.00
   -7    9    9      2.52      0.00
   -6    9    9     -7.36      0.00
   -5    9    9     -6.87      0.00
   -4    9    9     -0.03      0.00
   -3    9    9     -1.80      0.00
   -2    9    9     -3.56      0.00
   -1    9    9      0.46      0.00
    0    9    9     -4.61      0.00
    1    9    9      6.10      0.00
    2    9    9      0.64      0.00
    3    9    9      4.39      0.00
    4    9    9      7.60      0.00
    5    9    9     -4.85      0.00
    6    9    9      4.21      0.00
    7    9    9     -0.76      0.00
    8    9    9     -1.26      0.00
    9    9    9     -1.48      0.00
   10    9    9     -1.30      0.00
   11    9    9      0.91      0.00
   12    9    9     -3.12      0.00
  -14   10    9      0.85      0.00
  -13   10    9      1.00      0.00
  -12   10    9      1.99      0.00
  -11   10    9     -2.39      0.00
  -10   10    9     -1.13      0.00
   -9   10    9     -2.52      0.00
   -7   10    9     -0.32      0.00
   -6   10    9      1.72      0.00
   -5   10    9      1.49      0.00
   -4   10    9      4.96      0.00
   -3   10    9      3.47      0.00
   -2   10    9     -1.32      0.00
   -1   10    9      5.20      0.00
    0   10    9     -1.22      0.00
    1   10    9      3.19      0.00
    2   10    9     -0.73      0.00
    3   10    9     -5.69      0.00
    4   10    9      2.00      0.00
    5   10    9     -5.59      0.00
    6   10    9     -0.02      0.00
    7   10    9     -1.40      0.00
    8   10    9     -1.10      0.00
    9   10    9      1.74      0.00
   10   10    9      0.54      0.00
   11   10    9      2.32      0.00
  -13   11    9     -3.62      0.00
  -12   11    9     -1.95      0.00
  -11   11    9     -2.13      0.00
  -10   11    9      0.55      0.00
   -9   11    9      0.70      0.00
   -8   11    9      0.58      0.00
   -7   11    9      5.17      0.00
   -6   11    9      2.11      0.00
   -5   11    9     -2.32      0.00
   -4   11    9     -1.91      0.00
   -3   11    9      1.83      0.00
   -2   11    9     -2.38      0.00
   -1   11    9      1.43      0.00
    0   11    9     -2.45      0.00
    1   11    9     -1.64      0.00
    2   11    9     -0.51      0.00
    3   11    9     -3.82      0.00
    4   11    9      3.62      0.00
    5   11    9      0.38      0.00
    6   11    9      0.23      0.00
    7   11    9      2.41      0.00
    8   11    9      1.70      0.00
    9   11    9      0.33      0.00
   10   11    9     -0.62      0.00
  -12   12    9      2.15      0.00
  -11   12    9      1.94      0.00
  -10   12    9      2.79      0.00
   -9   12    9      1.64      0.00
   -8   12    9     -1.25      0.00
   -7   12    9     -0.28      0.00
   -6   12    9     -2.04      0.00
   -5   12    9     -0.19      0.00
   -4   12    9     -1.61      0.00
   -3   12    9      1.99      0.00
   -2   12    9     -2.24      0.00
   -1   12    9     -1.82      0.00
    0   12    9     -1.52      0.00
    1   12    9     -0.29      0.00
    2   12    9      3.44      0.00
    3   12    9      0.93      0.00
    4   12    9      0.93      0.00
    5   12    9      1.21      0.00
    6   12    9     -0.79      0.00
    7   12    9     -0.03      0.00
    8   12    9      0.00      0.00
  -10   13    9      0.42      0.00
   -9   13    9     -1.10      0.00
   -8   13    9     -2.99      0.00
   -7   13    9     -1.39      0.00
   -6   13    9     -0.06      0.00
   -5   13    9      0.41      0.00
   -4   13    9     -2.60      0.00
   -3   13    9      0.86      0.00
   -2   13    9     -0.09      0.00
   -1   13    9      2.45      0.00
    0   13    9      3.22      0.00
    1   13    9      1.82      0.00
    2   13    9      0.64      0.00
    3   13    9     -0.89      0.00
    4   13    9     -2.04      0.00
    5   13    9     -0.95      0.00
    6   13    9     -0.24      0.00
   -7   14    9      1.55      0.00
   -6   14    9      2.13      0.00
   -5   14    9      1.26      0.00
   -4   14    9      1.47      0.00
   -3   14    9      2.01      0.00
   -2   14    9      0.45      0.00
   -1   14    9      0.88      0.00
    0   14    9     -3.08      0.00
    1   14    9     -2.67      0.00
    2   14    9     -2.14      0.00
    3   14    9      0.31      0.00
  -18    0   10      2.68      0.00
  -16    0   10     -4.07      0.00
  -14    0   10      3.84      0.00
  -12    0   10      5.01      0.00
  -10    0   10      4.91      0.00
   -8    0   10    -14.91      0.00
   -6    0   10     -7.86      0.00
   -4    0   10     -2.57      0.00
   -2    0   10     -7.98      0.00
    0    0   10     13.26      0.00
    2    0   10      5.88      0.00
    4    0   10     11.21      0.00
    6    0   10     -8.46      0.00
    8    0   10     -0.81      0.00
   10    0   10     -1.05      0.00
   12    0   10     -1.83      0.00
   14    0   10     -1.07      0.00
  -19    1   10     -2.11      0.00
  -18    1   10     -0.49      0.00
  -17    1   10      0.67      0.00
  -16    1   10      2.89      0.00
  -15    1   10      1.37      0.00
  -14    1   10      3.60      0.00
  -13    1   10     -2.69      0.00
  -12    1   10      0.42      0.00
  -11    1   10     -4.93      0.00
  -10    1   10     -5.67      0.00
   -9    1   10      6.71      0.00
   -8    1   10     -4.19      0.00
   -7    1   10     11.35      0.00
   -6    1   10      1.15      0.00
   -5    1   10      3.32      0.00
   -4    1   10     -4.63      0.00
   -3    1   10      1.65      0.00
   -2    1   10      5.87      0.00
   -1    1   10     -1.68      0.00
    0    1   10      7.87      0.00
    1    1   10     -9.56      0.00
    2    1   10     -1.95      0.00
    3    1   10     -5.30      0.00
    4    1   10     -6.11      0.00
    5    1   10     -2.07      0.00
    6    1   10     -3.48      0.00
    7    1   10      5.06      0.00
    8    1   10      3.66      0.00
    9    1   10     -0.82      0.00
   10    1   10     -0.66      0.00
   11    1   10      2.52      0.00
   12    1   10      0.73      0.00
   13    1   10      1.24      0.00
   14    1   10     -0.35      0.00
   15    1   10     -0.49      0.00
  -19    2   10      1.48      0.00
  -18    2   10      0.59      0.00
  -17    2   10      0.80      0.00
  -16    2   10     -0.31      0.00
  -15    2   10     -6.53      0.00
  -14    2   10     -1.27      0.00
  -13    2   10     -1.29      0.00
  -12    2   10     -0.83      0.00
  -11    2   10      1.52      0.00
  -10    2   10     -2.38      0.00
   -9    2   10      9.42      0.00
   -8    2   10     -7.79      0.00
   -7    2   10     -2.92      0.00
   -6    2   10     -6.14      0.00
   -5    2   10      2.43      0.00
   -4    2   10      3.00      0.00
   -3    2   10      3.78      0.00
   -2    2   10      6.77      0.00
   -1    2   10    -13.10      0.00
    0    2   10      2.26      0.00
    1    2   10     -1.41      0.00
    2    2   10     -0.30      0.00
    3    2   10      1.97      0.00
    4    2   10      2.07      0.00
    5    2   10     10.43      0.00
    6    2   10      0.63      0.00
    7    2   10     -4.16      0.00
    8    2   10      0.91      0.00
    9    2   10     -1.22      0.00
   10    2   10     -2.89      0.00
   11    2   10      0.60      0.00
   12    2   10     -0.44      0.00
   13    2   10     -0.21      0.00
   14    2   10     -1.09      0.00
   15    2   10     -0.69      0.00
  -19    3   10     -0.96      0.00
  -18    3   10     -2.59      0.00
  -17    3   10     -1.51      0.00
  -16    3   10      0.30      0.00
  -15    3   10     -0.03      0.00
  -14    3   10      1.90      0.00
  -13    3   10      2.61      0.00
  -12    3   10      1.34      0.00
  -11    3   10      3.19      0.00
  -10    3   10     -4.37      0.00
   -9    3   10      3.72      0.00
   -8    3   10      2.02      0.00
   -7    3   10      3.43      0.00
   -6    3   10      3.24      0.00
   -5    3   10      7.00      0.00
   -4    3   10     -4.07      0.00
   -3    3   10    -14.08      0.00
   -2    3   10     -0.81      0.00
   -1    3   10     -5.48      0.00
    0    3   10      5.59      0.00
    1    3   10      5.36      0.00
    2    3   10     -0.76      0.00
    3    3   10      3.33      0.00
    4    3   10     -2.61      0.00
    6    3   10     -0.52      0.00
    7    3   10     -5.09      0.00
    8    3   10      3.50      0.00
    9    3   10      3.23      0.00
   10    3   10     -1.73      0.00
   11    3   10      0.85      0.00
   12    3   10     -1.08      0.00
   13    3   10      0.90      0.00
   14    3   10      1.64      0.00
   15    3   10      0.07      0.00
  -18    4   10      1.28      0.00
  -17    4   10      3.37      0.00
  -16    4   10      2.72      0.00
  -15    4   10      1.53      0.00
  -14    4   10     -1.75      0.00
  -13    4   10      0.58      0.00
  -12    4   10      0.07      0.00
  -11    4   10     -1.89      0.00
  -10    4   10     -2.28      0.00
   -9    4   10     -1.85      0.00
   -8    4   10      0.30      0.00
   -7    4   10     -4.46      0.00
   -6    4   10    -10.98      0.00
   -5    4   10     -1.49      0.00
   -4    4   10     -0.63      0.00
   -3    4   10      3.74      0.00
   -2    4   10     13.18      0.00
   -1    4   10      3.84      0.00
    0    4   10     -1.37      0.00
    1    4   10      1.72      0.00
    2    4   10     -4.46      0.00
    3    4   10     -2.59      0.00
    4    4   10     -1.00      0.00
    6    4   10      6.92      0.00
    7    4   10     -3.09      0.00
    8    4   10     -1.19      0.00
    9    4   10      2.25      0.00
   10    4   10     -3.09      0.00
   11    4   10      0.91      0.00
   12    4   10     -0.68      0.00
   13    4   10      0.89      0.00
   14    4   10      0.58      0.00
  -18    5   10     -0.45      0.00
  -17    5   10     -0.84      0.00
  -16    5   10     -2.59      0.00
  -15    5   10     -0.84      0.00
  -14    5   10     -1.36      0.00
  -13    5   10     -1.27      0.00
  -12    5   10      1.55      0.00
  -11    5   10     -1.82      0.00
  -10    5   10      2.26      0.00
   -9    5   10     -0.91      0.00
   -8    5   10      2.34      0.00
   -7    5   10      7.39      0.00
   -6    5   10     -3.17      0.00
   -5    5   10     11.15      0.00
   -4    5   10      6.85      0.00
   -3    5   10     -3.43      0.00
   -2    5   10     -6.67      0.00
   -1    5   10     -6.71      0.00
    0    5   10     -5.13      0.00
    1    5   10      0.55      0.00
    2    5   10     -0.63      0.00
    3    5   10     -0.06      0.00
    4    5   10      6.02      0.00
    5    5   10     -4.28      0.00
    6    5   10      5.33      0.00
    7    5   10     -1.33      0.00
    8    5   10     -3.42      0.00
    9    5   10      5.29      0.00
   10    5   10     -0.54      0.00
   11    5   10      1.54      0.00
   12    5   10     -1.49      0.00
   13    5   10     -0.85      0.00
   14    5   10      1.08      0.00
  -17    6   10     -0.53      0.00
  -16    6   10      1.72      0.00
  -15    6   10      0.82      0.00
  -14    6   10      0.89      0.00
  -13    6   10     -2.72      0.00
  -12    6   10      3.66      0.00
  -11    6   10     -0.71      0.00
  -10    6   10      1.49      0.00
   -9    6   10     -0.31      0.00
   -8    6   10     -4.40      0.00
   -7    6   10      8.33      0.00
   -6    6   10     -9.76      0.00
   -5    6   10     -2.94      0.00
   -4    6   10     -3.81      0.00
   -3    6   10     -5.21      0.00
   -2    6   10      4.04      0.00
   -1    6   10      4.73      0.00
    0    6   10      3.29      0.00
    1    6   10      4.68      0.00
    2    6   10      3.51      0.00
    3    6   10     -2.40      0.00
    4    6   10      4.07      0.00
    5    6   10     -5.22      0.00
    6    6   10      2.26      0.00
    7    6   10      1.87      0.00
    8    6   10     -4.75      0.00
    9    6   10      1.99      0.00
   10    6   10     -2.92      0.00
   11    6   10     -0.34      0.00
   12    6   10     -0.37      0.00
   13    6   10      0.07      0.00
  -17    7   10      0.13      0.00
  -16    7   10      1.09      0.00
  -15    7   10     -0.80      0.00
  -14    7   10      1.85      0.00
  -13    7   10     -3.11      0.00
  -12    7   10      3.10      0.00
  -11    7   10     -0.21      0.00
  -10    7   10     -2.15      0.00
   -9    7   10      2.50      0.00
   -8    7   10     -6.51      0.00
   -7    7   10      8.69      0.00
   -6    7   10     -5.92      0.00
   -5    7   10     -1.87      0.00
   -4    7   10      7.53      0.00
   -3    7   10      2.43      0.00
   -2    7   10      1.76      0.00
   -1    7   10     -3.81      0.00
    1    7   10     -1.72      0.00
    2    7   10     -2.07      0.00
    3    7   10     -5.35      0.00
    4    7   10      3.71      0.00
    5    7   10     -3.20      0.00
    6    7   10     -1.11      0.00
    7    7   10      3.73      0.00
    8    7   10     -3.47      0.00
    9    7   10      1.84      0.00
   10    7   10      2.17      0.00
   11    7   10      1.64      0.00
   12    7   10      0.61      0.00
   13    7   10     -0.55      0.00
  -16    8   10     -1.74      0.00
  -15    8   10     -0.07      0.00
  -14    8   10      1.45      0.00
  -13    8   10     -3.15      0.00
  -12    8   10     -0.22      0.00
  -11    8   10     -0.16      0.00
  -10    8   10     -3.25      0.00
   -9    8   10      4.61      0.00
   -8    8   10     -7.55      0.00
   -7    8   10      4.69      0.00
   -6    8   10      2.75      0.00
   -5    8   10     -2.08      0.00
   -4    8   10      3.14      0.00
   -3    8   10     -3.20      0.00
   -2    8   10     -1.43      0.00
   -1    8   10      1.41      0.00
    0    8   10     -0.23      0.00
    1    8   10      3.39      0.00
    2    8   10      3.13      0.00
    3    8   10     -3.22      0.00
    4    8   10      3.18      0.00
    5    8   10     -0.50      0.00
    6    8   10     -1.54      0.00
    7    8   10      3.53      0.00
    8    8   10     -0.83      0.00
    9    8   10     -0.15      0.00
   10    8   10     -0.59      0.00
   11    8   10     -1.29      0.00
   12    8   10      0.28      0.00
  -15    9   10      2.00      0.00
  -14    9   10      1.16      0.00
  -13    9   10     -0.62      0.00
  -12    9   10      0.16      0.00
  -11    9   10      2.75      0.00
  -10    9   10     -1.34      0.00
   -9    9   10      4.22      0.00
   -8    9   10     -1.23      0.00
   -7    9   10      2.68      0.00
   -6    9   10      3.54      0.00
   -5    9   10     -6.96      0.00
   -4    9   10     -1.89      0.00
   -3    9   10      1.10      0.00
   -2    9   10     -0.12      0.00
   -1    9   10      1.49      0.00
    0    9   10     -2.38      0.00
    1    9   10     -0.38      0.00
    2    9   10      1.50      0.00
    3    9   10     -2.89      0.00
    4    9   10      4.25      0.00
    5    9   10      0.35      0.00
    6    9   10     -2.35      0.00
    7    9   10      0.12      0.00
    8    9   10      0.35      0.00
    9    9   10     -1.21      0.00
   10    9   10     -1.27      0.00
   11    9   10      0.02      0.00
  -14   10   10     -0.12      0.00
  -13   10   10      0.74      0.00
  -12   10   10      0.21      0.00
  -11   10   10      1.58      0.00
  -10   10   10     -1.52      0.00
   -9   10   10      0.77      0.00
   -8   10   10     -2.12      0.00
   -7   10   10     -6.17      0.00
   -6   10   10      0.48      0.00
   -5   10   10      0.09      0.00
   -4   10   10      0.76      0.00
   -3   10   10      5.09      0.00
   -2   10   10     -0.86      0.00
   -1   10   10      1.17      0.00
    0   10   10     -0.56      0.00
    1   10   10     -0.59      0.00
    2   10   10      3.42      0.00
    3   10   10     -2.85      0.00
    4   10   10      0.00      0.00
    5   10   10     -0.61      0.00
    6   10   10      0.21      0.00
    7   10   10     -1.03      0.00
    8   10   10      0.58      0.00
    9   10   10     -0.27      0.00
   10   10   10      0.17      0.00
  -13   11   10     -0.24      0.00
  -12   11   10     -0.75      0.00
  -11   11   10     -1.27      0.00
  -10   11   10     -2.20      0.00
   -9   11   10      0.91      0.00
   -8   11   10      0.94      0.00
   -7   11   10      0.99      0.00
   -6   11   10      4.99      0.00
   -5   11   10      3.41      0.00
   -4   11   10     -5.31      0.00
   -3   11   10      0.06      0.00
   -2   11   10     -2.99      0.00
   -1   11   10     -0.37      0.00
    0   11   10     -0.21      0.00
    1   11   10     -2.22      0.00
    2   11   10      1.43      0.00
    3   11   10     -2.56      0.00
    4   11   10     -0.26      0.00
    5   11   10      1.22      0.00
    6   11   10      1.21      0.00
    7   11   10     -1.19      0.00
    8   11   10      1.61      0.00
    9   11   10      1.41      0.00
  -11   12   10     -0.35      0.00
  -10   12   10      0.53      0.00
   -9   12   10      2.20      0.00
   -8   12   10      0.04      0.00
   -7   12   10     -1.12      0.00
   -6   12   10     -3.80      0.00
   -5   12   10      0.17      0.00
   -4   12   10     -3.13      0.00
   -3   12   10      3.17      0.00
   -2   12   10      2.46      0.00
   -1   12   10      2.06      0.00
    0   12   10      1.56      0.00
    1   12   10     -1.37      0.00
    2   12   10      1.42      0.00
    3   12   10      0.50      0.00
    4   12   10      0.37      0.00
    5   12   10     -0.17      0.00
    6   12   10      0.35      0.00
    7   12   10     -1.08      0.00
   -9   13   10      0.41      0.00
   -8   13   10      0.23      0.00
   -7   13   10      0.32      0.00
   -6   13   10     -0.51      0.00
   -5   13   10      4.29      0.00
   -4   13   10      0.11      0.00
   -3   13   10     -0.51      0.00
   -2   13   10     -2.19      0.00
   -1   13   10     -2.99      0.00
    0   13   10     -0.27      0.00
    1   13   10     -0.57      0.00
    2   13   10      1.16      0.00
    3   13   10      0.25      0.00
    4   13   10      0.06      0.00
    5   13   10     -0.88      0.00
   -5   14   10     -1.02      0.00
   -4   14   10     -1.43      0.00
   -3   14   10     -0.94      0.00
   -2   14   10      0.73      0.00
   -1   14   10      1.54      0.00
    0   14   10      2.64      0.00
    1   14   10     -0.60      0.00
  -19    0   11     -0.04      0.00
  -17    0   11      2.40      0.00
  -15    0   11     -3.52      0.00
  -13    0   11      0.57      0.00
  -11    0   11      0.04      0.00
   -9    0   11      6.83      0.00
   -7    0   11     -5.03      0.00
   -5    0   11      1.43      0.00
   -3    0   11      5.96      0.00
   -1    0   11     -7.16      0.00
    1    0   11      3.27      0.00
    3    0   11     -6.77      0.00
    5    0   11      5.30      0.00
    7    0   11     -4.00      0.00
    9    0   11      4.12      0.00
   11    0   11      2.73      0.00
   13    0   11     -0.03      0.00
  -19    1   11      1.42      0.00
  -18    1   11     -1.81      0.00
  -17    1   11     -1.20      0.00
  -16    1   11      0.42      0.00
  -15    1   11      0.02      0.00
  -14    1   11      0.59      0.00
  -13    1   11     -0.11      0.00
  -12    1   11      0.51      0.00
  -11    1   11      2.51      0.00
  -10    1   11     -6.93      0.00
   -9    1   11     -0.49      0.00
   -8    1   11     -0.71      0.00
   -7    1   11      4.14      0.00
   -6    1   11      3.44      0.00
   -5    1   11      8.01      0.00
   -4    1   11     -0.61      0.00
   -3    1   11     -5.55      0.00
   -2    1   11      1.91      0.00
   -1    1   11     -6.49      0.00
    0    1   11      3.88      0.00
    1    1   11     -2.04      0.00
    2    1   11      1.33      0.00
    3    1   11      1.30      0.00
    4    1   11     -0.33      0.00
    5    1   11     -0.96      0.00
    6    1   11     -1.48      0.00
    7    1   11      0.26      0.00
    8    1   11      0.65      0.00
    9    1   11      4.37      0.00
   10    1   11     -3.71      0.00
   11    1   11     -0.84      0.00
   12    1   11     -0.54      0.00
   13    1   11     -0.94      0.00
   14    1   11      1.93      0.00
  -18    2   11     -0.16      0.00
  -17    2   11      0.65      0.00
  -16    2   11      3.24      0.00
  -15    2   11      0.78      0.00
  -14    2   11     -1.02      0.00
  -13    2   11      0.60      0.00
  -12    2   11      0.44      0.00
  -11    2   11      4.21      0.00
   -9    2   11      6.70      0.00
   -8    2   11      2.05      0.00
   -7    2   11      0.38      0.00
   -6    2   11    -11.19      0.00
   -5    2   11     -8.25      0.00
   -4    2   11     -2.35      0.00
   -3    2   11     -7.94      0.00
   -2    2   11     11.32      0.00
   -1    2   11     -3.64      0.00
    0    2   11      2.12      0.00
    1    2   11     -1.25      0.00
    2    2   11      2.47      0.00
    3    2   11      0.26      0.00
    4    2   11     -3.80      0.00
    5    2   11      3.45      0.00
    6    2   11      4.49      0.00
    7    2   11      1.18      0.00
    8    2   11     -5.56      0.00
    9    2   11      1.77      0.00
   10    2   11     -2.01      0.00
   11    2   11     -1.32      0.00
   12    2   11      1.18      0.00
   13    2   11      0.00      0.00
   14    2   11      1.83      0.00
  -18    3   11      0.48      0.00
  -17    3   11     -1.95      0.00
  -16    3   11     -1.48      0.00
  -15    3   11     -0.52      0.00
  -14    3   11     -1.13      0.00
  -13    3   11     -1.30      0.00
  -12    3   11     -2.58      0.00
  -11    3   11      1.60      0.00
  -10    3   11     -5.69      0.00
   -9    3   11     -4.01      0.00
   -8    3   11     -6.79      0.00
   -7    3   11      2.26      0.00
   -6    3   11      0.76      0.00
   -5    3   11      5.55      0.00
   -4    3   11     19.43      0.00
   -3    3   11     -2.54      0.00
   -2    3   11      6.25      0.00
   -1    3   11     -3.93      0.00
    0    3   11     -0.56      0.00
    1    3   11      1.13      0.00
    2    3   11     -2.34      0.00
    3    3   11      1.39      0.00
    4    3   11     -1.68      0.00
    5    3   11     -2.05      0.00
    6    3   11     -3.65      0.00
    7    3   11     -0.18      0.00
    8    3   11     -4.22      0.00
    9    3   11      3.24      0.00
   10    3   11      3.57      0.00
   11    3   11      0.67      0.00
   12    3   11      1.32      0.00
   13    3   11     -1.91      0.00
   14    3   11      0.07      0.00
  -18    4   11     -0.83      0.00
  -17    4   11     -0.98      0.00
  -16    4   11      0.61      0.00
  -15    4   11      2.06      0.00
  -14    4   11     -0.61      0.00
  -13    4   11     -0.26      0.00
  -12    4   11      0.00      0.00
  -11    4   11      3.45      0.00
  -10    4   11      0.27      0.00
   -9    4   11      5.45      0.00
   -8    4   11      3.03      0.00
   -7    4   11     10.08      0.00
   -6    4   11      2.52      0.00
   -5    4   11    -11.77      0.00
   -4    4   11     -1.10      0.00
   -3    4   11    -14.39      0.00
   -2    4   11     -2.19      0.00
   -1    4   11      0.78      0.00
    0    4   11     -4.38      0.00
    1    4   11      2.40      0.00
    2    4   11     -1.18      0.00
    3    4   11      1.52      0.00
    4    4   11      1.33      0.00
    5    4   11     -0.26      0.00
    6    4   11      2.80      0.00
    7    4   11      7.21      0.00
    8    4   11     -0.66      0.00
    9    4   11     -0.04      0.00
   10    4   11      0.25      0.00
   11    4   11     -3.10      0.00
   12    4   11     -0.61      0.00
   13    4   11     -1.87      0.00
  -17    5   11      0.63      0.00
  -16    5   11      0.12      0.00
  -15    5   11     -0.11      0.00
  -14    5   11      0.56      0.00
  -13    5   11      1.24      0.00
  -12    5   11     -0.43      0.00
  -11    5   11      2.35      0.00
  -10    5   11     -2.09      0.00
   -9    5   11      0.67      0.00
   -8    5   11     -7.99      0.00
   -7    5   11     -3.03      0.00
   -6    5   11     -2.05      0.00
   -5    5   11     -9.97      0.00
   -4    5   11     10.10      0.00
   -3    5   11      6.19      0.00
   -2    5   11      2.48      0.00
   -1    5   11      6.06      0.00
    0    5   11     -2.47      0.00
    1    5   11      4.23      0.00
    2    5   11      1.22      0.00
    3    5   11     -3.39      0.00
    4    5   11      4.14      0.00
    5    5   11     -2.54      0.00
    6    5   11     -3.02      0.00
    7    5   11      0.25      0.00
    8    5   11     -5.15      0.00
    9    5   11     -2.98      0.00
   10    5   11      0.24      0.00
   11    5   11      0.90      0.00
   12    5   11      2.10      0.00
   13    5   11     -0.90      0.00
  -17    6   11     -1.36      0.00
  -16    6   11     -0.20      0.00
  -15    6   11      0.59      0.00
  -14    6   11      1.42      0.00
  -13    6   11     -0.90      0.00
  -12    6   11     -2.92      0.00
  -11    6   11      1.13      0.00
  -10    6   11     -3.85      0.00
   -9    6   11      2.25      0.00
   -8    6   11     -4.10      0.00
   -7    6   11      2.01      0.00
   -6    6   11     10.52      0.00
   -5    6   11     -0.77      0.00
   -4    6   11      2.26      0.00
   -3    6   11     -0.97      0.00
   -2    6   11     -5.85      0.00
   -1    6   11      3.06      0.00
    0    6   11     -4.19      0.00
    1    6   11     -2.13      0.00
    2    6   11      3.63      0.00
    3    6   11     -6.64      0.00
    4    6   11      3.04      0.00
    5    6   11     -2.78      0.00
    6    6   11     -3.08      0.00
    7    6   11      4.72      0.00
    8    6   11      1.58      0.00
    9    6   11      2.60      0.00
   10    6   11      1.24      0.00
   11    6   11      0.71      0.00
   12    6   11      0.28      0.00
   13    6   11     -0.79      0.00
  -16    7   11     -0.56      0.00
  -15    7   11     -0.60      0.00
  -14    7   11      0.26      0.00
  -13    7   11     -0.75      0.00
  -12    7   11     -1.84      0.00
  -11    7   11      3.47      0.00
  -10    7   11     -1.60      0.00
   -9    7   11      5.44      0.00
   -8    7   11      0.16      0.00
   -7    7   11      0.05      0.00
   -6    7   11      5.02      0.00
   -5    7   11     -5.98      0.00
   -4    7   11     -5.12      0.00
   -3    7   11      3.49      0.00
   -2    7   11     -0.73      0.00
   -1    7   11      1.02      0.00
    0    7   11     -0.62      0.00
    1    7   11     -4.25      0.00
    2    7   11      6.86      0.00
    3    7   11     -4.54      0.00
    4    7   11      3.47      0.00
    5    7   11      4.29      0.00
    6    7   11     -2.59      0.00
    7    7   11      3.56      0.00
    8    7   11     -1.73      0.00
    9    7   11     -1.64      0.00
   10    7   11     -2.13      0.00
   11    7   11     -0.44      0.00
   12    7   11      0.43      0.00
  -15    8   11     -1.25      0.00
  -14    8   11      1.05      0.00
  -13    8   11      1.81      0.00
  -12    8   11     -0.32      0.00
  -11    8   11      3.25      0.00
  -10    8   11     -2.20      0.00
   -9    8   11      2.38      0.00
   -8    8   11     -2.84      0.00
   -7    8   11     -7.30      0.00
   -6    8   11     -0.31      0.00
   -5    8   11     -0.10      0.00
   -4    8   11     -1.81      0.00
   -3    8   11      1.68      0.00
   -2    8   11     -1.18      0.00
   -1    8   11     -1.08      0.00
    0    8   11      4.12      0.00
    1    8   11     -4.87      0.00
    2    8   11      7.24      0.00
    3    8   11     -0.71      0.00
    4    8   11     -2.06      0.00
    5    8   11      4.09      0.00
    6    8   11     -4.52      0.00
    7    8   11      0.65      0.00
    8    8   11     -1.07      0.00
    9    8   11      1.22      0.00
   10    8   11      0.60      0.00
   11    8   11     -1.05      0.00
  -15    9   11     -1.20      0.00
  -14    9   11      0.84      0.00
  -13    9   11      0.02      0.00
  -12    9   11     -3.31      0.00
  -11    9   11     -0.34      0.00
  -10    9   11     -4.00      0.00
   -9    9   11     -1.03      0.00
   -8    9   11      0.47      0.00
   -7    9   11      0.88      0.00
   -6    9   11      5.40      0.00
   -5    9   11      5.91      0.00
   -4    9   11     -1.21      0.00
   -3    9   11      0.23      0.00
   -2    9   11      4.38      0.00
   -1    9   11     -0.05      0.00
    0    9   11      3.53      0.00
    1    9   11     -5.02      0.00
    2    9   11     -0.12      0.00
    3    9   11     -2.71      0.00
    4    9   11     -6.42      0.00
    5    9   11      3.54      0.00
    6    9   11     -2.21      0.00
    7    9   11      0.07      0.00
    8    9   11      0.39      0.00
    9    9   11      0.98      0.00
   10    9   11      1.10      0.00
  -12   10   11     -1.03      0.00
  -11   10   11      3.43      0.00
  -10   10   11      0.96      0.00
   -9   10   11      3.36      0.00
   -8   10   11      5.05      0.00
   -7   10   11     -0.37      0.00
   -6   10   11     -4.25      0.00
   -5   10   11     -0.77      0.00
   -4   10   11     -3.30      0.00
   -3   10   11     -3.10      0.00
   -2   10   11      0.25      0.00
   -1   10   11     -4.53      0.00
    0   10   11      0.22      0.00
    1   10   11     -1.67      0.00
    2   10   11      1.12      0.00
    3   10   11      5.16      0.00
    4   10   11     -0.98      0.00
    5   10   11      2.29      0.00
    6   10   11      0.67      0.00
    7   10   11      0.91      0.00
    8   10   11      0.36      0.00
    9   10   11     -0.89      0.00
  -12   11   11      1.35      0.00
  -11   11   11      2.61      0.00
  -10   11   11     -2.50      0.00
   -9   11   11     -3.58      0.00
   -8   11   11     -2.18      0.00
   -7   11   11     -4.17      0.00
   -6   11   11     -2.34      0.00
   -5   11   11      3.73      0.00
   -3   11   11     -0.73      0.00
   -2   11   11      1.72      0.00
   -1   11   11      0.69      0.00
    0   11   11      2.96      0.00
    1   11   11      0.96      0.00
    2   11   11      0.47      0.00
    3   11   11      2.14      0.00
    4   11   11     -1.43      0.00
    5   11   11     -1.74      0.00
    6   11   11      0.48      0.00
    7   11   11     -1.28      0.00
    8   11   11     -1.54      0.00
  -10   12   11     -0.87      0.00
   -9   12   11     -0.68      0.00
   -8   12   11      3.36      0.00
   -7   12   11      3.39      0.00
   -6   12   11      1.30      0.00
   -5   12   11      0.68      0.00
   -4   12   11     -0.40      0.00
   -3   12   11     -1.36      0.00
   -2   12   11      0.65      0.00
   -1   12   11      0.20      0.00
    0   12   11      0.03      0.00
    1   12   11     -1.89      0.00
    2   12   11     -1.87      0.00
    3   12   11     -1.76      0.00
    4   12   11      0.41      0.00
    5   12   11     -0.85      0.00
    6   12   11      1.07      0.00
   -8   13   11      0.61      0.00
   -7   13   11      0.26      0.00
   -6   13   11     -2.26      0.00
   -5   13   11     -0.41      0.00
   -4   13   11      1.75      0.00
   -3   13   11      0.64      0.00
   -2   13   11      0.48      0.00
   -1   13   11     -2.13      0.00
    0   13   11     -0.79      0.00
    1   13   11     -0.80      0.00
    2   13   11      0.65      0.00
    3   13   11      0.14      0.00
  -18    0   12     -0.69      0.00
  -16    0   12      2.05      0.00
  -14    0   12     -5.21      0.00
  -12    0   12     -6.12      0.00
  -10    0   12     -3.34      0.00
   -8    0   12     11.11      0.00
   -6    0   12      3.94      0.00
   -4    0   12      3.87      0.00
   -2    0   12      4.93      0.00
    4    0   12     -4.93      0.00
    6    0   12      7.83      0.00
    8    0   12     -2.95      0.00
   10    0   12      0.29      0.00
   12    0   12      0.58      0.00
  -18    1   12     -0.01      0.00
  -17    1   12     -1.79      0.00
  -16    1   12     -4.80      0.00
  -15    1   12      1.31      0.00
  -14    1   12     -1.15      0.00
  -13    1   12      2.41      0.00
  -12    1   12      0.65      0.00
  -11    1   12      6.48      0.00
  -10    1   12      5.73      0.00
   -9    1   12     -5.18      0.00
   -8    1   12     -0.68      0.00
   -7    1   12     -6.35      0.00
   -6    1   12     -1.66      0.00
   -5    1   12     -3.50      0.00
   -4    1   12      2.52      0.00
   -3    1   12     -3.76      0.00
   -2    1   12     -3.48      0.00
   -1    1   12      1.90      0.00
    1    1   12      4.41      0.00
    2    1   12      2.96      0.00
    3    1   12      3.45      0.00
    4    1   12      6.36      0.00
    5    1   12     -1.40      0.00
    6    1   12     -0.39      0.00
    7    1   12     -1.10      0.00
    8    1   12     -3.11      0.00
    9    1   12      1.47      0.00
   10    1   12      0.26      0.00
   11    1   12     -1.21      0.00
   12    1   12     -0.53      0.00
   13    1   12     -1.77      0.00
  -18    2   12      0.65      0.00
  -17    2   12      0.88      0.00
  -16    2   12      0.21      0.00
  -15    2   12      5.34      0.00
  -14    2   12      1.12      0.00
  -13    2   12      0.16      0.00
  -12    2   12     -0.53      0.00
  -11    2   12     -3.23      0.00
  -10    2   12     -1.56      0.00
   -9    2   12     -4.78      0.00
   -8    2   12      2.56      0.00
   -7    2   12      5.92      0.00
   -6    2   12      5.51      0.00
   -5    2   12     -3.60      0.00
   -4    2   12      1.64      0.00
   -3    2   12     -1.16      0.00
   -2    2   12     -0.30      0.00
   -1    2   12      6.73      0.00
    0    2   12      0.35      0.00
    1    2   12     -2.19      0.00
    2    2   12     -0.28      0.00
    3    2   12     -3.26      0.00
    4    2   12     -3.32      0.00
    5    2   12     -7.23      0.00
    6    2   12     -2.21      0.00
    7    2   12      6.07      0.00
    8    2   12     -1.45      0.00
    9    2   12      0.41      0.00
   10    2   12      2.23      0.00
   11    2   12     -0.10      0.00
   12    2   12      1.01      0.00
   13    2   12     -0.63      0.00
  -18    3   12      2.02      0.00
  -17    3   12      1.85      0.00
  -15    3   12     -1.23      0.00
  -14    3   12     -0.63      0.00
  -13    3   12     -1.42      0.00
  -12    3   12     -1.90      0.00
  -11    3   12      0.14      0.00
  -10    3   12      2.99      0.00
   -9    3   12      2.91      0.00
   -8    3   12     -4.74      0.00
   -7    3   12     -2.65      0.00
   -6    3   12     -0.72      0.00
   -5    3   12     -8.01      0.00
   -4    3   12      4.88      0.00
   -3    3   12      4.34      0.00
   -2    3   12     -1.07      0.00
   -1    3   12     -0.99      0.00
    0    3   12     -3.45      0.00
    1    3   12     -3.75      0.00
    2    3   12     -0.06      0.00
    3    3   12     -1.44      0.00
    4    3   12      4.47      0.00
    5    3   12      6.61      0.00
    6    3   12     -1.76      0.00
    7    3   12      4.71      0.00
    8    3   12     -1.64      0.00
    9    3   12     -2.76      0.00
   10    3   12      0.93      0.00
   11    3   12     -0.72      0.00
   12    3   12      1.78      0.00
   13    3   12     -1.37      0.00
  -17    4   12     -2.14      0.00
  -16    4   12     -2.41      0.00
  -15    4   12     -1.80      0.00
  -14    4   12      0.97      0.00
  -13    4   12      0.42      0.00
  -12    4   12     -1.66      0.00
  -11    4   12      3.73      0.00
  -10    4   12     -2.77      0.00
   -9    4   12      3.14      0.00
   -8    4   12     -2.93      0.00
   -7    4   12      1.33      0.00
   -6    4   12     12.44      0.00
   -5    4   12     -1.02      0.00
   -4    4   12      1.38      0.00
   -3    4   12     -3.55      0.00
   -2    4   12     -4.42      0.00
   -1    4   12      0.30      0.00
    0    4   12      2.46      0.00
    1    4   12      0.20      0.00
    2    4   12      4.58      0.00
    3    4   12      1.74      0.00
    4    4   12     -0.58      0.00
    5    4   12      1.70      0.00
    6    4   12     -8.65      0.00
    7    4   12      1.19      0.00
    8    4   12      1.31      0.00
    9    4   12     -2.29      0.00
   10    4   12      1.68      0.00
   11    4   12     -1.30      0.00
   12    4   12      1.21      0.00
   13    4   12      0.04      0.00
  -17    5   12      1.16      0.00
  -16    5   12      2.01      0.00
  -15    5   12      1.21      0.00
  -14    5   12      0.65      0.00
  -13    5   12      2.74      0.00
  -12    5   12     -2.91      0.00
  -11    5   12      3.94      0.00
  -10    5   12     -4.45      0.00
   -9    5   12      3.24      0.00
   -8    5   12      0.48      0.00
   -7    5   12     -8.07      0.00
   -6    5   12      3.29      0.00
   -5    5   12    -10.13      0.00
   -4    5   12     -3.93      0.00
   -3    5   12      3.28      0.00
   -2    5   12      3.43      0.00
   -1    5   12      3.13      0.00
    0    5   12      1.52      0.00
    1    5   12     -1.90      0.00
    2    5   12      0.43      0.00
    3    5   12     -3.10      0.00
    4    5   12     -5.51      0.00
    5    5   12      5.28      0.00
    6    5   12     -2.40      0.00
    7    5   12      1.55      0.00
    8    5   12      3.10      0.00
    9    5   12     -2.32      0.00
   10    5   12      0.60      0.00
   11    5   12     -1.66      0.00
   12    5   12      1.52      0.00
  -16    6   12     -1.30      0.00
  -15    6   12     -0.29      0.00
  -14    6   12     -2.32      0.00
  -13    6   12      2.29      0.00
  -12    6   12     -4.58      0.00
  -11    6   12      2.75      0.00
  -10    6   12     -2.00      0.00
   -9    6   12      0.36      0.00
   -8    6   12      4.51      0.00
   -7    6   12     -8.17      0.00
   -6    6   12      8.35      0.00
   -5    6   12      4.95      0.00
   -4    6   12      3.03      0.00
   -3    6   12      2.19      0.00
   -2    6   12     -4.41      0.00
   -1    6   12     -2.14      0.00
    0    6   12     -0.97      0.00
    1    6   12     -4.68      0.00
    2    6   12     -0.20      0.00
    3    6   12      2.64      0.00
    4    6   12     -2.06      0.00
    5    6   12      4.86      0.00
    6    6   12     -1.94      0.00
    7    6   12     -2.81      0.00
    8    6   12      2.14      0.00
    9    6   12     -0.50      0.00
   10    6   12      1.20      0.00
   11    6   12     -0.67      0.00
   12    6   12     -0.12      0.00
  -16    7   12     -0.71      0.00
  -15    7   12      0.93      0.00
  -14    7   12     -1.45      0.00
  -13    7   12      3.33      0.00
  -12    7   12     -2.49      0.00
  -11    7   12      1.40      0.00
  -10    7   12      0.83      0.00
   -9    7   12     -3.38      0.00
   -8    7   12      5.84      0.00
   -7    7   12     -5.69      0.00
   -6    7   12      2.37      0.00
   -5    7   12      0.76      0.00
   -4    7   12     -6.79      0.00
   -3    7   12     -1.89      0.00
   -2    7   12      0.10      0.00
   -1    7   12      1.98      0.00
    0    7   12      5.05      0.00
    1    7   12     -0.22      0.00
    2    7   12      2.75      0.00
    3    7   12      4.30      0.00
    4    7   12     -4.07      0.00
    5    7   12      1.05      0.00
    6    7   12      1.06      0.00
    7    7   12     -1.93      0.00
    8    7   12      1.88      0.00
    9    7   12     -0.31      0.00
   10    7   12     -1.07      0.00
   11    7   12     -0.93      0.00
  -15    8   12      0.65      0.00
  -14    8   12     -0.81      0.00
  -13    8   12      1.92      0.00
  -12    8   12     -0.99      0.00
  -11    8   12     -0.34      0.00
  -10    8   12      1.97      0.00
   -9    8   12     -3.21      0.00
   -8    8   12      5.69      0.00
   -7    8   12     -3.05      0.00
   -6    8   12     -4.28      0.00
   -5    8   12      2.67      0.00
   -4    8   12      0.61      0.00
   -3    8   12      2.92      0.00
   -2    8   12      1.60      0.00
   -1    8   12     -2.39      0.00
    0    8   12      2.55      0.00
    1    8   12     -4.31      0.00
    2    8   12     -3.04      0.00
    3    8   12      2.38      0.00
    4    8   12     -2.95      0.00
    5    8   12      0.00      0.00
    6    8   12      1.17      0.00
    7    8   12     -1.30      0.00
    8    8   12     -0.92      0.00
    9    8   12      0.22      0.00
   10    8   12      1.33      0.00
  -14    9   12     -1.23      0.00
  -13    9   12      0.38      0.00
  -12    9   12     -0.36      0.00
  -11    9   12     -0.34      0.00
  -10    9   12      0.95      0.00
   -9    9   12     -3.44      0.00
   -8    9   12     -0.24      0.00
   -7    9   12     -0.23      0.00
   -6    9   12     -2.18      0.00
   -5    9   12      4.86      0.00
   -4    9   12      1.01      0.00
   -3    9   12     -4.02      0.00
   -2    9   12     -0.75      0.00
   -1    9   12     -2.37      0.00
    0    9   12      2.31      0.00
    1    9   12     -0.92      0.00
    2    9   12     -1.01      0.00
    3    9   12      3.26      0.00
    4    9   12     -1.74      0.00
    5    9   12      0.98      0.00
    6    9   12      0.59      0.00
    7    9   12      2.26      0.00
    8    9   12     -0.90      0.00
    9    9   12      0.25      0.00
  -13   10   12      0.38      0.00
  -12   10   12     -1.81      0.00
  -11   10   12     -0.29      0.00
  -10   10   12      1.09      0.00
   -9   10   12      0.25      0.00
   -8   10   12      1.93      0.00
   -7   10   12      5.61      0.00
   -6   10   12     -1.38      0.00
   -5   10   12     -1.58      0.00
   -4   10   12      0.66      0.00
   -3   10   12     -2.51      0.00
   -2   10   12      2.88      0.00
   -1   10   12     -1.00      0.00
    0   10   12      1.26      0.00
    1   10   12      0.97      0.00
    2   10   12     -2.34      0.00
    3   10   12      1.71      0.00
    4   10   12     -0.48      0.00
    5   10   12      0.74      0.00
    6   10   12     -3.06      0.00
    7   10   12      0.89      0.00
    8   10   12     -1.22      0.00
  -11   11   12      1.74      0.00
  -10   11   12      2.57      0.00
   -9   11   12     -1.15      0.00
   -8   11   12     -2.41      0.00
   -7   11   12     -0.98      0.00
   -6   11   12     -3.67      0.00
   -5   11   12     -2.19      0.00
   -4   11   12      4.81      0.00
   -3   11   12     -0.38      0.00
   -2   11   12      1.55      0.00
   -1   11   12     -0.97      0.00
    0   11   12      0.95      0.00
    1   11   12      1.63      0.00
    2   11   12     -1.85      0.00
    3   11   12      1.10      0.00
    4   11   12      0.10      0.00
    5   11   12      0.42      0.00
    6   11   12     -1.33      0.00
   -9   12   12     -1.75      0.00
   -8   12   12     -0.75      0.00
   -7   12   12      1.84      0.00
   -6   12   12      3.53      0.00
   -5   12   12      0.28      0.00
   -4   12   12      1.80      0.00
   -3   12   12     -2.93      0.00
   -2   12   12     -1.10      0.00
   -1   12   12     -1.21      0.00
    0   12   12     -1.35      0.00
    1   12   12      0.03      0.00
    2   12   12     -0.55      0.00
    3   12   12      0.02      0.00
    4   12   12     -0.48      0.00
   -6   13   12     -0.85      0.00
   -5   13   12     -3.93      0.00
   -4   13   12     -0.98      0.00
   -3   13   12      0.27      0.00
   -2   13   12      2.29      0.00
   -1   13   12      1.88      0.00
    0   13   12      0.08      0.00
    1   13   12      0.85      0.00
  -17    0   13      0.80      0.00
  -15    0   13      3.89      0.00
  -13    0   13      1.52      0.00
  -11    0   13     -0.29      0.00
   -9    0   13     -4.07      0.00
   -7    0   13      1.18      0.00
   -5    0   13     -6.89      0.00
   -3    0   13     -4.70      0.00
   -1    0   13      5.45      0.00
    1    0   13     -4.15      0.00
    3    0   13      4.78      0.00
    5    0   13     -2.85      0.00
    7    0   13      3.53      0.00
    9    0   13     -5.03      0.00
   11    0   13     -1.06      0.00
  -18    1   13      1.10      0.00
  -17    1   13      2.80      0.00
  -16    1   13     -2.56      0.00
  -15    1   13     -0.87      0.00
  -14    1   13     -0.81      0.00
  -13    1   13     -0.67      0.00
  -12    1   13     -2.28      0.00
  -11    1   13     -2.50      0.00
  -10    1   13      5.37      0.00
   -9    1   13      1.74      0.00
   -8    1   13      0.54      0.00
   -6    1   13      2.19      0.00
   -5    1   13     -5.22      0.00
   -4    1   13      3.23      0.00
   -3    1   13      5.21      0.00
   -2    1   13     -2.08      0.00
   -1    1   13      4.37      0.00
    1    1   13      2.33      0.00
    2    1   13     -2.36      0.00
    3    1   13     -2.82      0.00
    4    1   13      1.29      0.00
    5    1   13      2.05      0.00
    6    1   13     -1.30      0.00
    7    1   13     -1.44      0.00
    8    1   13      1.19      0.00
    9    1   13     -2.20      0.00
   10    1   13      2.76      0.00
   11    1   13      1.55      0.00
   12    1   13      0.79      0.00
  -17    2   13     -0.39      0.00
  -16    2   13     -2.80      0.00
  -15    2   13     -0.38      0.00
  -14    2   13      0.54      0.00
  -13    2   13      0.46      0.00
  -12    2   13      1.06      0.00
  -11    2   13     -1.71      0.00
  -10    2   13      0.01      0.00
   -9    2   13     -5.06      0.00
   -8    2   13     -0.32      0.00
   -7    2   13     -2.70      0.00
   -6    2   13     11.63      0.00
   -5    2   13      3.67      0.00
   -4    2   13     -1.20      0.00
   -3    2   13      4.12      0.00
   -2    2   13     -8.79      0.00
   -1    2   13      2.81      0.00
    0    2   13     -1.49      0.00
    1    2   13      1.89      0.00
    2    2   13     -0.21      0.00
    3    2   13      0.48      0.00
    4    2   13      2.46      0.00
    5    2   13     -1.57      0.00
    6    2   13     -3.54      0.00
    7    2   13     -0.62      0.00
    8    2   13      4.82      0.00
    9    2   13     -1.24      0.00
   10    2   13     -0.48      0.00
   11    2   13     -0.31      0.00
   12    2   13     -1.00      0.00
  -17    3   13      1.85      0.00
  -16    3   13      2.21      0.00
  -15    3   13      0.40      0.00
  -14    3   13      0.66      0.00
  -13    3   13      1.93      0.00
  -12    3   13      0.66      0.00
  -11    3   13     -0.44      0.00
  -10    3   13      3.06      0.00
   -9    3   13      3.96      0.00
   -8    3   13      7.52      0.00
   -7    3   13     -5.35      0.00
   -6    3   13     -0.26      0.00
   -5    3   13     -4.31      0.00
   -4    3   13    -11.79      0.00
   -3    3   13      3.69      0.00
   -2    3   13     -3.18      0.00
   -1    3   13      2.30      0.00
    0    3   13      0.20      0.00
    1    3   13     -0.95      0.00
    2    3   13      2.51      0.00
    3    3   13     -2.87      0.00
    4    3   13     -1.26      0.00
    5    3   13      3.88      0.00
    6    3   13      2.31      0.00
    7    3   13     -1.70      0.00
    8    3   13      1.93      0.00
    9    3   13     -1.05      0.00
   10    3   13     -2.42      0.00
   11    3   13     -0.53      0.00
   12    3   13      0.78      0.00
  -17    4   13      1.11      0.00
  -16    4   13      0.15      0.00
  -15    4   13     -1.44      0.00
  -14    4   13     -0.13      0.00
  -13    4   13      0.77      0.00
  -12    4   13     -2.02      0.00
  -11    4   13     -0.96      0.00
  -10    4   13     -1.64      0.00
   -9    4   13     -5.42      0.00
   -8    4   13     -1.35      0.00
   -7    4   13    -10.46      0.00
   -6    4   13     -1.09      0.00
   -5    4   13     10.06      0.00
   -4    4   13      1.73      0.00
   -3    4   13      7.60      0.00
   -2    4   13      1.78      0.00
   -1    4   13     -1.18      0.00
    0    4   13      4.02      0.00
    1    4   13     -3.78      0.00
    2    4   13      0.41      0.00
    3    4   13      0.54      0.00
    4    4   13     -1.76      0.00
    5    4   13      2.82      0.00
    6    4   13     -2.05      0.00
    7    4   13     -4.57      0.00
    8    4   13      0.39      0.00
    9    4   13      1.34      0.00
   10    4   13      0.93      0.00
   11    4   13      1.11      0.00
   12    4   13     -0.24      0.00
  -16    5   13     -0.96      0.00
  -15    5   13      0.05      0.00
  -14    5   13     -1.47      0.00
  -13    5   13      0.33      0.00
  -12    5   13     -1.47      0.00
  -11    5   13      0.19      0.00
  -10    5   13      1.83      0.00
   -9    5   13     -0.51      0.00
   -8    5   13      9.80      0.00
   -7    5   13      4.00      0.00
   -6    5   13      2.55      0.00
   -5    5   13      5.14      0.00
   -4    5   13     -7.29      0.00
   -3    5   13     -6.04      0.00
   -2    5   13     -0.46      0.00
   -1    5   13     -5.81      0.00
    0    5   13      2.59      0.00
    1    5   13     -2.72      0.00
    2    5   13     -0.64      0.00
    3    5   13      4.73      0.00
    4    5   13     -6.73      0.00
    5    5   13      1.12      0.00
    6    5   13      2.63      0.00
    7    5   13      0.74      0.00
    8    5   13      2.08      0.00
    9    5   13      0.98      0.00
   10    5   13      0.74      0.00
   11    5   13     -1.66      0.00
  -16    6   13      0.37      0.00
  -15    6   13      0.92      0.00
  -14    6   13     -1.20      0.00
  -13    6   13      2.34      0.00
  -12    6   13      0.34      0.00
  -11    6   13     -0.58      0.00
  -10    6   13      3.09      0.00
   -9    6   13     -3.72      0.00
   -8    6   13      2.27      0.00
   -7    6   13     -4.71      0.00
   -6    6   13     -9.37      0.00
   -5    6   13     -1.82      0.00
   -4    6   13      1.94      0.00
   -3    6   13      0.63      0.00
   -2    6   13      4.54      0.00
   -1    6   13     -2.19      0.00
    0    6   13      4.28      0.00
    1    6   13      2.78      0.00
    2    6   13     -4.61      0.00
    3    6   13      6.18      0.00
    4    6   13     -2.21      0.00
    5    6   13      2.00      0.00
    6    6   13      3.10      0.00
    7    6   13     -3.69      0.00
    8    6   13     -1.51      0.00
    9    6   13     -2.37      0.00
   10    6   13      0.42      0.00
   11    6   13     -0.47      0.00
  -15    7   13      0.18      0.00
  -14    7   13     -0.79      0.00
  -13    7   13      1.62      0.00
  -12    7   13      0.43      0.00
  -11    7   13     -2.59      0.00
  -10    7   13      2.58      0.00
   -9    7   13     -5.18      0.00
   -8    7   13      1.37      0.00
   -7    7   13      1.63      0.00
   -6    7   13      0.54      0.00
   -5    7   13      3.71      0.00
   -4    7   13      5.04      0.00
   -3    7   13     -3.13      0.00
   -2    7   13      0.37      0.00
   -1    7   13     -1.26      0.00
    0    7   13     -1.43      0.00
    1    7   13      3.05      0.00
    2    7   13     -6.69      0.00
    3    7   13      3.55      0.00
    4    7   13     -1.02      0.00
    5    7   13     -4.72      0.00
    6    7   13      0.91      0.00
    7    7   13     -2.48      0.00
    8    7   13      1.94      0.00
    9    7   13      0.32      0.00
   10    7   13      1.81      0.00
  -14    8   13     -0.55      0.00
  -13    8   13     -0.34      0.00
  -12    8   13      0.32      0.00
  -11    8   13     -2.79      0.00
  -10    8   13      2.30      0.00
   -9    8   13     -2.34      0.00
   -8    8   13      3.19      0.00
   -7    8   13      4.27      0.00
   -6    8   13     -0.21      0.00
   -5    8   13     -2.99      0.00
   -4    8   13      0.72      0.00
   -3    8   13     -0.22      0.00
   -2    8   13      0.89      0.00
   -1    8   13      0.03      0.00
    0    8   13     -2.49      0.00
    1    8   13      5.16      0.00
    2    8   13     -4.68      0.00
    3    8   13     -0.35      0.00
    4    8   13      2.19      0.00
    5    8   13     -1.75      0.00
    6    8   13      2.75      0.00
    7    8   13      0.76      0.00
    8    8   13      1.12      0.00
    9    8   13     -1.60      0.00
  -13    9   13      0.06      0.00
  -12    9   13      1.94      0.00
  -11    9   13     -0.28      0.00
  -10    9   13      3.41      0.00
   -9    9   13     -0.17      0.00
   -8    9   13     -1.59      0.00
   -7    9   13     -1.96      0.00
   -6    9   13     -3.31      0.00
   -5    9   13     -3.44      0.00
   -4    9   13      1.53      0.00
   -3    9   13     -0.02      0.00
   -2    9   13     -2.99      0.00
   -1    9   13     -0.22      0.00
    0    9   13     -1.13      0.00
    1    9   13      3.51      0.00
    2    9   13      0.16      0.00
    3    9   13      1.25      0.00
    4    9   13      3.39      0.00
    5    9   13     -0.25      0.00
    6    9   13     -0.41      0.00
    7    9   13      0.35      0.00
    8    9   13      0.39      0.00
  -12   10   13      0.69      0.00
  -11   10   13     -3.57      0.00
  -10   10   13     -0.83      0.00
   -9   10   13     -1.94      0.00
   -8   10   13     -2.85      0.00
   -7   10   13      1.59      0.00
   -6   10   13      3.88      0.00
   -5   10   13     -0.24      0.00
   -4   10   13      1.58      0.00
   -3   10   13      1.50      0.00
   -2   10   13      1.47      0.00
   -1   10   13      2.81      0.00
    0   10   13     -1.30      0.00
    1   10   13      0.14      0.00
    2   10   13     -0.72      0.00
    3   10   13     -2.79      0.00
    4   10   13     -1.69      0.00
    5   10   13      0.47      0.00
    6   10   13     -0.96      0.00
    7   10   13     -0.86      0.00
  -10   11   13      2.63      0.00
   -9   11   13      4.05      0.00
   -8   11   13      1.60      0.00
   -7   11   13      2.42      0.00
   -6   11   13      2.00      0.00
   -5   11   13     -3.53      0.00
   -4   11   13     -0.13      0.00
   -3   11   13     -0.15      0.00
   -2   11   13     -1.77      0.00
   -1   11   13     -1.52      0.00
    0   11   13     -2.52      0.00
    1   11   13      0.85      0.00
    2   11   13     -0.37      0.00
    3   11   13     -0.48      0.00
    4   11   13     -0.54      0.00
    5   11   13      1.89      0.00
   -7   12   13     -3.64      0.00
   -6   12   13     -0.60      0.00
   -5   12   13     -1.04      0.00
   -4   12   13      1.56      0.00
   -3   12   13      0.45      0.00
   -2   12   13     -0.20      0.00
   -1   12   13      2.26      0.00
    0   12   13      1.03      0.00
    1   12   13      1.55      0.00
    2   12   13      0.26      0.00
  -16    0   14     -0.14      0.00
  -14    0   14      4.42      0.00
  -12    0   14      5.09      0.00
  -10    0   14      0.21      0.00
   -8    0   14     -6.00      0.00
   -4    0   14     -2.79      0.00
   -2    0   14     -3.14      0.00
    0    0   14      6.51      0.00
    2    0   14     -1.64      0.00
    4    0   14      0.65      0.00
    6    0   14     -4.74      0.00
    8    0   14      4.28      0.00
   10    0   14     -0.87      0.00
  -17    1   14      2.46      0.00
  -16    1   14      4.71      0.00
  -15    1   14     -1.97      0.00
  -14    1   14      0.05      0.00
  -13    1   14     -1.78      0.00
  -12    1   14     -3.18      0.00
  -11    1   14     -5.10      0.00
  -10    1   14     -4.58      0.00
   -9    1   14      3.34      0.00
   -8    1   14      4.29      0.00
   -7    1   14      0.91      0.00
   -6    1   14      0.88      0.00
   -5    1   14      2.22      0.00
   -4    1   14     -2.32      0.00
   -3    1   14      3.28      0.00
   -2    1   14      1.29      0.00
   -1    1   14     -1.56      0.00
    0    1   14     -2.48      0.00
    1    1   14     -0.80      0.00
    2    1   14     -1.63      0.00
    3    1   14     -2.40      0.00
    4    1   14     -5.03      0.00
    5    1   14      2.97      0.00
    6    1   14      2.75      0.00
    7    1   14     -1.81      0.00
    8    1   14      1.39      0.00
    9    1   14     -0.77      0.00
   10    1   14      0.05      0.00
   11    1   14      0.45      0.00
  -17    2   14     -1.80      0.00
  -16    2   14     -1.18      0.00
  -15    2   14     -3.47      0.00
  -14    2   14     -1.49      0.00
  -13    2   14      0.91      0.00
  -11    2   14      4.82      0.00
  -10    2   14      4.24      0.00
   -9    2   14      0.60      0.00
   -8    2   14      1.40      0.00
   -7    2   14     -7.03      0.00
   -6    2   14     -3.76      0.00
   -5    2   14      4.28      0.00
   -4    2   14     -2.29      0.00
   -3    2   14      1.10      0.00
   -2    2   14     -1.53      0.00
   -1    2   14     -2.53      0.00
    0    2   14     -0.93      0.00
    1    2   14      1.86      0.00
    2    2   14      0.48      0.00
    3    2   14      3.51      0.00
    4    2   14      2.75      0.00
    5    2   14      3.26      0.00
    6    2   14      2.86      0.00
    7    2   14     -5.14      0.00
    8    2   14      0.47      0.00
    9    2   14      0.57      0.00
   10    2   14     -0.98      0.00
   11    2   14     -0.76      0.00
  -17    3   14     -1.69      0.00
  -16    3   14      0.62      0.00
  -15    3   14      2.36      0.00
  -14    3   14      0.13      0.00
  -13    3   14      1.80      0.00
  -12    3   14      1.29      0.00
  -11    3   14     -3.43      0.00
  -10    3   14     -1.89      0.00
   -9    3   14     -6.75      0.00
   -8    3   14      6.01      0.00
   -7    3   14      2.41      0.00
   -6    3   14     -0.82      0.00
   -5    3   14      5.84      0.00
   -4    3   14     -3.83      0.00
   -3    3   14     -0.91      0.00
   -2    3   14      1.20      0.00
   -1    3   14      2.56      0.00
    0    3   14      2.22      0.00
    1    3   14      2.22      0.00
    2    3   14      0.69      0.00
    3    3   14      0.95      0.00
    4    3   14     -5.35      0.00
    5    3   14     -7.50      0.00
    6    3   14      3.08      0.00
    7    3   14     -2.53      0.00
    8    3   14     -0.50      0.00
    9    3   14      1.72      0.00
   10    3   14     -0.22      0.00
   11    3   14     -0.16      0.00
  -16    4   14      1.78      0.00
  -15    4   14      1.07      0.00
  -14    4   14     -1.53      0.00
  -13    4   14     -0.61      0.00
  -12    4   14      1.91      0.00
  -11    4   14     -3.81      0.00
  -10    4   14      5.23      0.00
   -9    4   14     -2.74      0.00
   -8    4   14      3.74      0.00
   -7    4   14      0.30      0.00
   -6    4   14    -10.45      0.00
   -5    4   14      1.11      0.00
   -4    4   14     -0.12      0.00
   -3    4   14      2.05      0.00
   -2    4   14      1.39      0.00
   -1    4   14     -2.48      0.00
    0    4   14     -2.00      0.00
    1    4   14     -0.59      0.00
    2    4   14     -5.08      0.00
    3    4   14     -0.55      0.00
    4    4   14      1.80      0.00
    5    4   14     -0.70      0.00
    6    4   14      6.69      0.00
    7    4   14      0.72      0.00
    8    4   14     -0.86      0.00
    9    4   14      1.25      0.00
   10    4   14     -0.06      0.00
   11    4   14      1.58      0.00
  -16    5   14     -1.63      0.00
  -15    5   14     -1.34      0.00
  -14    5   14     -0.10      0.00
  -13    5   14     -1.58      0.00
  -12    5   14      3.30      0.00
  -11    5   14     -3.98      0.00
  -10    5   14      3.58      0.00
   -9    5   14     -4.22      0.00
   -8    5   14     -2.28      0.00
   -7    5   14      6.43      0.00
   -6    5   14     -1.22      0.00
   -5    5   14      6.24      0.00
   -4    5   14      2.49      0.00
   -3    5   14     -2.76      0.00
   -2    5   14     -0.74      0.00
   -1    5   14     -2.05      0.00
    0    5   14      0.34      0.00
    1    5   14      2.67      0.00
    2    5   14     -0.01      0.00
    3    5   14      5.28      0.00
    4    5   14      5.04      0.00
    5    5   14     -5.20      0.00
    6    5   14     -0.62      0.00
    7    5   14     -0.45      0.00
    8    5   14     -1.60      0.00
    9    5   14     -0.28      0.00
   10    5   14     -0.24      0.00
  -15    6   14      0.22      0.00
  -14    6   14      1.43      0.00
  -13    6   14     -1.59      0.00
  -12    6   14      4.05      0.00
  -11    6   14     -3.11      0.00
  -10    6   14      2.24      0.00
   -9    6   14      0.53      0.00
   -8    6   14     -2.40      0.00
   -7    6   14      5.45      0.00
   -6    6   14     -5.12      0.00
   -5    6   14     -5.87      0.00
   -4    6   14     -1.62      0.00
   -3    6   14     -0.72      0.00
   -2    6   14      3.86      0.00
   -1    6   14      0.71      0.00
    0    6   14     -0.45      0.00
    1    6   14      3.38      0.00
    2    6   14     -1.96      0.00
    3    6   14     -4.09      0.00
    4    6   14     -0.18      0.00
    5    6   14     -2.46      0.00
    6    6   14      1.56      0.00
    7    6   14      2.21      0.00
    8    6   14     -0.08      0.00
    9    6   14     -0.49      0.00
   10    6   14     -0.46      0.00
  -14    7   14     -0.26      0.00
  -13    7   14     -2.28      0.00
  -12    7   14      1.85      0.00
  -11    7   14     -1.85      0.00
  -10    7   14     -0.04      0.00
   -9    7   14      1.42      0.00
   -8    7   14     -4.34      0.00
   -7    7   14      2.42      0.00
   -6    7   14      0.86      0.00
   -5    7   14     -0.24      0.00
   -4    7   14      4.93      0.00
   -3    7   14      0.45      0.00
   -2    7   14     -0.11      0.00
   -1    7   14     -0.59      0.00
    0    7   14     -4.73      0.00
    1    7   14      1.38      0.00
    2    7   14     -1.84      0.00
    3    7   14     -2.36      0.00
    4    7   14      3.38      0.00
    5    7   14      1.24      0.00
    6    7   14     -1.19      0.00
    7    7   14     -0.41      0.00
    8    7   14     -0.24      0.00
    9    7   14     -0.47      0.00
  -13    8   14     -0.84      0.00
  -12    8   14      1.49      0.00
  -11    8   14      0.98      0.00
  -10    8   14     -0.55      0.00
   -9    8   14      2.01      0.00
   -8    8   14     -2.31      0.00
   -7    8   14      1.69      0.00
   -6    8   14      3.85      0.00
   -5    8   14     -3.28      0.00
   -4    8   14     -1.91      0.00
   -3    8   14     -2.91      0.00
   -2    8   14     -0.49      0.00
   -1    8   14      2.42      0.00
    0    8   14     -3.57      0.00
    1    8   14      4.41      0.00
    2    8   14      2.72      0.00
    3    8   14     -0.59      0.00
    4    8   14     -0.01      0.00
    5    8   14     -0.61      0.00
    6    8   14     -0.03      0.00
    7    8   14     -0.41      0.00
    8    8   14      1.70      0.00
  -12    9   14      0.50      0.00
  -11    9   14     -0.69      0.00
  -10    9   14     -0.65      0.00
   -9    9   14      1.68      0.00
   -8    9   14     -0.32      0.00
   -7    9   14     -1.48      0.00
   -6    9   14      2.04      0.00
   -5    9   14     -2.62      0.00
   -4    9   14      1.50      0.00
   -3    9   14      4.14      0.00
   -2    9   14      0.47      0.00
   -1    9   14      2.53      0.00
    0    9   14     -2.36      0.00
    1    9   14      0.96      0.00
    2    9   14     -0.54      0.00
    3    9   14     -1.76      0.00
    4    9   14      0.42      0.00
    5    9   14     -1.41      0.00
    6    9   14      1.20      0.00
    7    9   14     -2.92      0.00
  -11   10   14     -0.74      0.00
  -10   10   14     -0.71      0.00
   -9   10   14     -0.86      0.00
   -8   10   14     -0.58      0.00
   -7   10   14     -3.50      0.00
   -6   10   14      2.50      0.00
   -5   10   14      0.58      0.00
   -4   10   14     -1.68      0.00
   -3   10   14     -0.12      0.00
   -2   10   14     -3.83      0.00
   -1   10   14      2.05      0.00
    0   10   14     -1.09      0.00
    1   10   14     -1.32      0.00
    2   10   14      1.36      0.00
    3   10   14      0.49      0.00
    4   10   14      1.38      0.00
    5   10   14     -1.52      0.00
   -8   11   14      2.27      0.00
   -7   11   14     -1.03      0.00
   -6   11   14      2.10      0.00
   -5   11   14      0.24      0.00
   -4   11   14     -3.20      0.00
   -3   11   14      2.38      0.00
   -2   11   14     -0.64      0.00
   -1   11   14      0.66      0.00
    0   11   14     -1.01      0.00
    1   11   14     -0.75      0.00
    2   11   14      1.46      0.00
    3   11   14     -1.15      0.00
   -4   12   14     -0.85      0.00
   -3   12   14      2.24      0.00
   -2   12   14     -0.79      0.00
   -1   12   14      0.03      0.00
  -15    0   15     -3.08      0.00
  -13    0   15     -2.03      0.00
  -11    0   15     -0.05      0.00
   -9    0   15      0.97      0.00
   -7    0   15      1.45      0.00
   -5    0   15      7.81      0.00
   -3    0   15      3.43      0.00
   -1    0   15     -3.09      0.00
    1    0   15      1.10      0.00
    3    0   15     -1.88      0.00
    5    0   15      0.21      0.00
    7    0   15     -1.59      0.00
    9    0   15      3.99      0.00
  -16    1   15      2.71      0.00
  -15    1   15      1.00      0.00
  -14    1   15      1.12      0.00
  -13    1   15      2.14      0.00
  -12    1   15      3.21      0.00
  -11    1   15      1.21      0.00
  -10    1   15     -2.73      0.00
   -9    1   15     -2.55      0.00
   -8    1   15      0.15      0.00
   -7    1   15      5.26      0.00
   -6    1   15     -4.79      0.00
   -5    1   15      2.18      0.00
   -4    1   15     -3.12      0.00
   -3    1   15     -4.36      0.00
   -2    1   15      1.23      0.00
   -1    1   15     -3.11      0.00
    0    1   15      0.48      0.00
    1    1   15     -2.17      0.00
    2    1   15      2.88      0.00
    3    1   15      3.73      0.00
    4    1   15     -1.52      0.00
    5    1   15     -1.94      0.00
    6    1   15      2.37      0.00
    7    1   15      2.39      0.00
    8    1   15     -2.07      0.00
    9    1   15     -0.34      0.00
   10    1   15     -0.85      0.00
  -16    2   15      1.57      0.00
  -15    2   15      0.31      0.00
  -14    2   15     -1.07      0.00
  -13    2   15     -2.07      0.00
  -12    2   15     -1.50      0.00
  -11    2   15     -1.09      0.00
  -10    2   15      1.51      0.00
   -9    2   15      2.45      0.00
   -8    2   15     -0.54      0.00
   -7    2   15      3.10      0.00
   -6    2   15     -8.73      0.00
   -5    2   15     -2.15      0.00
   -4    2   15      2.44      0.00
   -3    2   15     -1.45      0.00
   -2    2   15      6.40      0.00
   -1    2   15     -0.99      0.00
    0    2   15      2.19      0.00
    1    2   15     -0.61      0.00
    2    2   15     -2.75      0.00
    3    2   15     -0.48      0.00
    4    2   15     -0.57      0.00
    5    2   15     -0.36      0.00
    6    2   15      0.99      0.00
    7    2   15      0.62      0.00
    8    2   15     -2.46      0.00
    9    2   15      0.06      0.00
   10    2   15      2.34      0.00
  -16    3   15     -2.28      0.00
  -15    3   15      0.03      0.00
  -14    3   15     -0.76      0.00
  -13    3   15     -1.59      0.00
  -12    3   15      2.08      0.00
  -11    3   15      0.30      0.00
  -10    3   15     -0.21      0.00
   -9    3   15     -3.50      0.00
   -8    3   15     -5.67      0.00
   -7    3   15      5.75      0.00
   -6    3   15      1.69      0.00
   -5    3   15      2.44      0.00
   -4    3   15      6.35      0.00
   -3    3   15     -3.20      0.00
   -2    3   15      0.35      0.00
   -1    3   15     -1.85      0.00
    0    3   15     -1.93      0.00
    1    3   15      0.90      0.00
    2    3   15     -3.33      0.00
    3    3   15      3.24      0.00
    4    3   15      3.11      0.00
    5    3   15     -3.97      0.00
    6    3   15     -1.23      0.00
    7    3   15      2.06      0.00
    8    3   15      0.42      0.00
    9    3   15     -0.71      0.00
   10    3   15      0.86      0.00
  -15    4   15      1.37      0.00
  -14    4   15      0.43      0.00
  -13    4   15     -1.78      0.00
  -12    4   15      2.26      0.00
  -11    4   15     -0.70      0.00
  -10    4   15      1.95      0.00
   -9    4   15      2.99      0.00
   -8    4   15      0.34      0.00
   -7    4   15      6.59      0.00
   -6    4   15      0.45      0.00
   -5    4   15     -7.10      0.00
   -4    4   15     -2.20      0.00
   -3    4   15     -3.14      0.00
   -2    4   15     -0.65      0.00
   -1    4   15      2.15      0.00
    0    4   15     -3.03      0.00
    1    4   15      5.82      0.00
    2    4   15      0.45      0.00
    3    4   15     -2.19      0.00
    4    4   15      1.99      0.00
    5    4   15     -2.66      0.00
    6    4   15      0.94      0.00
    7    4   15      0.60      0.00
    8    4   15      0.23      0.00
    9    4   15     -1.42      0.00
   10    4   15     -1.92      0.00
  -15    5   15     -0.41      0.00
  -14    5   15      1.97      0.00
  -13    5   15     -1.82      0.00
  -12    5   15      2.66      0.00
  -11    5   15     -1.18      0.00
  -10    5   15     -0.22      0.00
   -9    5   15     -0.31      0.00
   -8    5   15     -7.82      0.00
   -7    5   15     -3.92      0.00
   -6    5   15     -1.58      0.00
   -5    5   15     -1.26      0.00
   -4    5   15      4.03      0.00
   -3    5   15      4.88      0.00
   -2    5   15      0.08      0.00
   -1    5   15      4.09      0.00
    0    5   15     -3.02      0.00
    1    5   15      0.41      0.00
    2    5   15     -0.71      0.00
    3    5   15     -4.82      0.00
    4    5   15      6.43      0.00
    5    5   15      0.18      0.00
    6    5   15     -1.57      0.00
    7    5   15     -1.48      0.00
    8    5   15      0.34      0.00
    9    5   15      1.04      0.00
  -14    6   15      1.50      0.00
  -13    6   15     -3.56      0.00
  -12    6   15      1.27      0.00
  -11    6   15     -0.69      0.00
  -10    6   15     -1.55      0.00
   -9    6   15      3.57      0.00
   -8    6   15     -0.13      0.00
   -7    6   15      5.09      0.00
   -6    6   15      6.10      0.00
   -5    6   15      2.30      0.00
   -4    6   15     -3.26      0.00
   -3    6   15     -1.48      0.00
   -2    6   15     -3.13      0.00
   -1    6   15      1.61      0.00
    0    6   15     -2.48      0.00
    1    6   15     -2.03      0.00
    2    6   15      5.30      0.00
    3    6   15     -3.70      0.00
    4    6   15     -0.10      0.00
    5    6   15     -1.40      0.00
    6    6   15     -1.10      0.00
    7    6   15      2.31      0.00
    8    6   15      0.39      0.00
  -13    7   15     -1.99      0.00
  -12    7   15      0.23      0.00
  -11    7   15      1.33      0.00
  -10    7   15     -1.82      0.00
   -9    7   15      3.74      0.00
   -8    7   15     -3.10      0.00
   -7    7   15     -2.61      0.00
   -6    7   15     -2.28      0.00
   -5    7   15     -1.57      0.00
   -4    7   15     -2.39      0.00
   -3    7   15      1.39      0.00
   -2    7   15     -0.16      0.00
   -1    7   15      1.42      0.00
    0    7   15      1.50      0.00
    1    7   15     -2.34      0.00
    2    7   15      4.23      0.00
    3    7   15     -1.71      0.00
    4    7   15      0.17      0.00
    5    7   15      3.73      0.00
    6    7   15      0.53      0.00
    7    7   15      1.52      0.00
  -12    8   15     -0.74      0.00
  -11    8   15      2.00      0.00
  -10    8   15     -1.99      0.00
   -9    8   15      2.09      0.00
   -8    8   15     -1.77      0.00
   -7    8   15     -1.78      0.00
   -6    8   15      1.48      0.00
   -5    8   15      2.29      0.00
   -4    8   15      0.45      0.00
   -3    8   15     -0.66      0.00
   -2    8   15     -0.87      0.00
   -1    8   15      1.18      0.00
    0    8   15      0.95      0.00
    1    8   15     -3.66      0.00
    2    8   15      1.94      0.00
    3    8   15      1.28      0.00
    4    8   15     -1.02      0.00
    5    8   15     -1.76      0.00
    6    8   15     -2.11      0.00
  -11    9   15      0.48      0.00
  -10    9   15     -1.92      0.00
   -9    9   15      1.14      0.00
   -8    9   15      1.85      0.00
   -7    9   15     -0.32      0.00
   -6    9   15      1.80      0.00
   -5    9   15      0.59      0.00
   -4    9   15     -0.97      0.00
   -3    9   15      0.83      0.00
   -2    9   15      1.00      0.00
   -1    9   15     -0.01      0.00
    0    9   15     -0.07      0.00
    1    9   15     -1.57      0.00
    2    9   15     -1.02      0.00
    3    9   15     -1.73      0.00
    4    9   15      0.11      0.00
    5    9   15     -0.59      0.00
   -9   10   15     -0.06      0.00
   -8   10   15      1.65      0.00
   -7   10   15     -1.91      0.00
   -6   10   15     -1.49      0.00
   -5   10   15      1.50      0.00
   -4   10   15     -0.65      0.00
   -3   10   15     -0.36      0.00
   -2   10   15     -1.95      0.00
   -1   10   15     -1.51      0.00
    0   10   15      2.13      0.00
    1   10   15      0.53      0.00
    2   10   15      0.56      0.00
    3   10   15      0.82      0.00
   -6   11   15     -1.80      0.00
   -5   11   15      2.17      0.00
   -4   11   15     -1.80      0.00
   -3   11   15      0.34      0.00
   -2   11   15      2.54      0.00
   -1   11   15      0.99      0.00
    0   11   15      0.90      0.00
  -16    0   16     -1.25      0.00
  -14    0   16     -2.04      0.00
  -12    0   16     -1.17      0.00
  -10    0   16      2.07      0.00
   -8    0   16      1.23      0.00
   -6    0   16     -1.50      0.00
   -4    0   16      1.13      0.00
   -2    0   16      1.82      0.00
    0    0   16     -1.06      0.00
    2    0   16     -0.69      0.00
    4    0   16      1.66      0.00
    6    0   16      0.59      0.00
    8    0   16     -2.57      0.00
  -15    1   16      1.41      0.00
  -14    1   16      0.56      0.00
  -13    1   16     -0.47      0.00
  -12    1   16      4.02      0.00
  -11    1   16      2.76      0.00
  -10    1   16      3.46      0.00
   -9    1   16     -2.00      0.00
   -8    1   16     -5.38      0.00
   -7    1   16      1.92      0.00
   -6    1   16      0.02      0.00
   -5    1   16     -1.16      0.00
   -4    1   16      1.76      0.00
   -3    1   16     -1.83      0.00
   -2    1   16      0.33      0.00
   -1    1   16      0.15      0.00
    0    1   16      1.47      0.00
    1    1   16     -0.04      0.00
    2    1   16      0.38      0.00
    3    1   16      1.80      0.00
    4    1   16      3.16      0.00
    5    1   16     -1.98      0.00
    6    1   16     -3.00      0.00
    7    1   16      2.23      0.00
    8    1   16      0.56      0.00
    9    1   16     -0.48      0.00
  -15    2   16      1.65      0.00
  -14    2   16      2.22      0.00
  -13    2   16     -1.57      0.00
  -12    2   16     -1.82      0.00
  -11    2   16     -4.38      0.00
   -9    2   16      1.29      0.00
   -8    2   16     -2.64      0.00
   -7    2   16      5.20      0.00
   -6    2   16      2.58      0.00
   -5    2   16     -2.54      0.00
   -4    2   16      1.11      0.00
   -3    2   16     -1.43      0.00
   -2    2   16      1.51      0.00
   -1    2   16     -0.13      0.00
    0    2   16     -0.05      0.00
    1    2   16      1.25      0.00
    2    2   16     -0.56      0.00
    3    2   16     -4.03      0.00
    4    2   16     -1.70      0.00
    5    2   16      0.37      0.00
    6    2   16     -2.26      0.00
    7    2   16      1.95      0.00
    8    2   16      0.64      0.00
    9    2   16     -0.48      0.00
  -15    3   16     -2.29      0.00
  -14    3   16      0.35      0.00
  -13    3   16     -1.45      0.00
  -12    3   16     -1.37      0.00
  -11    3   16      3.82      0.00
  -10    3   16      1.92      0.00
   -9    3   16      6.55      0.00
   -8    3   16     -4.86      0.00
   -7    3   16     -2.57      0.00
   -6    3   16      0.54      0.00
   -5    3   16     -3.31      0.00
   -4    3   16      2.19      0.00
   -3    3   16      0.15      0.00
   -2    3   16     -0.23      0.00
   -1    3   16     -0.57      0.00
    0    3   16     -1.68      0.00
    1    3   16     -1.13      0.00
    2    3   16     -0.69      0.00
    3    3   16     -0.87      0.00
    4    3   16      3.95      0.00
    5    3   16      5.51      0.00
    6    3   16     -1.76      0.00
    7    3   16      0.26      0.00
    8    3   16      1.05      0.00
    9    3   16     -0.05      0.00
  -15    4   16     -0.39      0.00
  -14    4   16      2.11      0.00
  -13    4   16      0.83      0.00
  -12    4   16     -1.34      0.00
  -11    4   16      1.57      0.00
  -10    4   16     -3.51      0.00
   -9    4   16      1.67      0.00
   -8    4   16     -2.46      0.00
   -7    4   16     -0.68      0.00
   -6    4   16      6.20      0.00
   -5    4   16     -0.12      0.00
   -4    4   16     -0.11      0.00
   -3    4   16     -1.82      0.00
   -2    4   16     -1.30      0.00
   -1    4   16      3.02      0.00
    0    4   16     -0.08      0.00
    1    4   16      0.09      0.00
    2    4   16      5.21      0.00
    3    4   16     -0.06      0.00
    4    4   16     -2.48      0.00
    5    4   16     -0.22      0.00
    6    4   16     -2.28      0.00
    7    4   16     -1.59      0.00
    8    4   16     -0.62      0.00
  -14    5   16      0.30      0.00
  -13    5   16      0.12      0.00
  -12    5   16     -1.97      0.00
  -11    5   16      1.49      0.00
  -10    5   16     -1.40      0.00
   -9    5   16      3.47      0.00
   -8    5   16      2.31      0.00
   -7    5   16     -3.42      0.00
   -6    5   16     -0.01      0.00
   -5    5   16     -2.62      0.00
   -4    5   16     -0.93      0.00
   -3    5   16      1.85      0.00
   -2    5   16     -0.55      0.00
   -1    5   16      1.72      0.00
    0    5   16     -0.31      0.00
    1    5   16     -1.94      0.00
    2    5   16     -0.30      0.00
    3    5   16     -4.76      0.00
    4    5   16     -3.19      0.00
    5    5   16      2.82      0.00
    6    5   16      1.59      0.00
    7    5   16      0.08      0.00
    8    5   16     -0.19      0.00
  -13    6   16      0.67      0.00
  -12    6   16     -1.85      0.00
  -11    6   16      1.85      0.00
  -10    6   16     -2.87      0.00
   -9    6   16     -0.99      0.00
   -8    6   16      0.51      0.00
   -7    6   16     -2.77      0.00
   -6    6   16      1.83      0.00
   -5    6   16      3.89      0.00
   -4    6   16      0.98      0.00
   -3    6   16      0.40      0.00
   -2    6   16     -3.20      0.00
   -1    6   16     -0.44      0.00
    0    6   16      1.06      0.00
    1    6   16     -2.58      0.00
    2    6   16      1.93      0.00
    3    6   16      4.19      0.00
    4    6   16      1.52      0.00
    5    6   16     -0.14      0.00
    6    6   16     -1.46      0.00
    7    6   16      0.09      0.00
  -12    7   16     -0.61      0.00
  -11    7   16      1.49      0.00
  -10    7   16     -0.39      0.00
   -9    7   16      1.17      0.00
   -8    7   16      2.93      0.00
   -7    7   16     -1.16      0.00
   -6    7   16     -2.14      0.00
   -5    7   16      0.00      0.00
   -4    7   16     -2.64      0.00
   -3    7   16      0.85      0.00
   -2    7   16      0.06      0.00
   -1    7   16     -0.12      0.00
    0    7   16      3.86      0.00
    1    7   16     -1.22      0.00
    2    7   16      0.83      0.00
    3    7   16     -0.09      0.00
    4    7   16     -1.61      0.00
    5    7   16     -0.78      0.00
    6    7   16      0.21      0.00
  -11    8   16     -1.03      0.00
  -10    8   16     -0.48      0.00
   -9    8   16     -1.94      0.00
   -8    8   16      0.81      0.00
   -7    8   16     -0.02      0.00
   -6    8   16     -2.01      0.00
   -5    8   16      3.20      0.00
   -4    8   16      1.37      0.00
   -3    8   16      2.04      0.00
   -2    8   16     -0.18      0.00
   -1    8   16     -2.62      0.00
    0    8   16      2.77      0.00
    1    8   16     -3.25      0.00
    2    8   16     -1.43      0.00
    3    8   16     -0.57      0.00
    4    8   16      1.79      0.00
    5    8   16      1.56      0.00
   -9    9   16     -0.49      0.00
   -8    9   16      1.40      0.00
   -7    9   16      1.59      0.00
   -6    9   16     -2.88      0.00
   -5    9   16      0.39      0.00
   -4    9   16     -2.73      0.00
   -3    9   16     -3.14      0.00
   -2    9   16      0.90      0.00
   -1    9   16     -1.83      0.00
    0    9   16      2.02      0.00
    1    9   16      0.13      0.00
    2    9   16      1.90      0.00
    3    9   16     -0.27      0.00
   -7   10   16      1.99      0.00
   -6   10   16     -1.99      0.00
   -5   10   16      0.69      0.00
   -4   10   16      2.96      0.00
   -3   10   16      0.63      0.00
   -2   10   16      2.96      0.00
   -1   10   16     -1.88      0.00
    0   10   16      0.03      0.00
    1   10   16      0.29      0.00
  -13    0   17      1.20      0.00
  -11    0   17     -0.90      0.00
   -9    0   17      1.11      0.00
   -7    0   17     -2.66      0.00
   -5    0   17     -5.39      0.00
   -3    0   17     -2.84      0.00
   -1    0   17      1.36      0.00
    1    0   17      2.83      0.00
    3    0   17     -0.25      0.00
    5    0   17      2.01      0.00
    7    0   17     -0.83      0.00
  -14    1   17     -0.29      0.00
  -13    1   17     -1.89      0.00
  -12    1   17     -3.18      0.00
  -11    1   17     -1.32      0.00
  -10    1   17      1.56      0.00
   -9    1   17      2.49      0.00
   -8    1   17     -0.29      0.00
   -7    1   17     -3.71      0.00
   -6    1   17      3.98      0.00
   -5    1   17     -0.23      0.00
   -4    1   17      2.36      0.00
   -3    1   17      2.67      0.00
   -2    1   17      0.30      0.00
   -1    1   17      3.30      0.00
    0    1   17     -1.48      0.00
    1    1   17      0.06      0.00
    2    1   17     -2.11      0.00
    3    1   17     -2.77      0.00
    4    1   17     -0.36      0.00
    5    1   17      0.33      0.00
    6    1   17     -1.31      0.00
    7    1   17     -1.90      0.00
    8    1   17      1.54      0.00
  -14    2   17      0.87      0.00
  -13    2   17      3.13      0.00
  -12    2   17      2.03      0.00
  -11    2   17      1.96      0.00
  -10    2   17     -1.73      0.00
   -9    2   17     -0.66      0.00
   -8    2   17      0.96      0.00
   -7    2   17     -2.51      0.00
   -6    2   17      4.46      0.00
   -5    2   17      1.70      0.00
   -4    2   17     -1.69      0.00
   -3    2   17     -0.07      0.00
   -2    2   17     -4.44      0.00
   -1    2   17     -0.27      0.00
    0    2   17     -2.39      0.00
    1    2   17     -0.31      0.00
    2    2   17      4.79      0.00
    3    2   17      1.32      0.00
    4    2   17     -0.66      0.00
    5    2   17      1.26      0.00
    6    2   17      1.44      0.00
    7    2   17     -0.15      0.00
  -14    3   17      0.53      0.00
  -13    3   17      0.99      0.00
  -12    3   17     -1.86      0.00
  -11    3   17     -1.40      0.00
  -10    3   17     -2.04      0.00
   -9    3   17      2.71      0.00
   -8    3   17      3.41      0.00
   -7    3   17     -3.54      0.00
   -6    3   17     -1.98      0.00
   -5    3   17     -1.94      0.00
   -4    3   17     -3.17      0.00
   -3    3   17      2.49      0.00
   -2    3   17      0.18      0.00
   -1    3   17      1.71      0.00
    0    3   17      3.97      0.00
    1    3   17     -1.44      0.00
    2    3   17      1.93      0.00
    3    3   17     -1.70      0.00
    4    3   17     -2.99      0.00
    5    3   17      1.46      0.00
    6    3   17     -0.30      0.00
    7    3   17     -0.60      0.00
  -13    4   17      1.25      0.00
  -12    4   17     -0.44      0.00
  -11    4   17      0.80      0.00
  -10    4   17     -1.98      0.00
   -9    4   17     -0.69      0.00
   -8    4   17     -0.09      0.00
   -7    4   17     -2.60      0.00
   -6    4   17     -0.26      0.00
   -5    4   17      3.69      0.00
   -4    4   17      2.36      0.00
   -3    4   17      1.59      0.00
   -2    4   17     -0.49      0.00
   -1    4   17     -2.34      0.00
    0    4   17      1.62      0.00
    1    4   17     -6.01      0.00
    2    4   17     -1.55      0.00
    3    4   17      2.69      0.00
    4    4   17     -1.32      0.00
    5    4   17      1.58      0.00
    6    4   17     -0.32      0.00
    7    4   17      2.28      0.00
  -13    5   17      1.66      0.00
  -12    5   17     -1.95      0.00
  -11    5   17      1.65      0.00
  -10    5   17     -0.83      0.00
   -9    5   17      0.33      0.00
   -8    5   17      4.36      0.00
   -7    5   17      2.69      0.00
   -6    5   17      1.01      0.00
   -5    5   17     -0.28      0.00
   -4    5   17     -2.34      0.00
   -3    5   17     -3.14      0.00
   -2    5   17      0.13      0.00
   -1    5   17     -2.51      0.00
    0    5   17      2.34      0.00
    1    5   17      2.39      0.00
    2    5   17      1.27      0.00
    3    5   17      3.44      0.00
    4    5   17     -3.58      0.00
    5    5   17      0.13      0.00
    6    5   17     -0.39      0.00
  -12    6   17     -1.47      0.00
  -11    6   17      2.25      0.00
  -10    6   17      0.92      0.00
   -9    6   17     -3.01      0.00
   -8    6   17     -0.32      0.00
   -7    6   17     -3.08      0.00
   -6    6   17     -3.03      0.00
   -5    6   17     -1.61      0.00
   -4    6   17      2.38      0.00
   -3    6   17      2.09      0.00
   -2    6   17      2.24      0.00
   -1    6   17     -0.96      0.00
    0    6   17      0.51      0.00
    1    6   17      1.38      0.00
    2    6   17     -4.75      0.00
    3    6   17      1.04      0.00
    4    6   17      0.77      0.00
    5    6   17      0.93      0.00
  -11    7   17     -1.08      0.00
  -10    7   17      0.68      0.00
   -9    7   17     -2.64      0.00
   -8    7   17      2.73      0.00
   -7    7   17      2.38      0.00
   -6    7   17      0.97      0.00
   -5    7   17      0.36      0.00
   -4    7   17      0.23      0.00
   -3    7   17     -0.53      0.00
   -2    7   17      0.18      0.00
   -1    7   17     -0.97      0.00
    0    7   17     -1.54      0.00
    1    7   17      1.11      0.00
    2    7   17     -1.45      0.00
    3    7   17      0.18      0.00
    4    7   17     -0.77      0.00
   -9    8   17     -1.40      0.00
   -8    8   17     -0.56      0.00
   -7    8   17      1.39      0.00
   -6    8   17     -1.45      0.00
   -5    8   17     -0.69      0.00
   -4    8   17     -0.84      0.00
   -3    8   17      0.43      0.00
   -2    8   17      0.65      0.00
   -1    8   17     -1.04      0.00
    0    8   17      0.23      0.00
    1    8   17      1.60      0.00
    2    8   17      0.45      0.00
    3    8   17     -0.50      0.00
   -7    9   17      2.17      0.00
   -6    9   17     -0.40      0.00
   -5    9   17      0.53      0.00
   -4    9   17      0.57      0.00
   -3    9   17     -0.78      0.00
   -2    9   17     -0.33      0.00
   -1    9   17      0.10      0.00
    0    9   17      0.38      0.00
  -12    0   18     -0.17      0.00
  -10    0   18     -3.56      0.00
   -8    0   18      2.38      0.00
   -6    0   18      1.82      0.00
   -4    0   18      0.33      0.00
   -2    0   18     -1.29      0.00
    0    0   18     -1.21      0.00
    2    0   18      0.82      0.00
    4    0   18     -2.44      0.00
    6    0   18      1.24      0.00
  -13    1   18      1.80      0.00
  -12    1   18     -2.71      0.00
  -11    1   18     -1.07      0.00
  -10    1   18     -2.44      0.00
   -9    1   18      0.72      0.00
   -8    1   18      4.63      0.00
   -7    1   18     -2.56      0.00
   -6    1   18     -0.13      0.00
   -5    1   18     -0.30      0.00
   -4    1   18     -1.30      0.00
   -3    1   18      0.61      0.00
   -2    1   18     -1.26      0.00
   -1    1   18      1.02      0.00
    0    1   18      0.71      0.00
    1    1   18     -0.57      0.00
    2    1   18     -1.27      0.00
    3    1   18      0.60      0.00
    4    1   18     -0.37      0.00
    5    1   18      0.16      0.00
    6    1   18      1.38      0.00
  -13    2   18      0.15      0.00
  -12    2   18      1.76      0.00
  -11    2   18      3.86      0.00
  -10    2   18      2.81      0.00
   -9    2   18     -2.48      0.00
   -8    2   18      2.01      0.00
   -7    2   18     -3.08      0.00
   -6    2   18     -1.49      0.00
   -5    2   18      1.27      0.00
   -4    2   18     -0.33      0.00
   -3    2   18      1.70      0.00
   -2    2   18     -0.57      0.00
   -1    2   18      0.36      0.00
    0    2   18      0.70      0.00
    1    2   18     -1.45      0.00
    2    2   18     -0.12      0.00
    3    2   18      2.90      0.00
    4    2   18      0.73      0.00
    5    2   18     -1.80      0.00
    6    2   18      0.67      0.00
  -13    3   18     -0.20      0.00
  -12    3   18      1.37      0.00
  -11    3   18     -1.51      0.00
  -10    3   18     -1.52      0.00
   -9    3   18     -4.52      0.00
   -8    3   18      2.99      0.00
   -7    3   18      2.52      0.00
   -6    3   18      0.68      0.00
   -5    3   18      2.34      0.00
   -4    3   18     -1.95      0.00
   -3    3   18      0.03      0.00
   -2    3   18     -0.11      0.00
   -1    3   18     -1.63      0.00
    0    3   18      1.12      0.00
    1    3   18      1.46      0.00
    2    3   18     -0.36      0.00
    3    3   18      0.08      0.00
    4    3   18     -1.03      0.00
    5    3   18     -1.72      0.00
  -12    4   18     -0.13      0.00
  -11    4   18      0.23      0.00
  -10    4   18      1.27      0.00
   -9    4   18     -0.81      0.00
   -8    4   18      0.58      0.00
   -7    4   18      0.12      0.00
   -6    4   18     -3.76      0.00
   -5    4   18     -0.39      0.00
   -4    4   18     -0.17      0.00
   -3    4   18      1.67      0.00
   -2    4   18      1.64      0.00
   -1    4   18     -1.87      0.00
    0    4   18      0.45      0.00
    1    4   18      0.27      0.00
    2    4   18     -3.34      0.00
    3    4   18     -0.15      0.00
    4    4   18      1.18      0.00
    5    4   18      0.91      0.00
  -11    5   18      0.07      0.00
  -10    5   18      0.70      0.00
   -9    5   18     -1.61      0.00
   -8    5   18     -1.97      0.00
   -7    5   18      1.31      0.00
   -6    5   18      0.19      0.00
   -5    5   18      1.28      0.00
   -4    5   18      0.15      0.00
   -3    5   18     -1.59      0.00
   -2    5   18      0.62      0.00
   -1    5   18     -0.50      0.00
    0    5   18     -0.94      0.00
    1    5   18      0.76      0.00
    2    5   18      0.80      0.00
    3    5   18      2.68      0.00
    4    5   18      0.79      0.00
  -10    6   18      3.09      0.00
   -9    6   18      1.28      0.00
   -8    6   18     -0.02      0.00
   -7    6   18      1.86      0.00
   -6    6   18      0.26      0.00
   -5    6   18     -1.94      0.00
   -4    6   18     -0.82      0.00
   -3    6   18     -0.33      0.00
   -2    6   18      1.63      0.00
   -1    6   18      0.87      0.00
    0    6   18     -0.55      0.00
    1    6   18      1.87      0.00
    2    6   18     -0.84      0.00
    3    6   18     -2.18      0.00
   -9    7   18     -1.39      0.00
   -8    7   18     -1.92      0.00
   -7    7   18      0.31      0.00
   -6    7   18      1.71      0.00
   -5    7   18      0.14      0.00
   -4    7   18      1.12      0.00
   -3    7   18     -0.58      0.00
   -2    7   18     -0.61      0.00
   -1    7   18      0.35      0.00
    0    7   18     -2.03      0.00
    1    7   18     -0.07      0.00
    2    7   18     -0.61      0.00
   -6    8   18      0.74      0.00
   -5    8   18     -1.65      0.00
   -4    8   18     -1.00      0.00
   -3    8   18     -0.34      0.00
   -2    8   18      0.22      0.00
   -1    8   18      1.68      0.00
  -11    0   19      3.05      0.00
   -9    0   19     -2.99      0.00
   -7    0   19      2.12      0.00
   -5    0   19      3.44      0.00
   -3    0   19      2.20      0.00
   -1    0   19     -0.85      0.00
    1    0   19     -1.91      0.00
    3    0   19      0.02      0.00
  -12    1   19      1.33      0.00
  -11    1   19      1.00      0.00
  -10    1   19     -0.21      0.00
   -9    1   19     -1.16      0.00
   -8    1   19      0.30      0.00
   -7    1   19      2.25      0.00
   -6    1   19     -2.44      0.00
   -5    1   19     -0.67      0.00
   -4    1   19     -1.75      0.00
   -3    1   19     -1.34      0.00
   -2    1   19     -0.93      0.00
   -1    1   19     -2.29      0.00
    0    1   19      1.43      0.00
    1    1   19      1.45      0.00
    2    1   19      0.58      0.00
    3    1   19      0.68      0.00
    4    1   19      1.69      0.00
  -11    2   19     -2.22      0.00
  -10    2   19      2.18      0.00
   -9    2   19      0.13      0.00
   -8    2   19     -1.48      0.00
   -7    2   19      1.49      0.00
   -6    2   19     -2.19      0.00
   -5    2   19     -0.76      0.00
   -4    2   19      1.44      0.00
   -3    2   19      0.26      0.00
   -2    2   19      2.63      0.00
   -1    2   19      0.86      0.00
    0    2   19      0.04      0.00
    1    2   19      0.24      0.00
    2    2   19     -2.86      0.00
    3    2   19     -1.81      0.00
    4    2   19     -0.04      0.00
  -11    3   19      1.10      0.00
  -10    3   19      2.35      0.00
   -9    3   19     -1.57      0.00
   -8    3   19     -1.85      0.00
   -7    3   19      1.58      0.00
   -6    3   19      1.42      0.00
   -5    3   19      1.83      0.00
   -4    3   19      1.43      0.00
   -3    3   19     -2.07      0.00
   -2    3   19     -0.15      0.00
   -1    3   19     -0.50      0.00
    0    3   19     -3.19      0.00
    1    3   19      1.37      0.00
    2    3   19      0.14      0.00
    3    3   19      0.11      0.00
  -10    4   19      1.12      0.00
   -9    4   19      0.45      0.00
   -8    4   19      0.67      0.00
   -7    4   19      0.73      0.00
   -6    4   19     -0.14      0.00
   -5    4   19     -2.22      0.00
   -4    4   19     -1.84      0.00
   -3    4   19     -0.36      0.00
   -2    4   19      0.45      0.00
   -1    4   19      2.02      0.00
    0    4   19      0.09      0.00
    1    4   19      2.89      0.00
    2    4   19      1.79      0.00
    3    4   19     -0.89      0.00
   -8    5   19     -1.92      0.00
   -7    5   19     -1.95      0.00
   -6    5   19     -0.55      0.00
   -5    5   19      0.97      0.00
   -4    5   19      1.50      0.00
   -3    5   19      1.99      0.00
   -2    5   19     -0.94      0.00
   -1    5   19      0.66      0.00
    0    5   19     -0.91      0.00
    1    5   19     -3.39      0.00
    2    5   19     -1.31      0.00
   -8    6   19      0.33      0.00
   -7    6   19      1.20      0.00
   -6    6   19      1.40      0.00
   -5    6   19      1.13      0.00
   -4    6   19     -2.11      0.00
   -3    6   19     -1.41      0.00
   -2    6   19     -1.15      0.00
   -1    6   19     -0.18      0.00
    0    6   19      0.74      0.00
  -10    0   20      3.02      0.00
   -8    0   20     -4.03      0.00
   -6    0   20     -1.80      0.00
   -4    0   20     -0.93      0.00
   -2    0   20      0.17      0.00
    0    0   20      1.24      0.00
    2    0   20      1.37      0.00
  -10    1   20      0.02      0.00
   -9    1   20      1.08      0.00
   -7    1   20      2.39      0.00
   -6    1   20      0.59      0.00
   -5    1   20      0.70      0.00
   -4    1   20      0.63      0.00
   -3    1   20      0.60      0.00
   -2    1   20      0.98      0.00
   -1    1   20     -0.53      0.00
    0    1   20     -0.38      0.00
    1    1   20     -0.37      0.00
   -9    2   20      2.88      0.00
   -8    2   20     -0.96      0.00
   -7    2   20      1.16      0.00
   -6    2   20      0.28      0.00
   -5    2   20     -1.30      0.00
   -4    2   20      0.06      0.00
   -3    2   20     -1.02      0.00
   -2    2   20     -0.41      0.00
   -1    2   20     -0.28      0.00
    0    2   20     -0.45      0.00
    1    2   20     -0.49      0.00
   -8    3   20     -1.44      0.00
   -7    3   20     -1.82      0.00
   -6    3   20     -0.52      0.00
   -5    3   20     -1.07      0.00
   -4    3   20      1.48      0.00
   -3    3   20     -0.15      0.00
   -2    3   20     -0.05      0.00
   -1    3   20      1.05      0.00
    0    3   20      0.16      0.00
   -7    4   20      0.74      0.00
   -6    4   20      2.35      0.00
   -5    4   20      0.33      0.00
   -4    4   20     -0.36      0.00
   -3    4   20     -1.00      0.00
   -2    4   20     -0.55      0.00
   -1    4   20      0.41      0.00
   -4    5   20      0.36      0.00
   20    0    0     -0.52      0.00
   20    1    0     -0.91      0.00
   20    2    0      0.04      0.00
    6    3    0     13.84      0.00
   20    3    0     -0.21      0.00
    5    4    0    -14.21      0.00
   20    4    0     -0.39      0.00
   19    5    0      0.53      0.00
   20    5    0      0.01      0.00
   19    6    0      0.64      0.00
   20    6    0      1.06      0.00
    8    7    0      3.60      0.00
    9    7    0      2.57      0.00
   18    7    0     -1.76      0.00
   19    7    0     -0.91      0.00
   18    8    0      1.30      0.00
   19    8    0     -0.05      0.00
   17    9    0     -0.57      0.00
   18    9    0     -0.37      0.00
   16   10    0     -0.26      0.00
   17   10    0     -0.16      0.00
   15   11    0      0.55      0.00
   16   11    0      0.09      0.00
   17   11    0      0.69      0.00
   14   12    0     -0.63      0.00
   15   12    0      0.58      0.00
   16   12    0     -0.45      0.00
   12   13    0     -0.41      0.00
   13   13    0      0.75      0.00
   14   13    0      0.01      0.00
   11   14    0      0.05      0.00
   12   14    0      0.18      0.00
   13   14    0     -0.70      0.00
    8   15    0      0.12      0.00
    9   15    0      1.00      0.00
   10   15    0      0.56      0.00
   11   15    0      0.77      0.00
    0   16    0      1.17      0.00
    4   16    0     -0.20      0.00
    5   16    0      0.69      0.00
    6   16    0     -1.06      0.00
    7   16    0      0.48      0.00
    8   16    0     -0.56      0.00
    9   16    0      0.17      0.00
  -13    0    1      6.20      0.00
   -1    0    1   -105.06      0.00
  -20    1    1      0.02      0.00
   -2    1    1     76.24      0.00
   20    1    1     -0.01      0.00
  -20    2    1      0.28      0.00
   20    2    1     -1.52      0.00
  -20    3    1      2.45      0.00
   20    3    1     -1.77      0.00
  -20    4    1     -0.31      0.00
    5    4    1     11.75      0.00
   19    4    1      1.69      0.00
   20    4    1      0.90      0.00
  -20    5    1     -0.40      0.00
   19    5    1     -1.01      0.00
   20    5    1      1.09      0.00
  -20    6    1      0.87      0.00
  -19    6    1      1.59      0.00
   19    6    1     -2.19      0.00
   20    6    1      0.65      0.00
  -20    7    1     -0.19      0.00
  -19    7    1     -0.62      0.00
    8    7    1     -5.46      0.00
   18    7    1      2.14      0.00
   19    7    1     -0.48      0.00
  -19    8    1      0.11      0.00
  -18    8    1      0.88      0.00
   17    8    1     -2.29      0.00
   18    8    1      0.42      0.00
   19    8    1      0.14      0.00
  -18    9    1     -0.16      0.00
  -17    9    1      0.81      0.00
   17    9    1      1.15      0.00
   18    9    1      0.19      0.00
  -18   10    1     -0.54      0.00
  -17   10    1     -0.97      0.00
  -16   10    1     -1.82      0.00
   16   10    1     -1.56      0.00
   17   10    1      0.41      0.00
  -17   11    1      0.50      0.00
  -16   11    1      0.30      0.00
  -15   11    1      2.25      0.00
   15   11    1      1.02      0.00
   16   11    1     -0.21      0.00
  -16   12    1     -0.02      0.00
  -15   12    1      1.04      0.00
  -14   12    1     -0.84      0.00
   14   12    1     -0.62      0.00
   15   12    1     -0.95      0.00
  -15   13    1     -0.32      0.00
  -14   13    1     -1.18      0.00
  -13   13    1     -1.04      0.00
   12   13    1     -0.96      0.00
   13   13    1     -0.68      0.00
   14   13    1      1.22      0.00
  -13   14    1     -0.58      0.00
  -12   14    1      0.73      0.00
  -11   14    1      0.57      0.00
   10   14    1     -1.42      0.00
   11   14    1      0.27      0.00
   12   14    1      1.00      0.00
   13   14    1      0.36      0.00
  -11   15    1      0.23      0.00
  -10   15    1     -0.36      0.00
   -9   15    1      0.93      0.00
   -8   15    1      0.66      0.00
    8   15    1     -1.56      0.00
    9   15    1      0.49      0.00
   10   15    1     -0.12      0.00
   11   15    1     -0.52      0.00
   -9   16    1      0.24      0.00
   -8   16    1     -0.68      0.00
   -7   16    1     -0.88      0.00
   -6   16    1     -0.84      0.00
   -5   16    1     -2.60      0.00
   -4   16    1     -1.33      0.00
    0   16    1      2.03      0.00
    4   16    1     -1.78      0.00
    5   16    1      2.54      0.00
    6   16    1     -0.90      0.00
    7   16    1      0.47      0.00
    8   16    1      0.27      0.00
    9   16    1     -0.01      0.00
   20    0    2      0.16      0.00
   20    1    2      0.45      0.00
  -20    2    2      0.18      0.00
   20    2    2     -0.05      0.00
  -20    3    2     -0.01      0.00
   19    3    2      1.83      0.00
   20    3    2      0.10      0.00
  -20    4    2      0.52      0.00
    5    4    2      9.29      0.00
   19    4    2     -0.51      0.00
   20    4    2     -0.01      0.00
  -20    5    2     -0.24      0.00
   19    5    2     -0.21      0.00
   20    5    2     -0.30      0.00
  -20    6    2     -0.67      0.00
  -19    6    2      0.93      0.00
   18    6    2      0.84      0.00
   19    6    2      0.11      0.00
  -20    7    2     -0.42      0.00
  -19    7    2      0.50      0.00
   18    7    2      1.59      0.00
   19    7    2      0.76      0.00
  -19    8    2      0.13      0.00
  -18    8    2     -0.80      0.00
   17    8    2     -1.96      0.00
   18    8    2     -1.04      0.00
  -19    9    2      0.58      0.00
  -18    9    2     -0.04      0.00
  -17    9    2      0.61      0.00
   16    9    2     -0.38      0.00
   17    9    2     -0.06      0.00
   18    9    2      0.53      0.00
  -18   10    2      0.10      0.00
  -17   10    2      0.00      0.00
  -16   10    2     -1.55      0.00
   16   10    2      1.06      0.00
   17   10    2      0.02      0.00
  -17   11    2     -0.18      0.00
  -16   11    2     -0.34      0.00
  -15   11    2      0.82      0.00
   15   11    2     -1.46      0.00
   16   11    2     -0.47      0.00
  -16   12    2      0.14      0.00
  -15   12    2     -0.02      0.00
  -14   12    2     -0.48      0.00
   13   12    2     -0.78      0.00
   14   12    2      1.22      0.00
   15   12    2     -0.35      0.00
  -15   13    2      0.48      0.00
  -14   13    2      0.91      0.00
  -13   13    2      0.04      0.00
   12   13    2      0.81      0.00
   13   13    2     -0.92      0.00
   14   13    2      0.35      0.00
  -13   14    2     -1.20      0.00
  -12   14    2     -1.06      0.00
  -11   14    2     -0.51      0.00
   10   14    2      1.06      0.00
   11   14    2     -0.62      0.00
   12   14    2     -0.10      0.00
  -11   15    2      0.00      0.00
  -10   15    2      1.03      0.00
   -9   15    2     -0.28      0.00
   -8   15    2     -0.42      0.00
    8   15    2     -0.77      0.00
    9   15    2     -0.80      0.00
   10   15    2      0.39      0.00
   11   15    2     -0.77      0.00
   -9   16    2      0.39      0.00
   -8   16    2      1.08      0.00
   -7   16    2      0.40      0.00
   -6   16    2      1.96      0.00
   -5   16    2      1.27      0.00
   -4   16    2      2.06      0.00
    3   16    2      0.59      0.00
    4   16    2     -0.98      0.00
    5   16    2     -0.15      0.00
    6   16    2     -0.17      0.00
    7   16    2     -0.37      0.00
    8   16    2      0.01      0.00
    9   16    2     -0.09      0.00
   19    0    3      0.35      0.00
   19    1    3     -1.90      0.00
   20    1    3     -0.04      0.00
  -13    2    3     -2.14      0.00
   19    2    3     -1.03      0.00
   20    2    3      1.35      0.00
  -20    3    3     -1.32      0.00
  -12    3    3      4.98      0.00
   -6    3    3      1.97      0.00
   19    3    3      0.23      0.00
   20    3    3      0.34      0.00
  -20    4    3      1.08      0.00
   19    4    3     -0.02      0.00
   20    4    3     -1.12      0.00
  -20    5    3     -0.30      0.00
   19    5    3      1.49      0.00
   20    5    3     -0.37      0.00
  -20    6    3     -0.68      0.00
  -19    6    3     -0.13      0.00
   18    6    3     -1.03      0.00
   19    6    3      1.17      0.00
  -20    7    3      0.13      0.00
  -19    7    3      0.45      0.00
   18    7    3     -1.46      0.00
   19    7    3      0.05      0.00
  -19    8    3     -0.17      0.00
  -18    8    3     -0.67      0.00
   17    8    3      2.27      0.00
   18    8    3      0.64      0.00
  -19    9    3     -0.22      0.00
  -18    9    3     -0.13      0.00
  -17    9    3     -0.05      0.00
   16    9    3     -0.07      0.00
   17    9    3     -1.22      0.00
  -18   10    3      0.47      0.00
  -17   10    3      1.60      0.00
  -16   10    3      1.83      0.00
   15   10    3     -1.54      0.00
   16   10    3      0.72      0.00
   17   10    3     -0.48      0.00
  -17   11    3     -0.98      0.00
  -16   11    3     -0.36      0.00
  -15   11    3     -2.11      0.00
   14   11    3      0.70      0.00
   15   11    3      0.12      0.00
   16   11    3      0.41      0.00
  -16   12    3      0.61      0.00
  -15   12    3     -0.48      0.00
  -14   12    3      0.19      0.00
   13   12    3     -0.05      0.00
   14   12    3      0.21      0.00
   15   12    3      0.53      0.00
  -15   13    3      0.13      0.00
  -14   13    3      0.74      0.00
  -13   13    3      1.06      0.00
   11   13    3     -0.96      0.00
   12   13    3      1.33      0.00
   13   13    3      0.31      0.00
  -13   14    3      0.80      0.00
  -12   14    3      0.20      0.00
  -11   14    3     -1.15      0.00
   10   14    3      0.83      0.00
   11   14    3     -0.57      0.00
   12   14    3     -0.63      0.00
  -11   15    3     -1.05      0.00
  -10   15    3      0.18      0.00
   -9   15    3     -1.44      0.00
   -8   15    3      0.32      0.00
    7   15    3     -0.50      0.00
    8   15    3      1.47      0.00
    9   15    3     -0.61      0.00
   10   15    3      0.46      0.00
   -9   16    3     -0.57      0.00
   -8   16    3      1.11      0.00
   -7   16    3      0.59      0.00
   -6   16    3      0.40      0.00
   -5   16    3      1.54      0.00
   -4   16    3      0.31      0.00
   -3   16    3      3.39      0.00
    1   16    3     -0.98      0.00
    2   16    3      0.77      0.00
    3   16    3     -1.01      0.00
    4   16    3      0.99      0.00
    5   16    3     -0.72      0.00
    6   16    3     -0.01      0.00
    7   16    3      0.05      0.00
    8   16    3     -0.37      0.00
   20    0    4     -0.76      0.00
   19    1    4      0.71      0.00
   20    1    4      0.07      0.00
   19    2    4     -0.41      0.00
   20    2    4      0.06      0.00
  -20    3    4      0.06      0.00
  -12    3    4      1.14      0.00
   19    3    4     -1.52      0.00
   20    3    4      0.30      0.00
  -20    4    4     -0.83      0.00
  -12    4    4      6.36      0.00
   -5    4    4     16.49      0.00
   18    4    4      1.85      0.00
   19    4    4      0.70      0.00
  -20    5    4      0.21      0.00
  -10    5    4      4.86      0.00
    0    5    4     20.20      0.00
   18    5    4      0.17      0.00
   19    5    4     -0.35      0.00
  -20    6    4     -0.25      0.00
  -19    6    4     -0.48      0.00
   18    6    4     -0.44      0.00
   19    6    4     -0.31      0.00
  -20    7    4      0.50      0.00
  -19    7    4      0.23      0.00
   17    7    4      0.90      0.00
   18    7    4     -1.03      0.00
  -19    8    4     -0.47      0.00
  -18    8    4      0.03      0.00
   17    8    4      1.16      0.00
   18    8    4      0.62      0.00
  -19    9    4     -0.35      0.00
  -18    9    4      0.33      0.00
  -17    9    4     -0.54      0.00
   16    9    4      0.71      0.00
   17    9    4      0.58      0.00
  -18   10    4      0.03      0.00
  -17   10    4     -0.29      0.00
  -16   10    4      1.56      0.00
   15   10    4     -0.93      0.00
   16   10    4     -0.69      0.00
  -17   11    4     -0.15      0.00
  -16   11    4     -0.17      0.00
  -15   11    4     -0.24      0.00
   14   11    4     -0.33      0.00
   15   11    4      0.64      0.00
  -16   12    4      0.02      0.00
  -15   12    4      0.36      0.00
  -14   12    4      0.84      0.00
   13   12    4      0.06      0.00
   14   12    4     -0.46      0.00
  -15   13    4     -0.80      0.00
  -14   13    4     -0.75      0.00
  -13   13    4     -0.44      0.00
   11   13    4     -1.11      0.00
   12   13    4      0.02      0.00
   13   13    4      0.35      0.00
  -13   14    4      0.43      0.00
  -12   14    4      1.18      0.00
  -11   14    4      0.75      0.00
    9   14    4     -1.55      0.00
   10   14    4     -0.04      0.00
   11   14    4     -0.02      0.00
   12   14    4      0.72      0.00
  -11   15    4     -0.05      0.00
  -10   15    4     -0.05      0.00
   -9   15    4     -0.38      0.00
   -8   15    4      1.27      0.00
    1   15    4      2.16      0.00
    6   15    4      1.20      0.00
    7   15    4     -1.72      0.00
    8   15    4      0.96      0.00
    9   15    4     -0.23      0.00
   10   15    4     -0.47      0.00
   -9   16    4     -1.06      0.00
   -8   16    4     -1.18      0.00
   -7   16    4     -0.87      0.00
   -6   16    4     -2.30      0.00
   -5   16    4     -1.11      0.00
   -4   16    4     -2.69      0.00
   -3   16    4     -0.55      0.00
   -2   16    4      0.29      0.00
   -1   16    4      0.70      0.00
    0   16    4     -0.14      0.00
    1   16    4     -0.95      0.00
    2   16    4     -0.66      0.00
    3   16    4      0.04      0.00
    4   16    4      0.87      0.00
    5   16    4     -0.34      0.00
    6   16    4      1.07      0.00
    7   16    4     -0.17      0.00
    8   16    4      0.22      0.00
   19    0    5      0.28      0.00
   19    1    5      1.14      0.00
   20    1    5      0.10      0.00
   19    2    5      0.26      0.00
   20    2    5     -0.43      0.00
  -20    3    5      0.18      0.00
   18    3    5      0.90      0.00
   19    3    5     -1.02      0.00
  -20    4    5     -1.26      0.00
  -12    4    5      2.40      0.00
  -11    4    5      5.96      0.00
   18    4    5      1.01      0.00
   19    4    5     -0.27      0.00
  -20    5    5     -0.12      0.00
   -5    5    5      9.39      0.00
   -4    5    5      2.23      0.00
   18    5    5      1.76      0.00
   19    5    5     -0.61      0.00
  -20    6    5      0.45      0.00
  -19    6    5     -1.08      0.00
   17    6    5     -1.50      0.00
   18    6    5      0.56      0.00
  -20    7    5     -0.13      0.00
  -19    7    5     -0.67      0.00
   17    7    5      1.63      0.00
   18    7    5      0.09      0.00
  -19    8    5     -0.17      0.00
  -18    8    5      0.78      0.00
   16    8    5     -1.91      0.00
   17    8    5     -1.38      0.00
  -19    9    5     -0.11      0.00
  -18    9    5      0.00      0.00
  -17    9    5     -0.41      0.00
   15    9    5      0.15      0.00
   16    9    5     -0.08      0.00
   17    9    5      0.87      0.00
  -18   10    5     -0.36      0.00
  -17   10    5     -0.55      0.00
  -16   10    5     -1.42      0.00
   14   10    5     -0.07      0.00
   15   10    5      1.54      0.00
   16   10    5      0.11      0.00
  -17   11    5      1.04      0.00
  -16   11    5      0.13      0.00
  -15   11    5      0.67      0.00
   13   11    5      1.98      0.00
   14   11    5     -0.84      0.00
   15   11    5     -0.81      0.00
  -16   12    5     -0.07      0.00
  -15   12    5     -0.10      0.00
  -14   12    5      0.10      0.00
   12   12    5     -1.53      0.00
   13   12    5     -0.06      0.00
   14   12    5     -0.04      0.00
  -15   13    5     -0.18      0.00
  -14   13    5     -0.27      0.00
  -13   13    5     -0.36      0.00
  -12   13    5     -0.32      0.00
   10   13    5     -0.54      0.00
   11   13    5      0.43      0.00
   12   13    5     -1.00      0.00
   13   13    5      0.06      0.00
  -13   14    5     -0.68      0.00
  -12   14    5     -1.02      0.00
  -11   14    5      0.56      0.00
  -10   14    5      0.14      0.00
    8   14    5      0.02      0.00
    9   14    5      2.16      0.00
   10   14    5      0.14      0.00
   11   14    5      0.28      0.00
  -11   15    5      0.27      0.00
  -10   15    5      0.88      0.00
   -9   15    5      1.51      0.00
   -8   15    5     -0.45      0.00
    1   15    5     -0.27      0.00
    2   15    5      0.90      0.00
    3   15    5      2.52      0.00
    4   15    5      1.26      0.00
    5   15    5     -0.90      0.00
    6   15    5      0.86      0.00
    7   15    5      0.12      0.00
    8   15    5     -0.93      0.00
    9   15    5      0.30      0.00
   -9   16    5      0.81      0.00
   -8   16    5     -0.91      0.00
   -7   16    5     -0.02      0.00
   -6   16    5     -0.05      0.00
   -5   16    5     -0.58      0.00
   -4   16    5      0.59      0.00
   -3   16    5     -1.61      0.00
   -2   16    5      0.81      0.00
   -1   16    5      0.51      0.00
    0   16    5      1.57      0.00
    1   16    5      1.62      0.00
    2   16    5     -1.20      0.00
    3   16    5     -0.60      0.00
    4   16    5      0.51      0.00
    5   16    5     -0.97      0.00
    6   16    5      0.39      0.00
    7   16    5     -0.22      0.00
   18    0    6      1.02      0.00
   18    1    6     -1.08      0.00
   19    1    6     -0.93      0.00
   18    2    6     -0.27      0.00
   19    2    6      0.66      0.00
  -20    3    6     -0.23      0.00
   18    3    6      1.37      0.00
   19    3    6      0.88      0.00
  -20    4    6      0.87      0.00
   18    4    6     -1.67      0.00
   19    4    6     -0.72      0.00
  -20    5    6      0.07      0.00
  -11    5    6      2.16      0.00
   -9    5    6     -1.89      0.00
   17    5    6     -0.43      0.00
   18    5    6      0.17      0.00
  -20    6    6      1.29      0.00
  -19    6    6     -0.38      0.00
   -9    6    6      1.11      0.00
   -8    6    6      4.93      0.00
   -7    6    6      3.49      0.00
   -6    6    6     -2.59      0.00
    0    6    6      1.00      0.00
   17    6    6     -0.10      0.00
   18    6    6      0.20      0.00
  -20    7    6     -0.02      0.00
  -19    7    6     -0.82      0.00
   -7    7    6      4.19      0.00
   -6    7    6    -10.82      0.00
   16    7    6      0.09      0.00
   17    7    6     -0.66      0.00
  -19    8    6      0.87      0.00
  -18    8    6      0.20      0.00
   -6    8    6      0.34      0.00
   16    8    6      2.13      0.00
   17    8    6     -0.37      0.00
  -19    9    6      0.38      0.00
  -18    9    6     -1.10      0.00
  -17    9    6     -0.25      0.00
    2    9    6      3.16      0.00
   15    9    6     -1.45      0.00
   16    9    6     -0.79      0.00
  -18   10    6     -0.33      0.00
  -17   10    6      0.18      0.00
  -16   10    6      0.54      0.00
   14   10    6      0.89      0.00
   15   10    6      0.85      0.00
  -17   11    6     -0.01      0.00
  -16   11    6      0.40      0.00
  -15   11    6     -0.84      0.00
   13   11    6      0.05      0.00
   14   11    6      0.23      0.00
  -16   12    6     -0.24      0.00
  -15   12    6      0.24      0.00
  -14   12    6     -1.02      0.00
   11   12    6      1.15      0.00
   12   12    6     -0.38      0.00
   13   12    6      0.35      0.00
  -14   13    6      0.16      0.00
  -13   13    6      0.84      0.00
  -12   13    6      0.26      0.00
   10   13    6     -1.87      0.00
   11   13    6      1.91      0.00
   12   13    6     -0.86      0.00
  -13   14    6      0.29      0.00
  -12   14    6      0.12      0.00
  -11   14    6     -1.05      0.00
  -10   14    6      1.15      0.00
    8   14    6     -2.66      0.00
    9   14    6      1.53      0.00
   10   14    6     -0.43      0.00
  -11   15    6     -0.54      0.00
  -10   15    6     -1.76      0.00
   -9   15    6      0.85      0.00
   -8   15    6     -1.40      0.00
   -7   15    6     -1.06      0.00
    1   15    6     -2.23      0.00
    2   15    6     -0.70      0.00
    5   15    6      0.88      0.00
    6   15    6     -1.64      0.00
    7   15    6      2.15      0.00
    8   15    6     -0.47      0.00
    9   15    6      0.58      0.00
   -8   16    6      0.85      0.00
   -7   16    6      0.69      0.00
   -6   16    6      1.40      0.00
   -5   16    6      0.47      0.00
   -4   16    6      1.77      0.00
   -3   16    6      0.13      0.00
   -2   16    6      0.23      0.00
   -1   16    6     -0.78      0.00
    0   16    6      0.07      0.00
    1   16    6      0.92      0.00
    2   16    6      1.55      0.00
    3   16    6     -0.69      0.00
    4   16    6     -0.58      0.00
    5   16    6      0.59      0.00
    6   16    6     -0.72      0.00
   19    0    7     -0.58      0.00
   18    1    7      0.60      0.00
   19    1    7     -0.57      0.00
  -20    2    7     -1.18      0.00
   18    2    7      0.26      0.00
   19    2    7      0.04      0.00
  -20    3    7      0.36      0.00
   17    3    7      0.13      0.00
   18    3    7     -0.51      0.00
  -20    4    7      1.22      0.00
   17    4    7      2.55      0.00
   18    4    7     -0.52      0.00
  -20    5    7      0.62      0.00
   -4    5    7      8.55      0.00
   17    5    7      0.67      0.00
   18    5    7     -0.88      0.00
  -20    6    7     -0.25      0.00
  -19    6    7      2.04      0.00
   -9    6    7     -3.31      0.00
   16    6    7      0.92      0.00
   17    6    7      0.54      0.00
  -20    7    7     -0.18      0.00
  -19    7    7      0.99      0.00
   -8    7    7      2.67      0.00
   -7    7    7      1.02      0.00
   -5    7    7     -8.58      0.00
   16    7    7     -0.12      0.00
   17    7    7     -1.18      0.00
  -19    8    7      0.63      0.00
  -18    8    7     -0.61      0.00
   -7    8    7     -8.27      0.00
   -6    8    7      2.05      0.00
   -5    8    7    -11.22      0.00
   15    8    7     -0.94      0.00
   16    8    7      1.03      0.00
  -18    9    7      0.65      0.00
  -17    9    7      0.36      0.00
   -6    9    7      7.98      0.00
   14    9    7      2.09      0.00
   15    9    7      0.24      0.00
   16    9    7     -0.04      0.00
  -18   10    7      0.09      0.00
  -17   10    7     -0.70      0.00
  -16   10    7      1.09      0.00
   13   10    7     -2.74      0.00
   14   10    7     -0.93      0.00
   15   10    7     -0.62      0.00
  -17   11    7     -0.13      0.00
  -16   11    7     -0.09      0.00
  -15   11    7     -0.37      0.00
   12   11    7      0.90      0.00
   13   11    7     -0.47      0.00
   14   11    7      0.61      0.00
  -16   12    7     -0.55      0.00
  -15   12    7      0.46      0.00
  -14   12    7      0.12      0.00
   11   12    7     -0.06      0.00
   12   12    7      0.81      0.00
   13   12    7      0.45      0.00
  -14   13    7     -0.41      0.00
  -13   13    7     -0.31      0.00
  -12   13    7      1.26      0.00
    9   13    7      0.38      0.00
   10   13    7     -1.37      0.00
   11   13    7      0.11      0.00
  -13   14    7      0.27      0.00
  -12   14    7      0.83      0.00
  -11   14    7      1.22      0.00
  -10   14    7     -0.81      0.00
    7   14    7      0.46      0.00
    8   14    7     -0.83      0.00
    9   14    7     -0.73      0.00
   10   14    7     -0.51      0.00
  -11   15    7      0.91      0.00
  -10   15    7     -1.62      0.00
   -9   15    7     -1.64      0.00
   -8   15    7      0.03      0.00
   -7   15    7     -0.59      0.00
   -6   15    7      0.49      0.00
    3   15    7     -0.82      0.00
    4   15    7     -1.78      0.00
    5   15    7      1.77      0.00
    6   15    7     -1.34      0.00
    7   15    7     -0.21      0.00
    8   15    7      0.43      0.00
   -8   16    7      0.81      0.00
   -7   16    7      0.33      0.00
   -6   16    7     -0.52      0.00
   -5   16    7     -0.20      0.00
   -4   16    7     -0.88      0.00
   -3   16    7      0.03      0.00
   -2   16    7     -0.78      0.00
   -1   16    7     -0.83      0.00
    0   16    7     -1.17      0.00
    1   16    7     -1.70      0.00
    2   16    7      0.87      0.00
    3   16    7      1.46      0.00
    4   16    7     -1.00      0.00
    5   16    7      0.72      0.00
  -20    0    8     -0.91      0.00
   18    0    8     -0.13      0.00
  -20    1    8     -0.36      0.00
   17    1    8      0.85      0.00
   18    1    8      1.38      0.00
  -20    2    8     -0.06      0.00
   17    2    8     -0.98      0.00
   18    2    8     -0.01      0.00
  -20    3    8      0.43      0.00
   17    3    8     -0.85      0.00
   18    3    8     -0.53      0.00
  -20    4    8     -0.53      0.00
   17    4    8      1.05      0.00
   18    4    8      0.92      0.00
  -20    5    8     -1.05      0.00
  -19    5    8      1.43      0.00
   -8    5    8     -4.87      0.00
   -7    5    8     -3.49      0.00
   16    5    8     -0.24      0.00
   17    5    8      0.18      0.00
  -20    6    8     -1.55      0.00
  -19    6    8      1.08      0.00
   16    6    8     -1.61      0.00
   17    6    8     -0.30      0.00
  -20    7    8     -0.28      0.00
  -19    7    8      0.65      0.00
  -18    7    8      0.68      0.00
   -6    7    8      9.03      0.00
   15    7    8      2.37      0.00
   16    7    8      0.38      0.00
  -19    8    8     -0.94      0.00
  -18    8    8     -0.54      0.00
   -7    8    8     -6.22      0.00
   14    8    8     -1.41      0.00
   15    8    8      0.02      0.00
   16    8    8     -0.93      0.00
  -18    9    8      1.22      0.00
  -17    9    8      1.05      0.00
   14    9    8     -0.11      0.00
   15    9    8      0.45      0.00
  -17   10    8     -0.49      0.00
  -16   10    8     -1.24      0.00
   -7   10    8      5.01      0.00
   13   10    8      0.17      0.00
   14   10    8     -0.43      0.00
  -16   11    8      0.27      0.00
  -15   11    8      0.82      0.00
   11   11    8     -1.22      0.00
   12   11    8      0.88      0.00
   13   11    8     -0.75      0.00
  -15   12    8     -0.14      0.00
  -14   12    8      1.33      0.00
  -13   12    8      1.89      0.00
   10   12    8      2.91      0.00
   11   12    8     -1.11      0.00
   12   12    8      0.77      0.00
  -14   13    8     -0.47      0.00
  -13   13    8     -1.04      0.00
  -12   13    8     -1.51      0.00
  -11   13    8      2.90      0.00
    8   13    8      2.07      0.00
    9   13    8     -0.64      0.00
   10   13    8      1.37      0.00
   11   13    8     -1.46      0.00
  -12   14    8     -1.31      0.00
  -11   14    8      0.96      0.00
  -10   14    8      0.22      0.00
   -9   14    8     -0.20      0.00
    6   14    8      0.92      0.00
    7   14    8     -1.62      0.00
    8   14    8      1.18      0.00
    9   14    8     -1.29      0.00
  -10   15    8      1.96      0.00
   -9   15    8     -0.80      0.00
   -8   15    8      0.07      0.00
   -7   15    8     -0.09      0.00
   -6   15    8     -0.81      0.00
   -5   15    8     -0.23      0.00
   -4   15    8     -1.24      0.00
   -3   15    8      0.70      0.00
    1   15    8      1.76      0.00
    2   15    8     -0.73      0.00
    3   15    8      0.90      0.00
    4   15    8     -0.83      0.00
    5   15    8     -0.20      0.00
    6   15    8      1.15      0.00
    7   15    8     -0.95      0.00
   -7   16    8      0.12      0.00
   -6   16    8      0.25      0.00
   -5   16    8      0.15      0.00
   -4   16    8     -0.72      0.00
   -3   16    8      0.40      0.00
   -2   16    8     -0.05      0.00
   -1   16    8      0.65      0.00
    0   16    8      0.31      0.00
    1   16    8     -0.73      0.00
    2   16    8     -1.22      0.00
    3   16    8      0.60      0.00
    4   16    8      0.45      0.00
   17    0    9     -0.23      0.00
  -20    1    9     -0.46      0.00
   17    1    9      0.41      0.00
   18    1    9     -0.42      0.00
  -20    2    9      1.21      0.00
   16    2    9      0.32      0.00
   17    2    9      0.22      0.00
  -20    3    9     -0.83      0.00
    5    3    9      0.62      0.00
   16    3    9      0.86      0.00
   17    3    9     -0.29      0.00
  -20    4    9     -0.25      0.00
   16    4    9      1.25      0.00
   17    4    9     -1.04      0.00
  -20    5    9     -0.57      0.00
  -19    5    9     -1.14      0.00
   16    5    9      0.90      0.00
   17    5    9     -0.02      0.00
  -20    6    9      0.10      0.00
  -19    6    9     -1.67      0.00
   15    6    9      0.48      0.00
   16    6    9     -0.45      0.00
  -19    7    9     -0.65      0.00
  -18    7    9      1.54      0.00
   14    7    9     -1.11      0.00
   15    7    9      0.80      0.00
   16    7    9     -0.61      0.00
  -19    8    9     -0.60      0.00
  -18    8    9      0.34      0.00
  -17    8    9     -1.71      0.00
   14    8    9     -0.53      0.00
   15    8    9      0.61      0.00
  -18    9    9     -0.42      0.00
  -17    9    9     -0.62      0.00
  -16    9    9      0.75      0.00
   -8    9    9      0.52      0.00
   13    9    9     -0.23      0.00
   14    9    9     -0.87      0.00
  -17   10    9      0.64      0.00
  -16   10    9     -1.40      0.00
  -15   10    9     -0.07      0.00
   -8   10    9     -5.53      0.00
   12   10    9      0.55      0.00
   13   10    9      1.79      0.00
   14   10    9      0.54      0.00
  -16   11    9      0.06      0.00
  -15   11    9      0.74      0.00
  -14   11    9     -0.31      0.00
   11   11    9     -0.94      0.00
   12   11    9     -0.49      0.00
   13   11    9     -0.33      0.00
  -15   12    9     -0.60      0.00
  -14   12    9      0.27      0.00
  -13   12    9      1.28      0.00
    9   12    9     -2.92      0.00
   10   12    9      0.75      0.00
   11   12    9     -0.29      0.00
  -13   13    9      0.41      0.00
  -12   13    9     -1.04      0.00
  -11   13    9     -0.96      0.00
    7   13    9     -2.09      0.00
    8   13    9      1.06      0.00
    9   13    9     -0.72      0.00
   10   13    9      1.43      0.00
  -12   14    9     -0.58      0.00
  -11   14    9     -1.89      0.00
  -10   14    9      0.19      0.00
   -9   14    9      0.03      0.00
   -8   14    9      1.19      0.00
    4   14    9      1.76      0.00
    5   14    9     -0.40      0.00
    6   14    9      1.79      0.00
    7   14    9     -0.63      0.00
    8   14    9      1.29      0.00
   -9   15    9      1.15      0.00
   -8   15    9      0.51      0.00
   -7   15    9     -1.15      0.00
   -6   15    9     -0.40      0.00
   -5   15    9     -1.82      0.00
   -4   15    9     -1.56      0.00
   -3   15    9     -1.91      0.00
   -2   15    9     -1.02      0.00
   -1   15    9     -0.28      0.00
    0   15    9     -1.00      0.00
    1   15    9      1.74      0.00
    2   15    9      0.84      0.00
    3   15    9     -0.42      0.00
    4   15    9      0.75      0.00
    5   15    9     -1.26      0.00
    6   15    9      0.48      0.00
   -6   16    9      0.57      0.00
   -5   16    9      0.70      0.00
   -4   16    9      0.76      0.00
   -3   16    9      0.35      0.00
   -2   16    9      0.58      0.00
   -1   16    9      0.62      0.00
    0   16    9      0.99      0.00
    1   16    9      0.71      0.00
    2   16    9     -0.25      0.00
  -20    0   10      1.38      0.00
   16    0   10      1.71      0.00
  -20    1   10      0.08      0.00
   16    1   10     -1.46      0.00
   17    1   10      0.14      0.00
  -20    2   10      0.52      0.00
   16    2   10     -0.02      0.00
   17    2   10      1.54      0.00
  -20    3   10     -0.53      0.00
    5    3   10     -2.70      0.00
   16    3   10      0.54      0.00
   17    3   10      0.29      0.00
  -20    4   10      0.40      0.00
  -19    4   10     -0.28      0.00
    5    4   10     -3.29      0.00
   15    4   10     -2.13      0.00
   16    4   10     -0.10      0.00
  -20    5   10      1.64      0.00
  -19    5   10     -0.34      0.00
   15    5   10     -0.96      0.00
   16    5   10      0.42      0.00
  -20    6   10      0.69      0.00
  -19    6   10     -1.19      0.00
  -18    6   10     -1.51      0.00
   14    6   10      1.40      0.00
   15    6   10      0.16      0.00
   16    6   10      0.42      0.00
  -19    7   10     -0.28      0.00
  -18    7   10      0.51      0.00
    0    7   10     -4.51      0.00
   14    7   10     -0.32      0.00
   15    7   10     -0.79      0.00
  -18    8   10      1.12      0.00
  -17    8   10      0.13      0.00
   13    8   10     -0.36      0.00
   14    8   10      0.64      0.00
  -18    9   10     -0.73      0.00
  -17    9   10     -0.54      0.00
  -16    9   10     -1.27      0.00
   12    9   10      0.56      0.00
   13    9   10     -0.91      0.00
   14    9   10      0.13      0.00
  -17   10   10      1.04      0.00
  -16   10   10      0.50      0.00
  -15   10   10     -0.75      0.00
   11   10   10      0.54      0.00
   12   10   10     -0.24      0.00
   13   10   10      0.15      0.00
  -16   11   10     -0.39      0.00
  -15   11   10     -0.71      0.00
  -14   11   10      1.24      0.00
   10   11   10      0.52      0.00
   11   11   10      1.06      0.00
   12   11   10     -0.39      0.00
  -14   12   10     -0.82      0.00
  -13   12   10     -1.60      0.00
  -12   12   10      0.75      0.00
    8   12   10      0.35      0.00
    9   12   10     -0.73      0.00
   10   12   10     -2.41      0.00
  -13   13   10      0.52      0.00
  -12   13   10      1.54      0.00
  -11   13   10     -1.11      0.00
  -10   13   10      0.05      0.00
    6   13   10      0.55      0.00
    7   13   10     -0.15      0.00
    8   13   10     -0.26      0.00
    9   13   10      0.49      0.00
  -11   14   10     -0.53      0.00
  -10   14   10     -0.63      0.00
   -9   14   10     -0.94      0.00
   -8   14   10     -0.21      0.00
   -7   14   10     -0.21      0.00
   -6   14   10     -0.93      0.00
    2   14   10     -0.25      0.00
    3   14   10     -1.61      0.00
    4   14   10      0.41      0.00
    5   14   10      0.07      0.00
    6   14   10     -0.08      0.00
    7   14   10      0.26      0.00
   -9   15   10      0.17      0.00
   -8   15   10      0.71      0.00
   -7   15   10      0.40      0.00
   -6   15   10      0.59      0.00
   -5   15   10      0.55      0.00
   -4   15   10      1.75      0.00
   -3   15   10      0.09      0.00
   -2   15   10      0.46      0.00
   -1   15   10     -0.60      0.00
    0   15   10     -0.77      0.00
    1   15   10     -1.26      0.00
    2   15   10      1.08      0.00
    3   15   10     -0.12      0.00
    4   15   10      0.71      0.00
    5   15   10     -0.27      0.00
   -3   16   10     -0.44      0.00
   -2   16   10     -0.23      0.00
   -1   16   10     -0.45      0.00
   15    0   11     -3.23      0.00
  -20    1   11      0.46      0.00
   15    1   11     -0.31      0.00
   16    1   11      0.65      0.00
  -20    2   11     -1.09      0.00
  -19    2   11      0.72      0.00
  -10    2   11     -2.29      0.00
   15    2   11     -0.30      0.00
   16    2   11     -0.61      0.00
  -20    3   11      0.48      0.00
  -19    3   11      0.81      0.00
   15    3   11      0.49      0.00
   16    3   11     -1.06      0.00
  -20    4   11     -0.67      0.00
  -19    4   11     -0.88      0.00
   14    4   11      0.63      0.00
   15    4   11      0.80      0.00
   16    4   11     -0.60      0.00
  -20    5   11      0.38      0.00
  -19    5   11      1.27      0.00
  -18    5   11      0.98      0.00
   14    5   11      0.69      0.00
   15    5   11      0.64      0.00
  -19    6   11      0.37      0.00
  -18    6   11     -0.49      0.00
   14    6   11      0.39      0.00
   15    6   11     -0.75      0.00
  -19    7   11      0.18      0.00
  -18    7   11     -0.10      0.00
  -17    7   11      0.38      0.00
   13    7   11     -0.67      0.00
   14    7   11      0.59      0.00
  -18    8   11     -0.53      0.00
  -17    8   11      1.56      0.00
  -16    8   11     -0.78      0.00
   12    8   11      1.09      0.00
   13    8   11     -1.03      0.00
   14    8   11      0.35      0.00
  -17    9   11      0.69      0.00
  -16    9   11     -0.09      0.00
   11    9   11     -1.23      0.00
   12    9   11      2.28      0.00
   13    9   11      0.06      0.00
  -16   10   11      1.37      0.00
  -15   10   11     -0.26      0.00
  -14   10   11      0.05      0.00
  -13   10   11     -0.43      0.00
   10   10   11     -0.19      0.00
   11   10   11     -1.77      0.00
   12   10   11     -0.68      0.00
  -15   11   11     -0.40      0.00
  -14   11   11      0.64      0.00
  -13   11   11      1.62      0.00
   -4   11   11      1.77      0.00
    9   11   11      0.27      0.00
   10   11   11      0.38      0.00
   11   11   11      0.99      0.00
  -14   12   11     -0.46      0.00
  -13   12   11     -1.12      0.00
  -12   12   11     -2.17      0.00
  -11   12   11     -1.46      0.00
    7   12   11      0.05      0.00
    8   12   11     -0.20      0.00
    9   12   11      2.00      0.00
   10   12   11     -0.58      0.00
  -12   13   11      0.45      0.00
  -11   13   11      1.11      0.00
  -10   13   11      1.69      0.00
   -9   13   11     -0.26      0.00
    4   13   11      1.66      0.00
    5   13   11      0.37      0.00
    6   13   11     -0.33      0.00
    7   13   11      1.14      0.00
    8   13   11     -1.01      0.00
  -10   14   11     -0.02      0.00
   -9   14   11     -0.53      0.00
   -8   14   11     -1.96      0.00
   -7   14   11      0.03      0.00
   -6   14   11     -0.71      0.00
   -5   14   11     -0.23      0.00
   -4   14   11     -0.78      0.00
   -3   14   11     -1.48      0.00
   -2   14   11     -0.11      0.00
   -1   14   11     -0.77      0.00
    0   14   11      2.61      0.00
    1   14   11      1.59      0.00
    2   14   11      0.94      0.00
    3   14   11     -0.06      0.00
    4   14   11     -1.02      0.00
    5   14   11      0.19      0.00
    6   14   11     -0.94      0.00
   -7   15   11      1.34      0.00
   -6   15   11      0.19      0.00
   -5   15   11      0.44      0.00
   -4   15   11      0.70      0.00
   -3   15   11      0.90      0.00
   -2   15   11      1.11      0.00
   -1   15   11      0.04      0.00
    0   15   11     -0.12      0.00
    1   15   11     -1.00      0.00
    2   15   11     -1.02      0.00
    3   15   11      0.30      0.00
  -20    0   12     -0.82      0.00
    0    0   12    -10.74      0.00
    2    0   12     -0.25      0.00
   14    0   12      2.50      0.00
   16    0   12      0.20      0.00
  -20    1   12     -0.30      0.00
  -19    1   12      0.86      0.00
    0    1   12     -0.62      0.00
   14    1   12      0.86      0.00
   15    1   12     -0.42      0.00
   16    1   12      1.09      0.00
  -20    2   12     -0.56      0.00
  -19    2   12     -1.03      0.00
   14    2   12      0.76      0.00
   15    2   12      0.31      0.00
  -20    3   12      0.30      0.00
  -19    3   12      0.42      0.00
  -16    3   12     -0.85      0.00
   14    3   12     -1.71      0.00
   15    3   12      0.47      0.00
  -20    4   12     -0.15      0.00
  -19    4   12     -0.24      0.00
  -18    4   12     -1.18      0.00
   14    4   12     -0.54      0.00
   15    4   12      1.42      0.00
  -19    5   12     -0.56      0.00
  -18    5   12      0.43      0.00
   13    5   12      0.79      0.00
   14    5   12     -1.56      0.00
   15    5   12      0.15      0.00
  -19    6   12      0.83      0.00
  -18    6   12      1.19      0.00
  -17    6   12      0.43      0.00
   13    6   12     -0.13      0.00
   14    6   12     -0.14      0.00
  -18    7   12     -0.99      0.00
  -17    7   12      0.12      0.00
   12    7   12      0.07      0.00
   13    7   12      0.23      0.00
   14    7   12      0.19      0.00
  -18    8   12     -1.07      0.00
  -17    8   12      0.22      0.00
  -16    8   12      1.37      0.00
   11    8   12      0.33      0.00
   12    8   12      0.20      0.00
   13    8   12     -0.04      0.00
  -17    9   12     -0.09      0.00
  -16    9   12      0.44      0.00
  -15    9   12     -1.59      0.00
   10    9   12      1.38      0.00
   11    9   12     -0.78      0.00
   12    9   12     -0.26      0.00
  -16   10   12     -0.13      0.00
  -15   10   12      0.30      0.00
  -14   10   12      0.44      0.00
    9   10   12     -0.57      0.00
   10   10   12      0.59      0.00
   11   10   12     -0.15      0.00
  -15   11   12      0.52      0.00
  -14   11   12     -0.19      0.00
  -13   11   12      0.73      0.00
  -12   11   12     -0.47      0.00
    7   11   12      1.65      0.00
    8   11   12     -0.25      0.00
    9   11   12     -1.21      0.00
   10   11   12     -0.26      0.00
  -13   12   12      1.19      0.00
  -12   12   12     -0.39      0.00
  -11   12   12     -1.83      0.00
  -10   12   12     -0.59      0.00
    5   12   12      0.73      0.00
    6   12   12      0.23      0.00
    7   12   12      1.13      0.00
    8   12   12      0.02      0.00
  -12   13   12     -0.48      0.00
  -11   13   12      0.01      0.00
  -10   13   12      1.38      0.00
   -9   13   12      1.45      0.00
   -8   13   12     -0.11      0.00
   -7   13   12     -0.31      0.00
    2   13   12     -0.03      0.00
    3   13   12     -0.57      0.00
    4   13   12     -0.53      0.00
    5   13   12      0.42      0.00
    6   13   12     -1.10      0.00
    7   13   12     -0.09      0.00
   -9   14   12      0.71      0.00
   -8   14   12     -0.34      0.00
   -7   14   12     -0.07      0.00
   -6   14   12      1.00      0.00
   -5   14   12      1.83      0.00
   -4   14   12      1.52      0.00
   -3   14   12      0.43      0.00
   -2   14   12     -0.67      0.00
   -1   14   12     -1.04      0.00
    0   14   12     -1.54      0.00
    1   14   12      0.34      0.00
    2   14   12      0.01      0.00
    3   14   12      0.85      0.00
    4   14   12     -0.06      0.00
   -5   15   12     -0.11      0.00
   -4   15   12     -1.12      0.00
   -3   15   12     -0.66      0.00
   -2   15   12     -0.28      0.00
   -1   15   12      0.76      0.00
    0   15   12      0.25      0.00
  -19    0   13     -0.16      0.00
   13    0   13     -0.82      0.00
   15    0   13      1.69      0.00
  -20    1   13     -0.14      0.00
  -19    1   13     -0.93      0.00
   -7    1   13     -5.39      0.00
    0    1   13     -1.69      0.00
   13    1   13      0.29      0.00
   14    1   13     -0.90      0.00
   15    1   13     -0.26      0.00
  -20    2   13      0.85      0.00
  -19    2   13     -0.94      0.00
  -18    2   13     -1.35      0.00
   13    2   13     -0.33      0.00
   14    2   13     -1.06      0.00
   15    2   13     -0.63      0.00
  -20    3   13      0.23      0.00
  -19    3   13     -0.29      0.00
  -18    3   13     -0.93      0.00
   13    3   13      2.06      0.00
   14    3   13      0.70      0.00
  -19    4   13      0.69      0.00
  -18    4   13      0.69      0.00
   13    4   13      0.42      0.00
   14    4   13     -0.54      0.00
  -19    5   13     -0.60      0.00
  -18    5   13     -0.99      0.00
  -17    5   13     -1.17      0.00
   12    5   13     -1.43      0.00
   13    5   13      1.07      0.00
   14    5   13     -0.39      0.00
  -18    6   13      0.04      0.00
  -17    6   13      1.21      0.00
   12    6   13     -0.08      0.00
   13    6   13      0.26      0.00
  -18    7   13     -0.47      0.00
  -17    7   13      0.00      0.00
  -16    7   13     -0.40      0.00
   11    7   13      0.36      0.00
   12    7   13     -0.31      0.00
   13    7   13      0.40      0.00
  -17    8   13     -0.53      0.00
  -16    8   13      0.12      0.00
  -15    8   13      1.09      0.00
   10    8   13     -0.41      0.00
   11    8   13      0.83      0.00
   12    8   13     -0.61      0.00
  -16    9   13     -0.09      0.00
  -15    9   13      0.60      0.00
  -14    9   13     -1.27      0.00
    9    9   13     -0.91      0.00
   10    9   13     -0.90      0.00
   11    9   13      0.87      0.00
  -15   10   13     -0.09      0.00
  -14   10   13     -0.57      0.00
  -13   10   13      1.21      0.00
    8   10   13      0.03      0.00
    9   10   13      0.02      0.00
   10   10   13     -0.13      0.00
  -14   11   13     -0.57      0.00
  -13   11   13     -0.67      0.00
  -12   11   13     -0.46      0.00
  -11   11   13     -1.60      0.00
    6   11   13     -0.69      0.00
    7   11   13      0.17      0.00
    8   11   13      1.47      0.00
    9   11   13      0.15      0.00
  -12   12   13      2.37      0.00
  -11   12   13      0.96      0.00
  -10   12   13     -1.23      0.00
   -9   12   13     -0.30      0.00
   -8   12   13     -3.21      0.00
    3   12   13      2.26      0.00
    4   12   13     -0.53      0.00
    5   12   13      0.05      0.00
    6   12   13     -0.70      0.00
    7   12   13      0.18      0.00
  -11   13   13     -0.92      0.00
  -10   13   13     -1.60      0.00
   -9   13   13      0.54      0.00
   -8   13   13      0.92      0.00
   -7   13   13      0.78      0.00
   -6   13   13      2.60      0.00
   -5   13   13      0.44      0.00
   -4   13   13     -0.84      0.00
   -3   13   13     -0.63      0.00
   -2   13   13     -1.04      0.00
   -1   13   13      0.66      0.00
    0   13   13     -1.07      0.00
    1   13   13     -0.32      0.00
    2   13   13     -0.31      0.00
    3   13   13      0.25      0.00
    4   13   13     -0.78      0.00
    5   13   13      0.11      0.00
   -8   14   13      1.31      0.00
   -7   14   13     -0.63      0.00
   -6   14   13     -0.83      0.00
   -5   14   13     -0.61      0.00
   -4   14   13      0.21      0.00
   -3   14   13      1.21      0.00
   -2   14   13     -0.37      0.00
   -1   14   13      0.40      0.00
    0   14   13     -0.72      0.00
    1   14   13     -0.79      0.00
    2   14   13     -0.40      0.00
  -18    0   14     -1.64      0.00
   -6    0   14      0.43      0.00
   12    0   14      0.92      0.00
   14    0   14     -1.53      0.00
  -19    1   14      0.37      0.00
  -18    1   14      0.34      0.00
   12    1   14      0.64      0.00
   13    1   14      0.80      0.00
   14    1   14     -0.45      0.00
  -19    2   14      0.74      0.00
  -18    2   14     -0.80      0.00
  -12    2   14      1.25      0.00
   12    2   14     -1.09      0.00
   13    2   14      0.39      0.00
   14    2   14      0.17      0.00
  -19    3   14     -0.31      0.00
  -18    3   14     -1.34      0.00
   12    3   14     -1.15      0.00
   13    3   14      0.62      0.00
   14    3   14      0.78      0.00
  -19    4   14      0.20      0.00
  -18    4   14      0.94      0.00
  -17    4   14      1.85      0.00
   12    4   14     -0.40      0.00
   13    4   14     -0.43      0.00
  -18    5   14     -0.19      0.00
  -17    5   14     -0.60      0.00
   11    5   14      1.01      0.00
   12    5   14     -1.21      0.00
   13    5   14     -0.50      0.00
  -18    6   14     -1.42      0.00
  -17    6   14     -0.41      0.00
  -16    6   14      1.03      0.00
   11    6   14      0.63      0.00
   12    6   14      0.49      0.00
  -17    7   14      0.33      0.00
  -16    7   14      0.99      0.00
  -15    7   14     -1.05      0.00
   10    7   14      0.10      0.00
   11    7   14      0.31      0.00
   12    7   14     -0.37      0.00
  -16    8   14     -0.70      0.00
  -15    8   14     -0.36      0.00
  -14    8   14      0.41      0.00
    9    8   14      0.23      0.00
   10    8   14     -0.94      0.00
   11    8   14     -0.03      0.00
  -16    9   14      0.43      0.00
  -15    9   14      1.68      0.00
  -14    9   14      0.79      0.00
  -13    9   14     -0.87      0.00
    8    9   14      0.95      0.00
    9    9   14      0.48      0.00
   10    9   14     -0.92      0.00
  -14   10   14     -0.92      0.00
  -13   10   14     -0.94      0.00
  -12   10   14      2.10      0.00
    6   10   14      3.66      0.00
    7   10   14     -0.26      0.00
    8   10   14      0.61      0.00
    9   10   14      0.68      0.00
  -13   11   14     -0.58      0.00
  -12   11   14      0.57      0.00
  -11   11   14     -0.91      0.00
  -10   11   14     -0.79      0.00
   -9   11   14      0.87      0.00
    4   11   14     -0.13      0.00
    5   11   14     -0.91      0.00
    6   11   14      0.34      0.00
    7   11   14     -1.41      0.00
    8   11   14     -0.94      0.00
  -11   12   14      1.98      0.00
  -10   12   14      0.29      0.00
   -9   12   14      0.40      0.00
   -8   12   14      1.01      0.00
   -7   12   14     -1.23      0.00
   -6   12   14     -1.12      0.00
   -5   12   14     -0.06      0.00
    0   12   14      1.68      0.00
    1   12   14      0.43      0.00
    2   12   14     -0.56      0.00
    3   12   14     -0.28      0.00
    4   12   14      0.79      0.00
    5   12   14     -0.03      0.00
    6   12   14     -0.80      0.00
   -9   13   14     -1.09      0.00
   -8   13   14     -0.16      0.00
   -7   13   14      0.08      0.00
   -6   13   14      0.93      0.00
   -5   13   14      2.20      0.00
   -4   13   14      0.43      0.00
   -3   13   14      0.12      0.00
   -2   13   14     -0.44      0.00
   -1   13   14     -0.57      0.00
    0   13   14     -0.36      0.00
    1   13   14     -0.71      0.00
    2   13   14     -0.20      0.00
    3   13   14      0.65      0.00
    4   13   14      0.07      0.00
   -5   14   14     -1.29      0.00
   -4   14   14     -1.15      0.00
   -3   14   14     -0.10      0.00
   -2   14   14      0.40      0.00
   -1   14   14     -0.04      0.00
  -19    0   15      0.72      0.00
  -17    0   15     -2.41      0.00
   11    0   15     -1.58      0.00
   13    0   15      0.42      0.00
  -19    1   15     -0.06      0.00
  -18    1   15     -0.73      0.00
  -17    1   15     -2.47      0.00
   11    1   15     -1.28      0.00
   12    1   15      0.10      0.00
   13    1   15      0.21      0.00
  -19    2   15      0.88      0.00
  -18    2   15      2.05      0.00
  -17    2   15      0.99      0.00
   11    2   15      1.17      0.00
   12    2   15      0.36      0.00
   13    2   15      0.10      0.00
  -19    3   15     -0.19      0.00
  -18    3   15      0.45      0.00
  -17    3   15     -1.51      0.00
   11    3   15     -0.10      0.00
   12    3   15     -1.39      0.00
   13    3   15     -0.95      0.00
  -18    4   15     -0.87      0.00
  -17    4   15     -0.91      0.00
  -16    4   15      0.34      0.00
   11    4   15      0.08      0.00
   12    4   15      0.65      0.00
  -18    5   15      0.60      0.00
  -17    5   15      1.05      0.00
  -16    5   15      0.97      0.00
   10    5   15     -0.87      0.00
   11    5   15      1.64      0.00
   12    5   15      0.65      0.00
  -17    6   15     -1.01      0.00
  -16    6   15     -0.31      0.00
  -15    6   15     -0.54      0.00
    9    6   15      1.97      0.00
   10    6   15     -0.90      0.00
   11    6   15     -0.16      0.00
  -17    7   15     -0.51      0.00
  -16    7   15      0.68      0.00
  -15    7   15      0.11      0.00
  -14    7   15      0.67      0.00
    8    7   15     -1.84      0.00
    9    7   15      0.22      0.00
   10    7   15     -0.77      0.00
   11    7   15     -0.03      0.00
  -16    8   15     -0.18      0.00
  -15    8   15     -0.82      0.00
  -14    8   15      1.14      0.00
  -13    8   15     -0.07      0.00
    7    8   15     -1.21      0.00
    8    8   15     -1.40      0.00
    9    8   15      0.65      0.00
   10    8   15      0.54      0.00
  -15    9   15     -0.21      0.00
  -14    9   15      1.50      0.00
  -13    9   15     -0.12      0.00
  -12    9   15     -0.72      0.00
    6    9   15      1.90      0.00
    7    9   15      0.04      0.00
    8    9   15     -0.07      0.00
    9    9   15      0.66      0.00
  -14   10   15      0.25      0.00
  -13   10   15     -1.19      0.00
  -12   10   15     -0.13      0.00
  -11   10   15      1.83      0.00
  -10   10   15      0.41      0.00
    4   10   15      2.99      0.00
    5   10   15     -1.26      0.00
    6   10   15      0.37      0.00
    7   10   15      0.55      0.00
    8   10   15     -0.08      0.00
  -12   11   15     -0.13      0.00
  -11   11   15      0.14      0.00
  -10   11   15     -1.30      0.00
   -9   11   15     -2.45      0.00
   -8   11   15      0.43      0.00
   -7   11   15     -1.30      0.00
    1   11   15     -1.20      0.00
    2   11   15      1.09      0.00
    3   11   15     -0.58      0.00
    4   11   15     -0.05      0.00
    5   11   15     -0.96      0.00
    6   11   15      0.81      0.00
  -10   12   15      1.32      0.00
   -9   12   15     -0.01      0.00
   -8   12   15      1.63      0.00
   -7   12   15      1.91      0.00
   -6   12   15      0.28      0.00
   -5   12   15      1.20      0.00
   -4   12   15     -0.93      0.00
   -3   12   15     -0.20      0.00
   -2   12   15     -0.09      0.00
   -1   12   15     -2.53      0.00
    0   12   15     -1.18      0.00
    1   12   15     -0.55      0.00
    2   12   15     -0.04      0.00
    3   12   15     -1.61      0.00
    4   12   15      0.07      0.00
   -7   13   15     -0.83      0.00
   -6   13   15     -1.52      0.00
   -5   13   15     -0.33      0.00
   -4   13   15      0.37      0.00
   -3   13   15     -0.46      0.00
   -2   13   15      0.88      0.00
   -1   13   15      1.05      0.00
    0   13   15      1.04      0.00
    1   13   15      0.51      0.00
  -18    0   16      1.60      0.00
   10    0   16      1.32      0.00
   12    0   16     -1.47      0.00
  -18    1   16     -0.73      0.00
  -17    1   16     -1.60      0.00
  -16    1   16     -2.60      0.00
   10    1   16     -0.97      0.00
   11    1   16      0.05      0.00
   12    1   16     -0.21      0.00
  -18    2   16      0.67      0.00
  -17    2   16      1.46      0.00
  -16    2   16      1.44      0.00
  -10    2   16     -4.16      0.00
   10    2   16      0.17      0.00
   11    2   16      1.12      0.00
   12    2   16      0.75      0.00
  -18    3   16      0.99      0.00
  -17    3   16      0.49      0.00
  -16    3   16     -0.63      0.00
   10    3   16     -0.07      0.00
   11    3   16      0.06      0.00
  -17    4   16     -1.38      0.00
  -16    4   16     -0.97      0.00
    9    4   16     -0.05      0.00
   10    4   16     -0.58      0.00
   11    4   16     -1.14      0.00
  -17    5   16      0.70      0.00
  -16    5   16      0.76      0.00
  -15    5   16      0.13      0.00
    9    5   16      0.97      0.00
   10    5   16      0.16      0.00
   11    5   16     -0.22      0.00
  -16    6   16     -0.99      0.00
  -15    6   16     -0.30      0.00
  -14    6   16      0.53      0.00
    8    6   16     -0.53      0.00
    9    6   16      0.51      0.00
   10    6   16      0.47      0.00
  -16    7   16     -0.58      0.00
  -15    7   16      0.24      0.00
  -14    7   16      0.68      0.00
  -13    7   16      1.04      0.00
    7    7   16      1.41      0.00
    8    7   16     -0.27      0.00
    9    7   16      0.04      0.00
  -15    8   16     -0.53      0.00
  -14    8   16     -0.14      0.00
  -13    8   16      0.41      0.00
  -12    8   16     -1.15      0.00
    6    8   16     -0.83      0.00
    7    8   16      0.75      0.00
    8    8   16     -0.98      0.00
  -14    9   16     -0.42      0.00
  -13    9   16      0.54      0.00
  -12    9   16      0.03      0.00
  -11    9   16      1.08      0.00
  -10    9   16      0.35      0.00
    4    9   16     -1.55      0.00
    5    9   16      0.88      0.00
    6    9   16     -1.13      0.00
    7    9   16      1.42      0.00
  -12   10   16     -1.24      0.00
  -11   10   16      0.98      0.00
  -10   10   16      0.04      0.00
   -9   10   16      0.36      0.00
   -8   10   16     -0.99      0.00
    2   10   16     -1.13      0.00
    3   10   16     -0.71      0.00
    4   10   16     -0.96      0.00
    5   10   16      1.18      0.00
    6   10   16     -1.89      0.00
  -11   11   16      0.33      0.00
  -10   11   16     -0.45      0.00
   -9   11   16     -0.32      0.00
   -8   11   16     -1.22      0.00
   -7   11   16      2.30      0.00
   -6   11   16     -0.57      0.00
   -5   11   16      0.01      0.00
   -4   11   16      1.79      0.00
   -3   11   16     -3.53      0.00
   -2   11   16     -0.07      0.00
   -1   11   16      0.56      0.00
    0   11   16      0.32      0.00
    1   11   16      0.14      0.00
    2   11   16     -0.30      0.00
    3   11   16      1.78      0.00
    4   11   16      0.39      0.00
   -8   12   16     -0.97      0.00
   -7   12   16     -0.16      0.00
   -6   12   16     -0.37      0.00
   -5   12   16     -0.73      0.00
   -4   12   16      0.75      0.00
   -3   12   16     -0.72      0.00
   -2   12   16      0.85      0.00
   -1   12   16      0.36      0.00
    0   12   16     -0.83      0.00
    1   12   16      0.04      0.00
    2   12   16      0.29      0.00
  -17    0   17      1.83      0.00
  -15    0   17      1.03      0.00
    9    0   17     -1.43      0.00
   11    0   17      1.95      0.00
  -17    1   17      0.85      0.00
  -16    1   17     -1.41      0.00
  -15    1   17     -0.64      0.00
    9    1   17      1.83      0.00
   10    1   17     -0.50      0.00
   11    1   17      0.08      0.00
  -17    2   17     -0.77      0.00
  -16    2   17     -0.37      0.00
  -15    2   17     -1.01      0.00
    8    2   17     -0.44      0.00
    9    2   17      0.21      0.00
   10    2   17     -1.79      0.00
   11    2   17     -0.86      0.00
  -17    3   17      0.84      0.00
  -16    3   17      1.61      0.00
  -15    3   17     -0.55      0.00
    8    3   17     -1.30      0.00
    9    3   17      0.95      0.00
   10    3   17      0.51      0.00
  -17    4   17      0.63      0.00
  -16    4   17     -0.13      0.00
  -15    4   17     -1.14      0.00
  -14    4   17     -0.73      0.00
    8    4   17      0.00      0.00
    9    4   17      0.30      0.00
   10    4   17      1.33      0.00
  -16    5   17     -0.19      0.00
  -15    5   17      0.25      0.00
  -14    5   17     -1.92      0.00
    7    5   17      0.76      0.00
    8    5   17     -0.70      0.00
    9    5   17     -1.76      0.00
  -16    6   17      0.04      0.00
  -15    6   17      0.12      0.00
  -14    6   17     -1.14      0.00
  -13    6   17      2.68      0.00
    6    6   17     -0.61      0.00
    7    6   17     -1.49      0.00
    8    6   17      0.65      0.00
    9    6   17     -0.93      0.00
  -15    7   17      0.35      0.00
  -14    7   17     -0.51      0.00
  -13    7   17      0.96      0.00
  -12    7   17     -0.27      0.00
    5    7   17     -1.67      0.00
    6    7   17      0.05      0.00
    7    7   17     -0.97      0.00
    8    7   17      1.23      0.00
  -14    8   17     -1.09      0.00
  -13    8   17     -0.10      0.00
  -12    8   17      0.69      0.00
  -11    8   17     -1.30      0.00
  -10    8   17      2.30      0.00
    4    8   17      0.34      0.00
    5    8   17      2.29      0.00
    6    8   17      1.62      0.00
    7    8   17      0.81      0.00
  -13    9   17     -0.18      0.00
  -12    9   17     -0.14      0.00
  -11    9   17     -0.06      0.00
  -10    9   17      0.71      0.00
   -9    9   17     -0.82      0.00
   -8    9   17     -1.65      0.00
    1    9   17     -0.34      0.00
    2    9   17      1.34      0.00
    3    9   17      1.80      0.00
    4    9   17     -1.50      0.00
    5    9   17     -0.45      0.00
    6    9   17     -1.73      0.00
  -11   10   17     -0.33      0.00
  -10   10   17     -0.38      0.00
   -9   10   17      1.36      0.00
   -8   10   17     -1.52      0.00
   -7   10   17      0.58      0.00
   -6   10   17     -0.02      0.00
   -5   10   17     -2.16      0.00
   -4   10   17      0.29      0.00
   -3   10   17      0.39      0.00
   -2   10   17      0.98      0.00
   -1   10   17      0.73      0.00
    0   10   17     -0.94      0.00
    1   10   17     -0.49      0.00
    2   10   17     -1.00      0.00
    3   10   17     -0.28      0.00
    4   10   17     -1.34      0.00
   -9   11   17      1.19      0.00
   -8   11   17     -1.13      0.00
   -7   11   17      0.54      0.00
   -6   11   17      1.56      0.00
   -5   11   17     -0.70      0.00
   -4   11   17      1.88      0.00
   -3   11   17     -0.10      0.00
   -2   11   17     -1.78      0.00
   -1   11   17     -0.65      0.00
    0   11   17      0.05      0.00
    1   11   17      0.58      0.00
    2   11   17     -1.16      0.00
   -4   12   17     -0.12      0.00
   -3   12   17      0.16      0.00
  -16    0   18      1.57      0.00
  -14    0   18     -0.60      0.00
    8    0   18      0.31      0.00
  -17    1   18      0.25      0.00
  -16    1   18      0.50      0.00
  -15    1   18     -0.59      0.00
  -14    1   18     -0.81      0.00
    7    1   18     -0.70      0.00
    8    1   18     -0.87      0.00
    9    1   18      0.55      0.00
  -16    2   18     -0.40      0.00
  -15    2   18     -0.34      0.00
  -14    2   18     -2.10      0.00
    7    2   18      0.21      0.00
    8    2   18     -0.64      0.00
    9    2   18     -0.34      0.00
  -16    3   18      0.57      0.00
  -15    3   18      1.32      0.00
  -14    3   18      0.13      0.00
    6    3   18     -0.31      0.00
    7    3   18      0.15      0.00
    8    3   18     -0.19      0.00
    9    3   18     -0.18      0.00
  -16    4   18      0.38      0.00
  -15    4   18      0.37      0.00
  -14    4   18     -1.25      0.00
  -13    4   18     -1.07      0.00
    6    4   18     -0.39      0.00
    7    4   18      1.09      0.00
    8    4   18      1.28      0.00
    9    4   18     -0.01      0.00
  -15    5   18      0.66      0.00
  -14    5   18     -0.45      0.00
  -13    5   18      0.85      0.00
  -12    5   18     -0.02      0.00
    5    5   18     -0.05      0.00
    6    5   18     -0.56      0.00
    7    5   18     -0.23      0.00
    8    5   18      0.35      0.00
  -14    6   18     -0.91      0.00
  -13    6   18      0.22      0.00
  -12    6   18     -0.08      0.00
  -11    6   18     -1.06      0.00
    4    6   18     -1.60      0.00
    5    6   18      0.31      0.00
    6    6   18      0.86      0.00
    7    6   18     -1.16      0.00
  -14    7   18     -0.33      0.00
  -13    7   18     -0.29      0.00
  -12    7   18      0.28      0.00
  -11    7   18     -1.19      0.00
  -10    7   18     -0.12      0.00
    3    7   18      1.26      0.00
    4    7   18      0.50      0.00
    5    7   18     -0.32      0.00
    6    7   18      0.64      0.00
  -12    8   18      0.62      0.00
  -11    8   18      0.24      0.00
  -10    8   18      0.26      0.00
   -9    8   18      2.07      0.00
   -8    8   18     -0.70      0.00
   -7    8   18     -1.53      0.00
    0    8   18     -1.14      0.00
    1    8   18      1.31      0.00
    2    8   18     -0.02      0.00
    3    8   18      0.51      0.00
    4    8   18     -1.09      0.00
    5    8   18     -1.25      0.00
  -11    9   18     -0.53      0.00
  -10    9   18     -0.13      0.00
   -9    9   18      0.11      0.00
   -8    9   18     -0.72      0.00
   -7    9   18     -0.81      0.00
   -6    9   18      2.29      0.00
   -5    9   18      0.89      0.00
   -4    9   18      1.24      0.00
   -3    9   18      1.85      0.00
   -2    9   18     -1.13      0.00
   -1    9   18      0.45      0.00
    0    9   18     -0.93      0.00
    1    9   18     -0.25      0.00
    2    9   18     -1.39      0.00
    3    9   18      0.84      0.00
    4    9   18      1.68      0.00
   -9   10   18     -0.14      0.00
   -8   10   18      1.40      0.00
   -7   10   18     -0.99      0.00
   -6   10   18      0.25      0.00
   -5   10   18     -0.43      0.00
   -4   10   18     -2.65      0.00
   -3   10   18     -0.30      0.00
   -2   10   18     -0.98      0.00
   -1   10   18      0.60      0.00
    0   10   18      0.57      0.00
    1   10   18      0.69      0.00
    2   10   18      0.65      0.00
   -5   11   18      0.53      0.00
   -4   11   18     -0.73      0.00
   -3   11   18      1.90      0.00
   -2   11   18      0.64      0.00
  -15    0   19      0.48      0.00
  -13    0   19     -0.52      0.00
    5    0   19     -1.36      0.00
    7    0   19      1.22      0.00
  -15    1   19      0.15      0.00
  -14    1   19     -0.10      0.00
  -13    1   19      1.44      0.00
    5    1   19      1.05      0.00
    6    1   19     -0.17      0.00
    7    1   19      0.36      0.00
    8    1   19     -0.32      0.00
  -15    2   19      0.99      0.00
  -14    2   19      0.11      0.00
  -13    2   19     -2.57      0.00
  -12    2   19     -2.91      0.00
    5    2   19     -0.91      0.00
    6    2   19     -1.15      0.00
    7    2   19     -0.27      0.00
    8    2   19      1.14      0.00
  -15    3   19      0.13      0.00
  -14    3   19      0.14      0.00
  -13    3   19      0.06      0.00
  -12    3   19      0.73      0.00
    4    3   19      1.38      0.00
    5    3   19      0.51      0.00
    6    3   19      1.23      0.00
    7    3   19     -0.50      0.00
  -15    4   19      0.57      0.00
  -14    4   19      0.50      0.00
  -13    4   19      0.02      0.00
  -12    4   19     -0.19      0.00
  -11    4   19     -0.47      0.00
    4    4   19      0.32      0.00
    5    4   19     -1.33      0.00
    6    4   19     -0.15      0.00
    7    4   19     -1.74      0.00
  -14    5   19      0.86      0.00
  -13    5   19     -0.61      0.00
  -12    5   19      1.01      0.00
  -11    5   19     -1.66      0.00
  -10    5   19     -0.17      0.00
   -9    5   19      0.10      0.00
    3    5   19     -1.59      0.00
    4    5   19      1.08      0.00
    5    5   19     -0.28      0.00
    6    5   19      1.05      0.00
  -13    6   19     -1.01      0.00
  -12    6   19      0.83      0.00
  -11    6   19     -1.82      0.00
  -10    6   19     -1.14      0.00
   -9    6   19      1.79      0.00
    1    6   19     -0.40      0.00
    2    6   19      2.58      0.00
    3    6   19      0.33      0.00
    4    6   19     -0.01      0.00
    5    6   19     -0.13      0.00
    6    6   19      0.36      0.00
  -12    7   19      0.30      0.00
  -11    7   19      1.84      0.00
  -10    7   19     -0.05      0.00
   -9    7   19      1.35      0.00
   -8    7   19     -0.60      0.00
   -7    7   19     -1.38      0.00
   -6    7   19     -0.66      0.00
   -5    7   19      0.35      0.00
   -4    7   19      0.25      0.00
   -3    7   19      0.50      0.00
   -2    7   19      0.28      0.00
   -1    7   19      0.36      0.00
    0    7   19      1.46      0.00
    1    7   19      0.47      0.00
    2    7   19     -0.16      0.00
    3    7   19      0.00      0.00
    4    7   19      0.38      0.00
    5    7   19      0.33      0.00
  -11    8   19      0.47      0.00
  -10    8   19     -1.87      0.00
   -9    8   19      0.26      0.00
   -8    8   19      1.34      0.00
   -7    8   19     -0.94      0.00
   -6    8   19      0.27      0.00
   -5    8   19      0.52      0.00
   -4    8   19      0.85      0.00
   -3    8   19     -0.47      0.00
   -2    8   19     -0.12      0.00
   -1    8   19      0.42      0.00
    0    8   19     -1.27      0.00
    1    8   19     -0.33      0.00
    2    8   19     -1.27      0.00
    3    8   19     -0.08      0.00
   -9    9   19     -0.01      0.00
   -8    9   19      0.54      0.00
   -7    9   19     -1.29      0.00
   -6    9   19     -0.54      0.00
   -5    9   19     -0.66      0.00
   -4    9   19     -0.26      0.00
   -3    9   19     -0.11      0.00
   -2    9   19      0.40      0.00
   -1    9   19      0.30      0.00
    0    9   19     -0.53      0.00
    1    9   19      0.98      0.00
   -5   10   19      1.36      0.00
   -4   10   19      0.08      0.00
   -3   10   19     -0.36      0.00
  -14    0   20      1.15      0.00
  -12    0   20     -0.27      0.00
    4    0   20      1.34      0.00
    6    0   20     -0.40      0.00
  -14    1   20      0.39      0.00
  -13    1   20     -0.92      0.00
  -12    1   20      2.03      0.00
  -11    1   20     -0.52      0.00
   -8    1   20     -2.62      0.00
    2    1   20      1.18      0.00
    3    1   20     -1.68      0.00
    4    1   20     -1.11      0.00
    5    1   20      0.25      0.00
    6    1   20     -0.23      0.00
  -14    2   20      0.95      0.00
  -13    2   20      0.90      0.00
  -12    2   20     -0.53      0.00
  -11    2   20     -2.54      0.00
  -10    2   20     -1.90      0.00
    2    2   20      0.72      0.00
    3    2   20     -0.24      0.00
    4    2   20     -0.01      0.00
    5    2   20      1.01      0.00
    6    2   20      0.21      0.00
  -14    3   20     -0.79      0.00
  -13    3   20      0.72      0.00
  -12    3   20     -0.74      0.00
  -11    3   20      0.33      0.00
  -10    3   20      0.17      0.00
   -9    3   20      1.65      0.00
    1    3   20     -0.67      0.00
    2    3   20      0.28      0.00
    3    3   20      0.03      0.00
    4    3   20     -0.31      0.00
    5    3   20     -0.44      0.00
    6    3   20      0.49      0.00
  -13    4   20      0.40      0.00
  -12    4   20      0.65      0.00
  -11    4   20      0.17      0.00
  -10    4   20      0.11      0.00
   -9    4   20     -0.19      0.00
   -8    4   20      0.82      0.00
    0    4   20      0.25      0.00
    1    4   20     -0.09      0.00
    2    4   20      0.51      0.00
    3    4   20      0.24      0.00
    4    4   20      0.60      0.00
    5    4   20     -0.68      0.00
  -12    5   20      0.44      0.00
  -11    5   20     -0.08      0.00
  -10    5   20     -0.29      0.00
   -9    5   20     -0.13      0.00
   -8    5   20      1.22      0.00
   -7    5   20     -0.79      0.00
   -6    5   20     -0.90      0.00
   -5    5   20     -0.44      0.00
   -3    5   20      1.12      0.00
   -2    5   20      0.08      0.00
   -1    5   20     -0.55      0.00
    0    5   20      0.73      0.00
    1    5   20      0.28      0.00
    2    5   20     -0.31      0.00
    3    5   20     -1.25      0.00
    4    5   20      0.01      0.00
  -11    6   20      0.58      0.00
  -10    6   20     -1.55      0.00
   -9    6   20     -1.18      0.00
   -8    6   20     -0.24      0.00
   -7    6   20     -0.90      0.00
   -6    6   20     -0.58      0.00
   -5    6   20      1.09      0.00
   -4    6   20      0.65      0.00
   -3    6   20     -0.27      0.00
   -2    6   20     -0.32      0.00
   -1    6   20     -0.54      0.00
    0    6   20     -0.45      0.00
    1    6   20     -1.07      0.00
    2    6   20      0.33      0.00
    3    6   20      0.36      0.00
  -10    7   20      0.61      0.00
   -9    7   20      0.53      0.00
   -8    7   20      0.78      0.00
   -7    7   20      0.63      0.00
   -6    7   20     -0.95      0.00
   -5    7   20     -0.87      0.00
   -4    7   20     -0.24      0.00
   -3    7   20     -0.02      0.00
   -2    7   20      0.37      0.00
   -1    7   20      0.07      0.00
    0    7   20      0.47      0.00
    1    7   20      0.61      0.00
    2    7   20      0.71      0.00
   -8    8   20      0.33      0.00
   -7    8   20      1.47      0.00
   -6    8   20     -0.03      0.00
   -5    8   20      0.14      0.00
   -4    8   20      0.94      0.00
   -3    8   20     -0.38      0.00
   -2    8   20     -0.40      0.00
   -1    8   20     -0.27      0.00
    0    8   20      0.43      0.00
  -13    0   21     -0.65      0.00
  -11    0   21     -2.12      0.00
   -9    0   21      2.64      0.00
   -7    0   21     -1.08      0.00
   -5    0   21     -1.02      0.00
   -3    0   21     -1.15      0.00
   -1    0   21     -0.44      0.00
    1    0   21      0.35      0.00
    3    0   21     -0.05      0.00
  -13    1   21     -1.46      0.00
  -12    1   21      0.30      0.00
  -11    1   21      0.48      0.00
  -10    1   21     -1.33      0.00
   -9    1   21     -0.65      0.00
   -8    1   21     -0.07      0.00
   -7    1   21     -0.95      0.00
   -6    1   21      1.14      0.00
   -5    1   21      1.06      0.00
   -4    1   21      0.35      0.00
   -3    1   21      0.23      0.00
   -2    1   21      0.98      0.00
   -1    1   21      0.44      0.00
    0    1   21      0.05      0.00
    1    1   21     -0.72      0.00
    2    1   21     -0.10      0.00
    3    1   21      0.08      0.00
    4    1   21     -0.57      0.00
  -12    2   21      1.62      0.00
  -11    2   21      2.15      0.00
  -10    2   21     -1.27      0.00
   -9    2   21      0.14      0.00
   -8    2   21      1.13      0.00
   -7    2   21     -0.47      0.00
   -6    2   21      0.64      0.00
   -5    2   21      0.06      0.00
   -4    2   21     -0.83      0.00
   -3    2   21      0.10      0.00
   -2    2   21     -0.51      0.00
   -1    2   21     -0.68      0.00
    0    2   21      0.84      0.00
    1    2   21     -0.18      0.00
    2    2   21      0.71      0.00
    3    2   21      1.03      0.00
    4    2   21      0.45      0.00
  -12    3   21     -0.65      0.00
  -11    3   21     -0.27      0.00
  -10    3   21     -0.81      0.00
   -9    3   21      0.71      0.00
   -8    3   21      0.10      0.00
   -7    3   21     -0.53      0.00
   -6    3   21     -0.90      0.00
   -5    3   21     -0.95      0.00
   -4    3   21     -0.09      0.00
   -3    3   21      0.86      0.00
   -2    3   21      0.09      0.00
   -1    3   21     -0.40      0.00
    0    3   21      0.57      0.00
    1    3   21     -0.32      0.00
    2    3   21     -0.13      0.00
    3    3   21     -0.05      0.00
  -11    4   21     -0.59      0.00
  -10    4   21     -0.18      0.00
   -9    4   21     -0.28      0.00
   -8    4   21     -1.09      0.00
   -7    4   21      0.28      0.00
   -6    4   21      0.55      0.00
   -5    4   21      1.03      0.00
   -4    4   21      1.01      0.00
   -3    4   21     -0.66      0.00
   -2    4   21     -0.28      0.00
   -1    4   21     -0.69      0.00
    0    4   21     -0.71      0.00
    1    4   21     -0.59      0.00
    2    4   21     -1.11      0.00
    3    4   21     -0.56      0.00
  -10    5   21      0.84      0.00
   -9    5   21      0.38      0.00
   -8    5   21      0.88      0.00
   -7    5   21      1.04      0.00
   -6    5   21      0.04      0.00
   -5    5   21     -1.49      0.00
   -4    5   21     -0.42      0.00
   -3    5   21     -0.71      0.00
   -2    5   21      0.91      0.00
   -1    5   21      0.70      0.00
    0    5   21      0.22      0.00
    1    5   21      1.74      0.00
    2    5   21      1.13      0.00
   -9    6   21     -0.51      0.00
   -8    6   21     -0.38      0.00
   -7    6   21     -0.78      0.00
   -6    6   21      0.06      0.00
   -5    6   21     -0.64      0.00
   -4    6   21      1.48      0.00
   -3    6   21      0.61      0.00
   -2    6   21     -0.05      0.00
   -1    6   21      0.41      0.00
    0    6   21     -0.45      0.00
   -6    7   21      1.01      0.00
   -5    7   21     -0.56      0.00
   -4    7   21     -0.43      0.00
   -3    7   21     -0.12      0.00
   -2    7   21     -0.36      0.00
    0    0    0      0.00      0.00
# SQUEEZE RESULTS (Version =  30715)
# Note: Data are Listed for all Voids in the P1 Unit Cell
# i.e. Centre of Gravity, Solvent Accessible Volume,
# Recovered number of Electrons in the Void and
# Details about the Squeezed Material
loop_
  _platon_squeeze_void_nr
  _platon_squeeze_void_average_x
  _platon_squeeze_void_average_y
  _platon_squeeze_void_average_z
  _platon_squeeze_void_volume
  _platon_squeeze_void_count_electrons
  _platon_squeeze_void_content
   1  0.250 -0.019  0.750       412        92 ' '
   2  0.750 -0.051  0.250       413        92 ' '
# Missing Reflections Below sin(th)/lambda = 0.25
loop_
  _platon_missing_refln_index_h
  _platon_missing_refln_index_k
  _platon_missing_refln_index_l
  _platon_missing_refln_theta
    6    3    0     8.657
    5    4    0     8.596
   -1    0    1     1.518
   -2    1    1     2.909
    5    4    1     8.853
    5    4    2     9.258
   -6    3    3     8.756
   -5    4    4     9.183
    0    5    4     8.865
   -4    5    5    10.183
_platon_squeeze_void_probe_radius                  1.20
_platon_squeeze_details
)
TITL mo_gs38_0m_a.res in P2(1)/n
CELL   16.9401   13.6509   17.6168     90.00    102.00     90.00
SPGR P21/n
# Solvent Accessible Volume =     845.4
# Electrons Found in S.A.V. =     184.6
# Note: Atoms in Void as Cxxx and Qxxx all others
C101 0.635 0.116 0.270 !       6.82 eA-3
C102 0.945 0.497 0.311 !       5.59 eA-3
C103 0.425 0.848 0.204 !       5.53 eA-3
C104 0.716 0.121 0.315 !       4.68 eA-3
C105 0.882 0.533 0.261 !       4.19 eA-3
C106 0.924 0.688 0.215 !       3.94 eA-3
C107 0.931 0.671 0.243 !       3.60 eA-3
C108 0.767 0.083 0.280 !       2.63 eA-3
Q109 0.286 0.755 0.066 !       0.87 eA-3
Q110 0.328 0.803 0.114 !       0.85 eA-3
Q111 0.066 0.205 0.447 !       0.82 eA-3
Q112 0.573 0.257 0.229 !       0.80 eA-3
Q113 0.551 0.732 0.080 !       0.76 eA-3
C114 0.611 0.048 0.301 !       0.75 eA-3
Q115 0.499 1.004 0.373 !       0.75 eA-3
Q116 0.030 0.628 0.482 !       0.72 eA-3
Q117 0.613 0.470 0.093 !       0.67 eA-3
Q118 0.313 0.780 0.435 !       0.67 eA-3
Q119 0.512 0.979 0.393 !       0.63 eA-3
C120 0.809 0.635 0.113 !       0.61 eA-3
Q121 0.637 0.234 0.549 !       0.59 eA-3
Q122 0.363 0.766 0.451 !       0.59 eA-3
Q123 0.634 0.231 0.582 !       0.58 eA-3
Q124 0.019 0.127 0.172 !       0.56 eA-3
Q125 0.043 0.284 0.269 !       0.54 eA-3
C126 0.799 0.549 0.220 !       0.50 eA-3
)
;
_shelx_fab_checksum              79976
loop_
_space_group_symop_operation_xyz
'x, y, z'
'-x+1/2, y+1/2, -z+1/2'
'-x, -y, -z'
'x-1/2, -y-1/2, z-1/2'
loop_
_atom_site_label
_atom_site_type_symbol
_atom_site_fract_x
_atom_site_fract_y
_atom_site_fract_z
_atom_site_U_iso_or_equiv
_atom_site_adp_type
_atom_site_occupancy
_atom_site_site_symmetry_order
_atom_site_calc_flag
_atom_site_refinement_flags_posn
_atom_site_refinement_flags_adp
Mn1 Mn 0.34340(2) 0.76155(3) 0.45141(2) 0.02234(12) Uani 1 1 d . .
O1 O -0.19428(15) 0.5877(2) 0.52861(18) 0.0650(8) Uani 1 1 d . .
O2 O 0.89128(18) 0.8397(2) 0.3699(2) 0.0875(12) Uani 1 1 d . .
O3 O 0.89669(19) 0.9762(3) 0.4337(3) 0.1016(14) Uani 1 1 d . .
O4 O -0.1910(2) 0.7196(3) 0.5883(2) 0.1260(19) Uani 1 1 d . .
N1 N 0.45769(13) 0.72061(17) 0.51594(13) 0.0251(5) Uani 1 1 d . .
N2 N 0.23616(14) 0.84417(19) 0.42344(14) 0.0325(6) Uani 1 1 d . .
N3 N 0.19452(14) 1.15892(17) 0.14575(14) 0.0289(5) Uani 1 1 d . .
N4 N 0.29254(13) 0.68778(18) 0.53433(13) 0.0287(5) Uani 1 1 d . .
N5 N 0.40195(14) 0.87703(18) 0.40662(15) 0.0336(6) Uani 1 1 d . .
N6 N -0.16199(16) 0.6634(2) 0.55073(16) 0.0437(7) Uani 1 1 d . .
N7 N 0.49588(18) 0.3560(3) 0.75402(18) 0.0544(9) Uani 1 1 d . .
N9 N 0.8625(2) 0.9007(3) 0.4086(3) 0.0779(13) Uani 1 1 d . .
C1 C 0.21219(17) 0.6852(2) 0.53654(16) 0.0323(7) Uani 1 1 d . .
C2 C 0.22021(17) 1.0690(2) 0.13312(18) 0.0315(7) Uani 1 1 d . .
H2 H 0.2187 1.0492 0.0811 0.038 Uiso 1 1 calc R U
C3 C 0.47229(17) 0.6481(2) 0.57057(15) 0.0265(6) Uani 1 1 d . .
C4 C 0.22120(17) 0.9138(2) 0.36620(18) 0.0332(7) Uani 1 1 d . .
C5 C 0.25126(16) 1.0302(2) 0.26844(18) 0.0302(7) Uani 1 1 d . .
C6 C 0.28028(17) 0.9597(2) 0.33277(18) 0.0339(7) Uani 1 1 d . .
C7 C 0.32991(17) 0.6174(2) 0.58448(16) 0.0302(7) Uani 1 1 d . .
C8 C 0.55848(17) 0.6363(2) 0.59680(17) 0.0314(7) Uani 1 1 d . .
H8 H 0.5848 0.5910 0.6347 0.038 Uiso 1 1 calc R U
C9 C 0.13550(17) 0.9316(2) 0.34460(18) 0.0356(7) Uani 1 1 d . .
H9 H 0.1091 0.9761 0.3061 0.043 Uiso 1 1 calc R U
C10 C 0.09979(17) 0.8730(2) 0.38958(18) 0.0351(7) Uani 1 1 d . .
H10 H 0.0437 0.8693 0.3890 0.042 Uiso 1 1 calc R U
C11 C 0.59453(17) 0.7009(2) 0.55781(17) 0.0325(7) Uani 1 1 d . .
H11 H 0.6510 0.7096 0.5627 0.039 Uiso 1 1 calc R U
C12 C 0.53182(16) 0.7545(2) 0.50733(16) 0.0269(6) Uani 1 1 d . .
C13 C 0.41326(17) 0.5968(2) 0.60049(15) 0.0281(6) Uani 1 1 d . .
C14 C 0.06713(17) 0.7266(2) 0.50274(16) 0.0310(7) Uani 1 1 d . .
C15 C 0.16260(17) 0.8173(2) 0.43840(17) 0.0332(7) Uani 1 1 d . .
C16 C 0.1985(2) 1.1848(2) 0.21984(18) 0.0405(8) Uani 1 1 d . .
H16 H 0.1816 1.2489 0.2302 0.049 Uiso 1 1 calc R U
C17 C 0.44222(17) 0.5140(2) 0.65438(16) 0.0313(7) Uani 1 1 d . .
C18 C 0.54382(17) 0.8305(2) 0.45700(19) 0.0330(7) Uani 1 1 d . .
C19 C 0.62871(18) 0.8485(2) 0.44787(19) 0.0354(7) Uani 1 1 d . .
C20 C 0.66917(18) 0.9349(2) 0.4728(2) 0.0407(8) Uani 1 1 d . .
H20 H 0.6437 0.9831 0.4984 0.049 Uiso 1 1 calc R U
C21 C 0.24876(19) 1.0038(2) 0.19198(19) 0.0370(7) Uani 1 1 d . .
H21 H 0.2668 0.9408 0.1803 0.044 Uiso 1 1 calc R U
C22 C -0.08308(18) 0.6863(3) 0.53256(17) 0.0362(7) Uani 1 1 d . .
C23 C 0.48366(18) 0.8885(2) 0.4117(2) 0.0427(8) Uani 1 1 d . .
C24 C 0.2256(2) 1.1234(2) 0.28188(18) 0.0396(8) Uani 1 1 d . .
H24 H 0.2267 1.1449 0.3333 0.048 Uiso 1 1 calc R U
C25 C 0.4801(2) 0.4339(2) 0.63013(18) 0.0400(8) Uani 1 1 d . .
H25 H 0.4888 0.4312 0.5786 0.048 Uiso 1 1 calc R U
C26 C 0.43247(18) 0.5140(3) 0.73069(18) 0.0410(8) Uani 1 1 d . .
H26 H 0.4071 0.5677 0.7504 0.049 Uiso 1 1 calc R U
C27 C 0.36423(19) 0.9445(2) 0.3539(2) 0.0427(8) Uani 1 1 d . .
C28 C 0.27048(18) 0.5685(3) 0.61959(18) 0.0431(9) Uani 1 1 d . .
H28 H 0.2800 0.5164 0.6561 0.052 Uiso 1 1 calc R U
C29 C 0.15176(17) 0.7446(2) 0.49181(17) 0.0325(7) Uani 1 1 d . .
C30 C 0.19880(18) 0.6116(3) 0.59021(18) 0.0429(9) Uani 1 1 d . .
H30 H 0.1485 0.5958 0.6030 0.051 Uiso 1 1 calc R U
C31 C 0.4603(2) 0.4347(3) 0.7777(2) 0.0587(12) Uani 1 1 d . .
H31 H 0.4537 0.4361 0.8299 0.070 Uiso 1 1 calc R U
C32 C 0.74663(19) 0.9516(3) 0.4606(2) 0.0470(9) Uani 1 1 d . .
H32 H 0.7743 1.0107 0.4779 0.056 Uiso 1 1 calc R U
C33 C 0.5055(2) 0.3574(3) 0.6810(2) 0.0486(9) Uani 1 1 d . .
H33 H 0.5311 0.3030 0.6627 0.058 Uiso 1 1 calc R U
C34 C 0.7820(2) 0.8823(3) 0.4236(3) 0.0536(10) Uani 1 1 d . .
C35 C -0.0512(2) 0.6256(3) 0.4876(3) 0.0600(12) Uani 1 1 d . .
H35 H -0.0800 0.5690 0.4659 0.072 Uiso 1 1 calc R U
C36 C 0.4238(2) 1.0004(3) 0.3252(3) 0.0777(16) Uani 1 1 d . .
H36 H 0.4137 1.0516 0.2880 0.093 Uiso 1 1 calc R U
C37 C 0.0244(2) 0.6459(3) 0.4730(3) 0.0674(14) Uani 1 1 d . .
H37 H 0.0471 0.6023 0.4412 0.081 Uiso 1 1 calc R U
C38 C 0.6682(2) 0.7788(3) 0.4123(3) 0.0551(10) Uani 1 1 d . .
H38 H 0.6421 0.7182 0.3970 0.066 Uiso 1 1 calc R U
C39 C 0.4965(2) 0.9665(3) 0.3609(3) 0.0810(17) Uani 1 1 d . .
H39 H 0.5472 0.9899 0.3539 0.097 Uiso 1 1 calc R U
C40 C 0.7443(3) 0.7948(3) 0.3984(3) 0.0665(13) Uani 1 1 d . .
H40 H 0.7700 0.7474 0.3724 0.080 Uiso 1 1 calc R U
C41 C 0.0319(3) 0.7875(4) 0.5458(3) 0.108(2) Uani 1 1 d . .
H41 H 0.0591 0.8460 0.5654 0.129 Uiso 1 1 calc R U
C42 C -0.0431(3) 0.7673(5) 0.5624(3) 0.121(3) Uani 1 1 d . .
H42 H -0.0659 0.8102 0.5945 0.146 Uiso 1 1 calc R U
loop_
_atom_site_aniso_label
_atom_site_aniso_U_11
_atom_site_aniso_U_22
_atom_site_aniso_U_33
_atom_site_aniso_U_23
_atom_site_aniso_U_13
_atom_site_aniso_U_12
Mn1 0.0162(2) 0.0240(2) 0.0248(2) 0.00506(17) -0.00033(15) -0.00714(17)
O1 0.0402(14) 0.0520(16) 0.105(2) -0.0014(16) 0.0202(14) -0.0263(13)
O2 0.0614(19) 0.071(2) 0.152(3) 0.049(2) 0.072(2) 0.0262(17)
O3 0.0562(19) 0.062(2) 0.204(4) 0.038(2) 0.067(2) -0.0071(17)
O4 0.097(3) 0.162(4) 0.153(3) -0.118(3) 0.104(3) -0.095(3)
N1 0.0228(12) 0.0259(13) 0.0265(12) 0.0028(10) 0.0047(9) -0.0022(10)
N2 0.0209(12) 0.0373(15) 0.0366(14) 0.0099(11) -0.0002(10) -0.0089(11)
N3 0.0265(12) 0.0252(13) 0.0330(13) -0.0035(10) 0.0010(10) 0.0062(10)
N4 0.0218(12) 0.0375(14) 0.0248(12) 0.0022(10) 0.0003(9) -0.0046(11)
N5 0.0215(12) 0.0276(13) 0.0507(16) 0.0095(12) 0.0053(11) -0.0007(11)
N6 0.0337(15) 0.060(2) 0.0373(15) -0.0025(14) 0.0084(12) -0.0217(15)
N7 0.0387(16) 0.073(2) 0.0497(18) 0.0359(17) 0.0059(14) 0.0050(16)
N9 0.047(2) 0.054(2) 0.148(4) 0.048(2) 0.056(2) 0.0111(19)
C1 0.0238(15) 0.0434(18) 0.0278(15) 0.0034(13) 0.0012(12) -0.0112(13)
C2 0.0316(16) 0.0283(16) 0.0374(16) -0.0033(13) 0.0132(13) 0.0007(13)
C3 0.0263(15) 0.0295(16) 0.0234(14) -0.0010(12) 0.0048(11) 0.0020(12)
C4 0.0224(15) 0.0361(17) 0.0386(17) 0.0057(14) 0.0005(12) -0.0047(13)
C5 0.0159(13) 0.0273(16) 0.0464(18) 0.0068(13) 0.0043(12) -0.0038(12)
C6 0.0247(15) 0.0291(16) 0.0461(18) 0.0104(14) 0.0031(13) -0.0034(13)
C7 0.0235(14) 0.0410(18) 0.0240(14) 0.0060(13) -0.0001(11) -0.0051(13)
C8 0.0267(15) 0.0367(17) 0.0311(15) 0.0064(13) 0.0064(12) 0.0078(13)
C9 0.0225(15) 0.0439(19) 0.0384(17) 0.0079(15) 0.0012(13) -0.0011(14)
C10 0.0188(14) 0.0441(19) 0.0404(17) 0.0069(15) 0.0013(12) -0.0047(13)
C11 0.0225(14) 0.0364(17) 0.0410(17) 0.0055(14) 0.0119(13) 0.0033(13)
C12 0.0215(14) 0.0259(15) 0.0346(15) -0.0008(12) 0.0091(12) -0.0001(12)
C13 0.0282(15) 0.0356(17) 0.0196(13) 0.0004(12) 0.0030(11) -0.0024(13)
C14 0.0215(14) 0.0420(18) 0.0276(15) 0.0065(13) 0.0002(11) -0.0076(13)
C15 0.0228(15) 0.0388(18) 0.0358(16) 0.0036(14) 0.0011(12) -0.0094(13)
C16 0.056(2) 0.0269(17) 0.0328(17) -0.0068(13) -0.0048(15) 0.0106(15)
C17 0.0222(14) 0.0457(19) 0.0254(15) 0.0087(13) 0.0035(11) -0.0043(13)
C18 0.0240(15) 0.0260(16) 0.0488(18) 0.0068(14) 0.0073(13) 0.0007(12)
C19 0.0260(15) 0.0305(17) 0.0503(19) 0.0155(14) 0.0092(13) 0.0034(13)
C20 0.0252(16) 0.0363(18) 0.062(2) 0.0057(16) 0.0119(15) 0.0004(14)
C21 0.0382(18) 0.0244(16) 0.053(2) 0.0056(14) 0.0206(15) 0.0085(14)
C22 0.0246(15) 0.052(2) 0.0318(16) -0.0002(15) 0.0056(12) -0.0170(15)
C23 0.0213(15) 0.0346(18) 0.072(2) 0.0207(17) 0.0080(15) -0.0041(14)
C24 0.053(2) 0.0319(17) 0.0291(16) -0.0067(13) -0.0034(14) 0.0021(15)
C25 0.053(2) 0.0397(19) 0.0266(16) 0.0094(14) 0.0067(14) -0.0010(16)
C26 0.0246(15) 0.069(2) 0.0306(16) 0.0143(16) 0.0086(13) 0.0071(16)
C27 0.0268(16) 0.0348(18) 0.064(2) 0.0223(16) 0.0044(15) -0.0025(14)
C28 0.0288(16) 0.061(2) 0.0366(17) 0.0233(16) 0.0009(13) -0.0085(16)
C29 0.0204(14) 0.0460(19) 0.0296(15) 0.0021(13) 0.0021(12) -0.0096(13)
C30 0.0217(15) 0.066(2) 0.0394(18) 0.0185(16) 0.0014(13) -0.0129(15)
C31 0.0316(18) 0.108(4) 0.0384(19) 0.038(2) 0.0109(15) 0.011(2)
C32 0.0289(17) 0.0391(19) 0.074(3) 0.0125(18) 0.0131(16) -0.0036(15)
C33 0.053(2) 0.045(2) 0.046(2) 0.0156(17) 0.0063(17) 0.0012(17)
C34 0.0335(18) 0.039(2) 0.098(3) 0.029(2) 0.0357(19) 0.0080(16)
C35 0.0244(17) 0.0263(18) 0.129(4) -0.013(2) 0.016(2) -0.0088(15)
C36 0.0302(19) 0.065(3) 0.135(4) 0.073(3) 0.010(2) 0.0018(19)
C37 0.0275(18) 0.0263(19) 0.153(4) -0.021(2) 0.030(2) -0.0040(15)
C38 0.049(2) 0.0328(19) 0.092(3) 0.0073(19) 0.034(2) -0.0026(17)
C39 0.0231(18) 0.068(3) 0.148(4) 0.076(3) 0.009(2) -0.0040(18)
C40 0.063(3) 0.036(2) 0.118(4) 0.010(2) 0.060(3) 0.0054(19)
C41 0.090(3) 0.147(5) 0.112(4) -0.107(4) 0.083(3) -0.099(4)
C42 0.096(4) 0.165(5) 0.134(5) -0.129(4) 0.098(4) -0.106(4)
loop_
_atom_type_symbol
_atom_type_description
_atom_type_scat_dispersion_real
_atom_type_scat_dispersion_imag
_atom_type_scat_source
C C 0.0033 0.0016 'International Tables Vol C Tables 4.2.6.8 and 6.1.1.4'
H H 0.0000 0.0000 'International Tables Vol C Tables 4.2.6.8 and 6.1.1.4'
N N 0.0061 0.0033 'International Tables Vol C Tables 4.2.6.8 and 6.1.1.4'
O O 0.0106 0.0060 'International Tables Vol C Tables 4.2.6.8 and 6.1.1.4'
Mn Mn 0.3368 0.7283 'International Tables Vol C Tables 4.2.6.8 and 6.1.1.4'
loop_
_geom_angle_atom_site_label_1
_geom_angle_atom_site_label_2
_geom_angle_atom_site_label_3
_geom_angle
_geom_angle_site_symmetry_3
N4 Mn1 N5 156.12(10) .
N4 Mn1 N1 87.78(9) .
N5 Mn1 N1 87.08(9) .
N4 Mn1 N2 87.76(9) .
N5 Mn1 N2 87.82(9) .
N1 Mn1 N2 156.76(10) .
N4 Mn1 N3 98.05(9) 2_545
N5 Mn1 N3 105.63(10) 2_545
N1 Mn1 N3 109.73(9) 2_545
N2 Mn1 N3 93.48(9) 2_545
C3 N1 C12 106.6(2) .
C3 N1 Mn1 125.70(18) .
C12 N1 Mn1 127.48(18) .
C4 N2 C15 106.8(2) .
C4 N2 Mn1 124.2(2) .
C15 N2 Mn1 125.7(2) .
C2 N3 C16 116.9(3) .
C2 N3 Mn1 120.5(2) 2
C16 N3 Mn1 122.47(19) 2
C7 N4 C1 107.0(2) .
C7 N4 Mn1 125.73(19) .
C1 N4 Mn1 125.84(19) .
C27 N5 C23 106.8(3) .
C27 N5 Mn1 124.71(19) .
C23 N5 Mn1 127.4(2) .
O4 N6 O1 121.8(3) .
O4 N6 C22 119.1(3) .
O1 N6 C22 119.2(3) .
C33 N7 C31 116.3(3) .
O3 N9 O2 123.8(3) .
O3 N9 C34 118.0(4) .
O2 N9 C34 118.2(4) .
N4 C1 C29 125.4(3) .
N4 C1 C30 109.4(3) .
C29 C1 C30 125.2(3) .
N3 C2 C21 123.0(3) .
N3 C2 H2 118.5 .
C21 C2 H2 118.5 .
N1 C3 C13 125.7(3) .
N1 C3 C8 109.2(2) .
C13 C3 C8 125.0(3) .
N2 C4 C6 125.2(3) .
N2 C4 C9 109.5(3) .
C6 C4 C9 125.3(3) .
C24 C5 C21 117.3(3) .
C24 C5 C6 122.1(3) .
C21 C5 C6 120.6(3) .
C27 C6 C4 126.1(3) .
C27 C6 C5 116.8(3) .
C4 C6 C5 117.0(3) .
N4 C7 C13 125.4(3) .
N4 C7 C28 109.3(2) .
C13 C7 C28 125.4(3) .
C11 C8 C3 107.5(3) .
C11 C8 H8 126.3 .
C3 C8 H8 126.3 .
C10 C9 C4 107.1(3) .
C10 C9 H9 126.5 .
C4 C9 H9 126.5 .
C9 C10 C15 107.3(3) .
C9 C10 H10 126.4 .
C15 C10 H10 126.4 .
C8 C11 C12 107.2(3) .
C8 C11 H11 126.4 .
C12 C11 H11 126.4 .
N1 C12 C18 124.9(3) .
N1 C12 C11 109.6(2) .
C18 C12 C11 125.5(3) .
C3 C13 C7 125.8(3) .
C3 C13 C17 116.7(2) .
C7 C13 C17 117.5(3) .
C41 C14 C37 117.0(3) .
C41 C14 C29 121.1(3) .
C37 C14 C29 121.7(3) .
N2 C15 C29 124.4(3) .
N2 C15 C10 109.4(3) .
C29 C15 C10 126.1(3) .
N3 C16 C24 123.5(3) .
N3 C16 H16 118.2 .
C24 C16 H16 118.2 .
C25 C17 C26 117.2(3) .
C25 C17 C13 121.1(3) .
C26 C17 C13 121.8(3) .
C23 C18 C12 126.3(3) .
C23 C18 C19 116.5(3) .
C12 C18 C19 117.1(3) .
C38 C19 C20 118.2(3) .
C38 C19 C18 120.0(3) .
C20 C19 C18 121.7(3) .
C19 C20 C32 120.6(3) .
C19 C20 H20 119.7 .
C32 C20 H20 119.7 .
C2 C21 C5 119.9(3) .
C2 C21 H21 120.0 .
C5 C21 H21 120.0 .
C35 C22 C42 120.6(3) .
C35 C22 N6 119.7(3) .
C42 C22 N6 119.7(3) .
N5 C23 C18 125.1(3) .
N5 C23 C39 108.9(3) .
C18 C23 C39 126.0(3) .
C16 C24 C5 119.3(3) .
C16 C24 H24 120.3 .
C5 C24 H24 120.3 .
C17 C25 C33 119.9(3) .
C17 C25 H25 120.0 .
C33 C25 H25 120.0 .
C31 C26 C17 119.0(3) .
C31 C26 H26 120.5 .
C17 C26 H26 120.5 .
N5 C27 C6 125.6(3) .
N5 C27 C36 109.4(3) .
C6 C27 C36 124.9(3) .
C30 C28 C7 106.5(3) .
C30 C28 H28 126.7 .
C7 C28 H28 126.7 .
C15 C29 C1 126.8(3) .
C15 C29 C14 117.4(3) .
C1 C29 C14 115.8(3) .
C28 C30 C1 107.8(3) .
C28 C30 H30 126.1 .
C1 C30 H30 126.1 .
N7 C31 C26 124.1(3) .
N7 C31 H31 118.0 .
C26 C31 H31 118.0 .
C34 C32 C20 119.0(3) .
C34 C32 H32 120.5 .
C20 C32 H32 120.5 .
N7 C33 C25 123.6(4) .
N7 C33 H33 118.2 .
C25 C33 H33 118.2 .
C32 C34 C40 122.4(3) .
C32 C34 N9 119.2(4) .
C40 C34 N9 118.4(4) .
C22 C35 C37 119.3(3) .
C22 C35 H35 120.3 .
C37 C35 H35 120.3 .
C39 C36 C27 107.1(3) .
C39 C36 H36 126.4 .
C27 C36 H36 126.4 .
C14 C37 C35 121.8(4) .
C14 C37 H37 119.1 .
C35 C37 H37 119.1 .
C40 C38 C19 121.9(4) .
C40 C38 H38 119.0 .
C19 C38 H38 119.0 .
C36 C39 C23 107.8(3) .
C36 C39 H39 126.1 .
C23 C39 H39 126.1 .
C38 C40 C34 117.8(4) .
C38 C40 H40 121.1 .
C34 C40 H40 121.1 .
C14 C41 C42 121.9(4) .
C14 C41 H41 119.1 .
C42 C41 H41 119.1 .
C22 C42 C41 119.3(4) .
C22 C42 H42 120.4 .
C41 C42 H42 120.4 .
loop_
_geom_bond_atom_site_label_1
_geom_bond_atom_site_label_2
_geom_bond_distance
_geom_bond_site_symmetry_2
Mn1 N4 2.101(2) .
Mn1 N5 2.102(2) .
Mn1 N1 2.107(2) .
Mn1 N2 2.108(2) .
Mn1 N3 2.202(2) 2_545
O1 N6 1.196(4) .
O2 N9 1.237(5) .
O3 N9 1.219(5) .
O4 N6 1.184(4) .
N1 C3 1.367(4) .
N1 C12 1.376(3) .
N2 C4 1.370(4) .
N2 C15 1.376(4) .
N3 C2 1.336(4) .
N3 C16 1.340(4) .
N3 Mn1 2.202(2) 2
N4 C7 1.368(4) .
N4 C1 1.370(4) .
N5 C27 1.368(4) .
N5 C23 1.377(4) .
N6 C22 1.471(4) .
N7 C33 1.330(5) .
N7 C31 1.340(5) .
N9 C34 1.465(4) .
C1 C29 1.411(4) .
C1 C30 1.430(4) .
C2 C21 1.376(4) .
C2 H2 0.9500 .
C3 C13 1.409(4) .
C3 C8 1.446(4) .
C4 C6 1.409(4) .
C4 C9 1.443(4) .
C5 C24 1.380(4) .
C5 C21 1.386(4) .
C5 C6 1.491(4) .
C6 C27 1.409(4) .
C7 C13 1.410(4) .
C7 C28 1.449(4) .
C8 C11 1.341(4) .
C8 H8 0.9500 .
C9 C10 1.354(4) .
C9 H9 0.9500 .
C10 C15 1.438(4) .
C10 H10 0.9500 .
C11 C12 1.436(4) .
C11 H11 0.9500 .
C12 C18 1.407(4) .
C13 C17 1.492(4) .
C14 C41 1.346(5) .
C14 C37 1.362(5) .
C14 C29 1.506(4) .
C15 C29 1.406(4) .
C16 C24 1.378(4) .
C16 H16 0.9500 .
C17 C25 1.380(5) .
C17 C26 1.388(4) .
C18 C23 1.401(4) .
C18 C19 1.500(4) .
C19 C38 1.386(5) .
C19 C20 1.389(5) .
C20 C32 1.392(4) .
C20 H20 0.9500 .
C21 H21 0.9500 .
C22 C35 1.336(5) .
C22 C42 1.345(5) .
C23 C39 1.435(5) .
C24 H24 0.9500 .
C25 C33 1.385(4) .
C25 H25 0.9500 .
C26 C31 1.385(5) .
C26 H26 0.9500 .
C27 C36 1.439(5) .
C28 C30 1.352(4) .
C28 H28 0.9500 .
C30 H30 0.9500 .
C31 H31 0.9500 .
C32 C34 1.356(5) .
C32 H32 0.9500 .
C33 H33 0.9500 .
C34 C40 1.383(6) .
C35 C37 1.385(5) .
C35 H35 0.9500 .
C36 C39 1.342(5) .
C36 H36 0.9500 .
C37 H37 0.9500 .
C38 C40 1.377(5) .
C38 H38 0.9500 .
C39 H39 0.9500 .
C40 H40 0.9500 .
C41 C42 1.389(5) .
C41 H41 0.9500 .
C42 H42 0.9500 .
loop_
_platon_squeeze_void_nr
_platon_squeeze_void_average_x
_platon_squeeze_void_average_y
_platon_squeeze_void_average_z
_platon_squeeze_void_volume
_platon_squeeze_void_count_electrons
_platon_squeeze_void_content
1 0.250 -0.019 0.750 412 92 'disordered DMF '
2 0.750 -0.051 0.250 413 92 'disordered DMF '
