#------------------------------------------------------------------------------
#$Date: 2017-10-31 05:27:58 +0200 (Tue, 31 Oct 2017) $
#$Revision: 202440 $
#$URL: file:///home/coder/svn-repositories/cod/cif/7/22/94/7229431.cif $
#------------------------------------------------------------------------------
#
# This file is available in the Crystallography Open Database (COD),
# http://www.crystallography.net/
#
# All data on this site have been placed in the public domain by the
# contributors.
#
data_7229431
loop_
_publ_author_name
'Goswami, Soumyabrata'
'Tripuramallu, Bharat Kumar'
'Goldberg, Israel'
_publ_section_title
;
 New meso-substituted trans-A2B2 porphyrins: Synthesis and structure of
 their metal-mediated supramolecular assemblies&#x2020;
;
_journal_name_full               CrystEngComm
_journal_paper_doi               10.1039/C7CE01642E
_journal_year                    2017
_chemical_formula_moiety         'C62 H34 Co N6'
_chemical_formula_sum            'C62 H34 Co N6'
_chemical_formula_weight         921.88
_chemical_properties_physical    Air-sensitive,Moisture-sensitive
_space_group_crystal_system      monoclinic
_space_group_IT_number           14
_space_group_name_Hall           '-P 2yn'
_space_group_name_H-M_alt        'P 1 21/n 1'
_symmetry_space_group_name_Hall  '-P 2yn'
_symmetry_space_group_name_H-M   'P 1 21/n 1'
_atom_sites_solution_hydrogens   geom
_atom_sites_solution_primary     direct
_atom_sites_solution_secondary   difmap
_audit_creation_method           SHELXL-2014/7
_audit_update_record
;
2017-09-11 deposited with the CCDC.
2017-10-30 downloaded from the CCDC.
;
_cell_angle_alpha                90
_cell_angle_beta                 103.239(4)
_cell_angle_gamma                90
_cell_formula_units_Z            4
_cell_length_a                   16.8011(19)
_cell_length_b                   13.6677(15)
_cell_length_c                   21.395(2)
_cell_measurement_reflns_used    4579
_cell_measurement_temperature    110(2)
_cell_measurement_theta_max      23.3
_cell_measurement_theta_min      1.94
_cell_volume                     4782.4(9)
_computing_cell_refinement       'Saint, Bruker-AXS'
_computing_data_collection       'Apex2, Bruker-AXS'
_computing_data_reduction        'Saint, Bruker-AXS'
_computing_structure_refinement  'SHELXL-2014/7 (Sheldrick, 2015)'
_computing_structure_solution    'SHELXT-2014 (Sheldrick, 2015)'
_diffrn_ambient_temperature      110(2)
_diffrn_detector_area_resol_mean 1.75
_diffrn_measured_fraction_theta_full 0.985
_diffrn_measured_fraction_theta_max 0.985
_diffrn_measurement_device_type  'ApexDuo, Bruker-AXS'
_diffrn_measurement_method       '1 deg. \f and \w scans'
_diffrn_radiation_type           MoK\a
_diffrn_radiation_wavelength     0.71073
_diffrn_reflns_av_R_equivalents  0.0691
_diffrn_reflns_av_unetI/netI     0.0877
_diffrn_reflns_Laue_measured_fraction_full 0.985
_diffrn_reflns_Laue_measured_fraction_max 0.985
_diffrn_reflns_limit_h_max       18
_diffrn_reflns_limit_h_min       -15
_diffrn_reflns_limit_k_max       14
_diffrn_reflns_limit_k_min       -15
_diffrn_reflns_limit_l_max       23
_diffrn_reflns_limit_l_min       -23
_diffrn_reflns_number            22434
_diffrn_reflns_point_group_measured_fraction_full 0.985
_diffrn_reflns_point_group_measured_fraction_max 0.985
_diffrn_reflns_theta_full        23.336
_diffrn_reflns_theta_max         23.336
_diffrn_reflns_theta_min         1.942
_diffrn_source                   'ImuS micro-focus'
_exptl_absorpt_coefficient_mu    0.407
_exptl_absorpt_correction_T_max  0.972
_exptl_absorpt_correction_T_min  0.930
_exptl_absorpt_correction_type   multi-scan
_exptl_absorpt_process_details   'Sadabs, Bruker-AXS'
_exptl_crystal_colour            red
_exptl_crystal_density_diffrn    1.280
_exptl_crystal_description       prism
_exptl_crystal_F_000             1900
_exptl_crystal_size_max          0.180
_exptl_crystal_size_mid          0.120
_exptl_crystal_size_min          0.070
_refine_diff_density_max         0.595
_refine_diff_density_min         -0.306
_refine_diff_density_rms         0.080
_refine_ls_extinction_coef       0.0044(5)
_refine_ls_extinction_expression Fc^*^=kFc[1+0.001xFc^2^\l^3^/sin(2\q)]^-1/4^
_refine_ls_extinction_method     'SHELXL-2014/7 (Sheldrick 2014'
_refine_ls_goodness_of_fit_ref   1.030
_refine_ls_hydrogen_treatment    constr
_refine_ls_matrix_type           full
_refine_ls_number_parameters     623
_refine_ls_number_reflns         6839
_refine_ls_number_restraints     0
_refine_ls_restrained_S_all      1.030
_refine_ls_R_factor_all          0.1010
_refine_ls_R_factor_gt           0.0613
_refine_ls_shift/su_max          0.000
_refine_ls_shift/su_mean         0.000
_refine_ls_structure_factor_coef Fsqd
_refine_ls_weighting_details
'w=1/[\s^2^(Fo^2^)+(0.0831P)^2^+3.4240P] where P=(Fo^2^+2Fc^2^)/3'
_refine_ls_weighting_scheme      calc
_refine_ls_wR_factor_gt          0.1469
_refine_ls_wR_factor_ref         0.1652
_reflns_Friedel_coverage         0.000
_reflns_number_gt                4579
_reflns_number_total             6839
_reflns_threshold_expression     'I > 2\s(I)'
_cod_data_source_file            c7ce01642e2.cif
_cod_data_source_block           gs28_sq
_cod_database_code               7229431
_shelx_shelxl_version_number     2014/7
_shelx_space_group_comment
;
The symmetry employed for this shelxl refinement is uniquely defined
by the following loop, which should always be used as a source of
symmetry information in preference to the above space-group names.
They are only intended as comments.
;
_shelx_estimated_absorpt_t_min   0.930
_shelx_estimated_absorpt_t_max   0.972
_platon_squeeze_void_probe_radius 1.20
_shelx_res_file
;

    gs28_sq.res created by SHELXL-2014/7


TITL mo_gs27a_0m_a.res in P2(1)/n
REM Old TITL mo_gs27a_0m in P2(1)/n

REM SHELXT solution in P2(1)/n
REM R1 0.161,  Rweak 0.010,  Alpha 0.048,  Orientation as input
REM Formula found by SHELXT:  C66 N3 O4 Co

CELL  0.71073  16.8011  13.6677  21.3948   90.000  103.239   90.000
ZERR    4.000   0.0019   0.0015   0.0024    0.000    0.004    0.000
LATT  1
SYMM 1/2-X, 1/2+Y, 1/2-Z
SFAC C H N CO
UNIT 248 136 24 4
TEMP -163.00
size 0.18 0.12 0.07
L.S. 5 0   49
BOND $H
acta
FMAP 2
PLAN -20
omit 1 0 1
ABIN
WGHT    0.083100    3.424000
EXTI    0.004410
FVAR       0.24852
CO1   4    0.342588    0.368296    0.414744    11.00000    0.01592    0.02590 =
         0.01905    0.00003    0.00637   -0.00376
N1    3    0.396425    0.481869    0.376469    11.00000    0.02618    0.04245 =
         0.03638    0.00094    0.00737   -0.00151
N2    3    0.233993    0.446105    0.390732    11.00000    0.02476    0.04577 =
         0.02989    0.00439    0.00685   -0.00451
N3    3    0.292755    0.283551    0.476357    11.00000    0.02614    0.04436 =
         0.03576    0.00329    0.00926   -0.00296
N4    3    0.184003    0.769545    0.165311    11.00000    0.03423    0.04014 =
         0.03545    0.00814    0.00793    0.00471
N5    3    0.456217    0.324944    0.466408    11.00000    0.03118    0.04176 =
         0.03503    0.00322    0.01461   -0.00699
N6    3    0.510568   -0.037089    0.665942    11.00000    0.05097    0.06191 =
         0.06004    0.01556    0.01446    0.00359
C1    1    0.241998    0.640185    0.267259    11.00000    0.03337    0.03592 =
         0.03422   -0.00358    0.01174   -0.00155
C2    1    0.357738    0.551780    0.334998    11.00000    0.03344    0.03813 =
         0.03895   -0.00172    0.01214   -0.00368
C3    1    0.478851    0.486311    0.375247    11.00000    0.03572    0.04036 =
         0.03783    0.00347    0.01220   -0.00584
C4    1    0.013737    0.251690    0.416773    11.00000    0.03355    0.03391 =
         0.03418    0.00653    0.00549    0.00016
C5    1    0.216081    0.521159    0.347548    11.00000    0.03019    0.03828 =
         0.03147   -0.00517    0.00860   -0.00207
C6    1    0.331963    0.213136    0.518156    11.00000    0.02899    0.03931 =
         0.03659    0.00294    0.00961   -0.00025
C7    1    0.160151    0.417621    0.403517    11.00000    0.03270    0.04520 =
         0.03902    0.00320    0.01001   -0.00672
C8    1    0.529990    0.356273    0.455328    11.00000    0.03840    0.04592 =
         0.02920   -0.00037    0.01522   -0.00253
C9    1    0.273575    0.569893    0.319753    11.00000    0.03407    0.03274 =
         0.03417   -0.00490    0.00863   -0.00160
C10   1    0.210755    0.278172    0.477367    11.00000    0.02973    0.05307 =
         0.04022    0.00904    0.00934   -0.00223
C11   1   -0.064970    0.232147    0.426272    11.00000    0.02285    0.03680 =
         0.04610    0.00752    0.00602   -0.00171
C12   1    0.474629    0.251854    0.511406    11.00000    0.03231    0.04235 =
         0.03492    0.00102    0.01110   -0.00236
C13   1    0.416437    0.602860    0.306173    11.00000    0.04354    0.04338 =
         0.04190    0.01233    0.01320   -0.00524
AFIX  43
H13   2    0.405102    0.653883    0.275253    11.00000   -1.20000
AFIX   0
C14   1    0.129953    0.541429    0.332889    11.00000    0.03728    0.04611 =
         0.03994    0.00671    0.00759    0.00572
AFIX  43
H14   2    0.102250    0.590125    0.304339    11.00000   -1.20000
AFIX   0
C15   1    0.490351    0.563167    0.332207    11.00000    0.03119    0.05766 =
         0.05146    0.00727    0.01732   -0.00477
AFIX  43
H15   2    0.541044    0.582652    0.323573    11.00000   -1.20000
AFIX   0
C16   1    0.562235    0.237858    0.529766    11.00000    0.03514    0.05488 =
         0.03882    0.00686    0.00945    0.00928
AFIX  43
H16   2    0.590853    0.192054    0.560150    11.00000   -1.20000
AFIX   0
C17   1    0.273035    0.162060    0.545874    11.00000    0.03767    0.05001 =
         0.05198    0.01016    0.01170   -0.00701
AFIX  43
H17   2    0.284143    0.110173    0.576170    11.00000   -1.20000
AFIX   0
C18   1    0.720925    0.381751    0.334179    11.00000    0.03450    0.06259 =
         0.04412    0.01765    0.01041    0.00338
C19   1    0.642944    0.374203    0.349235    11.00000    0.03847    0.05000 =
         0.03250    0.01006    0.01074    0.00438
C20   1    0.623214    0.434320    0.396288    11.00000    0.03376    0.05737 =
         0.03570    0.00980    0.00660   -0.00357
C21   1    0.539868    0.426972    0.410503    11.00000    0.02505    0.05314 =
         0.03937    0.00298    0.01035   -0.00544
C22   1    0.149241    0.339638    0.443427    11.00000    0.02044    0.05969 =
         0.04622    0.00210    0.01107   -0.00644
C23   1    0.416595    0.196614    0.534491    11.00000    0.03706    0.04456 =
         0.03484   -0.00503    0.01601   -0.00232
C24   1    0.040278    0.194313    0.367022    11.00000    0.04098    0.05277 =
         0.04255    0.00316    0.00963   -0.00223
AFIX  43
H24   2    0.092704    0.205294    0.358663    11.00000   -1.20000
AFIX   0
C25   1   -0.009568    0.126416    0.333414    11.00000    0.05490    0.04954 =
         0.03893   -0.01151    0.01852   -0.01619
AFIX  43
H25   2    0.008401    0.091069    0.300966    11.00000   -1.20000
AFIX   0
C26   1    0.448678    0.115535    0.579952    11.00000    0.03326    0.04630 =
         0.03655    0.00502    0.01372    0.00037
C27   1    0.095898    0.477860    0.367547    11.00000    0.02828    0.05993 =
         0.04118    0.00443    0.00640    0.00337
AFIX  43
H27   2    0.039581    0.473825    0.367991    11.00000   -1.20000
AFIX   0
C28   1   -0.195515    0.140611    0.403312    11.00000    0.02607    0.04953 =
         0.05605    0.00724    0.00633   -0.00709
C29   1    0.063281    0.322071    0.451764    11.00000    0.03783    0.05258 =
         0.05193   -0.00089    0.01633   -0.00575
C30   1    0.199014    0.202138    0.520501    11.00000    0.03405    0.05770 =
         0.05462    0.00907    0.01452   -0.01007
AFIX  43
H30   2    0.148443    0.183281    0.529631    11.00000   -1.20000
AFIX   0
C31   1    0.433994    0.018371    0.562997    11.00000    0.04145    0.05347 =
         0.05069    0.00546    0.00878   -0.00979
AFIX  43
H31   2    0.402169    0.001658    0.521695    11.00000   -1.20000
AFIX   0
C32   1    0.595471    0.302579    0.495314    11.00000    0.02913    0.05826 =
         0.04160    0.01045    0.01106    0.00245
AFIX  43
H32   2    0.652123    0.310947    0.497275    11.00000   -1.20000
AFIX   0
C33   1   -0.093311    0.287914    0.474625    11.00000    0.03158    0.04656 =
         0.06488    0.00389    0.01149    0.00648
C34   1    0.778407    0.449106    0.367354    11.00000    0.03701    0.09443 =
         0.04450    0.00414    0.01315    0.00241
C35   1    0.466335   -0.055140    0.607092    11.00000    0.05154    0.05079 =
         0.06727    0.00502    0.01500   -0.00523
AFIX  43
H35   2    0.456160   -0.121394    0.594319    11.00000   -1.20000
AFIX   0
C36   1    0.496146    0.133928    0.640136    11.00000    0.04783    0.04731 =
         0.05055    0.00416    0.01377    0.00204
AFIX  43
H36   2    0.509067    0.199454    0.653499    11.00000   -1.20000
AFIX   0
C37   1   -0.115976    0.160704    0.391683    11.00000    0.04206    0.05019 =
         0.04376    0.01083    0.00357    0.00144
C38   1    0.207036    0.800711    0.225260    11.00000    0.12115    0.03996 =
         0.03750    0.00332    0.02338    0.02568
AFIX  43
H38   2    0.202808    0.868667    0.233249    11.00000   -1.20000
AFIX   0
C39   1   -0.088603    0.105090    0.344435    11.00000    0.05458    0.05814 =
         0.04096   -0.00467    0.01268   -0.00832
C40   1    0.680457    0.499756    0.427955    11.00000    0.03770    0.08697 =
         0.05545   -0.01979    0.01461   -0.02003
AFIX  43
H40   2    0.667400    0.541011    0.459921    11.00000   -1.20000
AFIX   0
C41   1   -0.220850    0.196656    0.450753    11.00000    0.02854    0.05832 =
         0.07415    0.00594    0.00904   -0.00435
AFIX  43
H41   2   -0.273260    0.184529    0.458837    11.00000   -1.20000
AFIX   0
C42   1    0.187049    0.674498    0.156061    11.00000    0.07961    0.03573 =
         0.04032    0.00311   -0.00222   -0.00954
AFIX  43
H42   2    0.169255    0.649965    0.113605    11.00000   -1.20000
AFIX   0
C43   1    0.033164    0.374489    0.496744    11.00000    0.03865    0.06419 =
         0.05878   -0.01432    0.02023   -0.00345
AFIX  43
H43   2    0.066359    0.424015    0.520790    11.00000   -1.20000
AFIX   0
C44   1    0.236814    0.740146    0.276761    11.00000    0.12311    0.04554 =
         0.03368   -0.00228    0.01737    0.01409
AFIX  43
H44   2    0.253773    0.766796    0.318718    11.00000   -1.20000
AFIX   0
C45   1    0.740894    0.321244    0.286073    11.00000    0.05551    0.06141 =
         0.05692    0.01699    0.02534    0.01831
C46   1   -0.173002    0.267484    0.485393    11.00000    0.03640    0.05921 =
         0.08330    0.00433    0.02683    0.00602
AFIX  43
H46   2   -0.192466    0.303525    0.516823    11.00000   -1.20000
AFIX   0
C47   1    0.525185    0.057421    0.681330    11.00000    0.05518    0.05960 =
         0.06052    0.01155    0.01767    0.00390
AFIX  43
H47   2    0.557262    0.072604    0.722825    11.00000   -1.20000
AFIX   0
C48   1    0.215020    0.608678    0.205422    11.00000    0.09703    0.02976 =
         0.04160   -0.00840    0.00440   -0.00586
AFIX  43
H48   2    0.215452    0.540728    0.196160    11.00000   -1.20000
AFIX   0
C49   1    0.859174    0.455938    0.351442    11.00000    0.03757    0.11961 =
         0.05570    0.00012    0.01060   -0.00131
AFIX  43
H49   2    0.899360    0.500137    0.373858    11.00000   -1.20000
AFIX   0
C50   1    0.820259    0.330626    0.270912    11.00000    0.05984    0.08571 =
         0.06030    0.02834    0.03262    0.03117
C51   1   -0.042439    0.357529    0.507736    11.00000    0.04975    0.05726 =
         0.07475   -0.02285    0.03210   -0.00756
AFIX  43
H51   2   -0.060159    0.395222    0.539310    11.00000   -1.20000
AFIX   0
C52   1    0.587752    0.302139    0.314844    11.00000    0.05771    0.05454 =
         0.06199   -0.00137    0.03261   -0.00639
AFIX  43
H52   2    0.535525    0.294318    0.324236    11.00000   -1.20000
AFIX   0
C53   1    0.874700    0.399322    0.305313    11.00000    0.04994    0.11452 =
         0.05888    0.01435    0.01940    0.00605
AFIX  43
H53   2    0.926471    0.405944    0.294937    11.00000   -1.20000
AFIX   0
C54   1    0.757389    0.506784    0.414072    11.00000    0.03454    0.12590 =
         0.06166   -0.01487    0.00881   -0.03288
AFIX  43
H54   2    0.796054    0.552080    0.437174    11.00000   -1.20000
AFIX   0
C55   1    0.685493    0.253785    0.252973    11.00000    0.08887    0.06340 =
         0.08415    0.00451    0.04750    0.00050
C56   1    0.608222    0.245511    0.269699    11.00000    0.09905    0.07073 =
         0.08963   -0.02052    0.05836   -0.02604
AFIX  43
H56   2    0.570056    0.198401    0.248181    11.00000   -1.20000
AFIX   0
C57   1   -0.242706    0.068094    0.368249    11.00000    0.05286    0.08575 =
         0.06622    0.00907    0.01454   -0.02151
AFIX  43
H57   2   -0.295714    0.055257    0.374917    11.00000   -1.20000
AFIX   0
C58   1   -0.139188    0.032418    0.311853    11.00000    0.07515    0.10307 =
         0.06489   -0.03418    0.03068   -0.04705
AFIX  43
H58   2   -0.121272   -0.005534    0.280488    11.00000   -1.20000
AFIX   0
C59   1    0.836997    0.271407    0.222707    11.00000    0.09258    0.09070 =
         0.08744    0.02510    0.06569    0.02918
AFIX  43
H59   2    0.888920    0.276800    0.212439    11.00000   -1.20000
AFIX   0
C60   1   -0.214179    0.014249    0.323887    11.00000    0.09335    0.11411 =
         0.08893   -0.04691    0.04499   -0.06201
AFIX  43
H60   2   -0.247158   -0.036557    0.301142    11.00000   -1.20000
AFIX   0
C61   1    0.783098    0.207171    0.190181    11.00000    0.14111    0.09316 =
         0.13428   -0.01808    0.09539   -0.01148
AFIX  43
H61   2    0.797279    0.167952    0.157711    11.00000   -1.20000
AFIX   0
C62   1    0.705712    0.197424    0.203780    11.00000    0.13932    0.09379 =
         0.12523   -0.03574    0.09587   -0.01736
AFIX  43
H62   2    0.667036    0.152890    0.179848    11.00000   -1.20000
AFIX   0
HKLF 4

REM  mo_gs27a_0m_a.res in P2(1)/n
REM R1 =  0.0613 for    4579 Fo > 4sig(Fo)  and  0.1010 for all    6839 data
REM    623 parameters refined using      0 restraints

END

WGHT      0.0828      3.3459

REM Highest difference peak  0.595,  deepest hole -0.306,  1-sigma level  0.080
Q1    1   0.3040  0.4017  0.3844  11.00000  0.05    0.60
Q2    1   0.3591  0.3611  0.4056  11.00000  0.05    0.48
Q3    1   0.3714  0.4026  0.4400  11.00000  0.05    0.46
Q4    1   0.3610  0.3261  0.4483  11.00000  0.05    0.43
Q5    1   0.3158  0.3345  0.3852  11.00000  0.05    0.42
Q6    1   0.3220  0.3645  0.4239  11.00000  0.05    0.42
Q7    1  -0.1730  0.2733  0.5451  11.00000  0.05    0.37
Q8    1   0.0793  0.2530  0.3986  11.00000  0.05    0.36
Q9    1  -0.1651  0.0839  0.3480  11.00000  0.05    0.32
Q10   1   0.0001  0.3035  0.4760  11.00000  0.05    0.32
Q11   1   0.3408  0.4852  0.4104  11.00000  0.05    0.32
Q12   1   0.8722  0.5615  0.3683  11.00000  0.05    0.31
Q13   1   0.2845  0.7369  0.2325  11.00000  0.05    0.31
Q14   1   0.7720  0.5383  0.3695  11.00000  0.05    0.30
Q15   1   0.3586  0.4447  0.0929  11.00000  0.05    0.30
Q16   1  -0.0153  0.3183  0.4643  11.00000  0.05    0.30
Q17   1  -0.1250  0.2225  0.4493  11.00000  0.05    0.29
Q18   1   0.5025  0.3818  0.3859  11.00000  0.05    0.29
Q19   1   0.8207  0.5258  0.3462  11.00000  0.05    0.29
Q20   1   0.3627  0.4033  0.3470  11.00000  0.05    0.28
;
_shelx_res_checksum              85462
_shelx_fab_file
;
    4    0    0     -2.56      0.00
    6    0    0    -25.07      0.00
    8    0    0     -0.98      0.00
   10    0    0      2.32      0.00
   12    0    0      2.53      0.00
   14    0    0      1.98      0.00
   16    0    0      0.27      0.00
   18    0    0     -1.09      0.00
    1    1    0     80.88      0.00
    2    1    0     35.95      0.00
    3    1    0    -15.54      0.00
    4    1    0     13.47      0.00
    5    1    0    -11.42      0.00
    6    1    0      2.52      0.00
    7    1    0    -12.76      0.00
    8    1    0     -3.42      0.00
    9    1    0      2.99      0.00
   10    1    0     -1.44      0.00
   11    1    0      0.37      0.00
   12    1    0     -0.78      0.00
   13    1    0      0.93      0.00
   14    1    0     -0.20      0.00
   15    1    0      2.21      0.00
   16    1    0      1.22      0.00
   17    1    0     -0.18      0.00
   18    1    0      0.44      0.00
    0    2    0     71.87      0.00
    1    2    0     60.06      0.00
    2    2    0    -17.05      0.00
    3    2    0     16.76      0.00
    4    2    0     -2.83      0.00
    5    2    0     16.03      0.00
    6    2    0     -8.59      0.00
    7    2    0     -8.04      0.00
    8    2    0     -1.32      0.00
    9    2    0     -2.43      0.00
   10    2    0      0.75      0.00
   11    2    0     -3.33      0.00
   12    2    0     -0.47      0.00
   13    2    0     -0.39      0.00
   14    2    0      0.41      0.00
   15    2    0      0.86      0.00
   16    2    0      0.37      0.00
   17    2    0      0.78      0.00
   18    2    0     -0.14      0.00
    1    3    0      4.59      0.00
    2    3    0     40.76      0.00
    3    3    0     -9.21      0.00
    4    3    0      7.59      0.00
    5    3    0      4.09      0.00
    6    3    0      2.63      0.00
    7    3    0     -1.79      0.00
    8    3    0     -7.23      0.00
    9    3    0      0.86      0.00
   10    3    0     -0.89      0.00
   11    3    0     -1.23      0.00
   12    3    0     -2.08      0.00
   13    3    0     -0.91      0.00
   14    3    0     -1.84      0.00
   15    3    0     -0.61      0.00
   16    3    0      1.34      0.00
   17    3    0     -0.36      0.00
    0    4    0     -8.52      0.00
    1    4    0     44.41      0.00
    2    4    0     -2.17      0.00
    3    4    0      0.18      0.00
    4    4    0     -2.15      0.00
    5    4    0      6.68      0.00
    6    4    0      6.20      0.00
    7    4    0     -6.00      0.00
    8    4    0     -3.13      0.00
    9    4    0     -0.03      0.00
   10    4    0      1.42      0.00
   11    4    0     -1.62      0.00
   12    4    0     -1.78      0.00
   13    4    0     -1.72      0.00
   14    4    0     -1.44      0.00
   15    4    0      0.06      0.00
   16    4    0     -0.63      0.00
   17    4    0      0.98      0.00
    1    5    0    -11.38      0.00
    2    5    0     17.82      0.00
    3    5    0      2.93      0.00
    4    5    0     -6.27      0.00
    5    5    0      2.82      0.00
    6    5    0      1.83      0.00
    7    5    0     -0.77      0.00
    8    5    0     -3.06      0.00
    9    5    0     -1.77      0.00
   10    5    0      1.34      0.00
   11    5    0     -0.31      0.00
   12    5    0     -0.77      0.00
   13    5    0     -0.34      0.00
   14    5    0     -1.65      0.00
   15    5    0     -1.70      0.00
   16    5    0      0.90      0.00
   17    5    0     -0.56      0.00
    0    6    0    -25.49      0.00
    1    6    0     16.74      0.00
    2    6    0     13.30      0.00
    3    6    0     -2.92      0.00
    4    6    0     -4.18      0.00
    5    6    0     -0.50      0.00
    6    6    0      3.86      0.00
    7    6    0     -0.05      0.00
    8    6    0     -4.80      0.00
    9    6    0     -0.97      0.00
   10    6    0      2.20      0.00
   11    6    0      1.29      0.00
   12    6    0      0.40      0.00
   13    6    0     -1.45      0.00
   14    6    0      0.74      0.00
   15    6    0     -0.25      0.00
   16    6    0     -0.96      0.00
    1    7    0     -6.52      0.00
    2    7    0      6.60      0.00
    3    7    0      9.21      0.00
    4    7    0     -1.99      0.00
    5    7    0     -1.47      0.00
    6    7    0      2.73      0.00
    7    7    0     -1.38      0.00
    8    7    0     -1.67      0.00
    9    7    0     -0.81      0.00
   10    7    0      0.20      0.00
   11    7    0      1.80      0.00
   12    7    0     -0.52      0.00
   13    7    0      2.44      0.00
   14    7    0     -0.93      0.00
   15    7    0     -0.64      0.00
   16    7    0      0.93      0.00
    0    8    0    -18.75      0.00
    1    8    0     -2.18      0.00
    2    8    0      9.93      0.00
    3    8    0      6.07      0.00
    4    8    0     -2.00      0.00
    5    8    0     -1.08      0.00
    6    8    0     -0.02      0.00
    7    8    0      3.00      0.00
    8    8    0     -1.60      0.00
    9    8    0     -3.96      0.00
   10    8    0      0.06      0.00
   11    8    0     -0.25      0.00
   12    8    0      0.91      0.00
   13    8    0     -0.75      0.00
   14    8    0     -0.01      0.00
   15    8    0      0.84      0.00
    1    9    0     -5.59      0.00
    2    9    0     -0.83      0.00
    3    9    0      5.44      0.00
    4    9    0      2.25      0.00
    5    9    0     -2.09      0.00
    6    9    0      2.44      0.00
    7    9    0      0.33      0.00
    8    9    0     -1.44      0.00
    9    9    0     -1.04      0.00
   10    9    0     -4.14      0.00
   11    9    0     -0.26      0.00
   12    9    0     -0.52      0.00
   13    9    0      0.32      0.00
   14    9    0      0.04      0.00
    0   10    0     -4.88      0.00
    1   10    0     -7.52      0.00
    2   10    0      1.42      0.00
    3   10    0      5.19      0.00
    4   10    0      0.20      0.00
    5   10    0     -0.45      0.00
    6   10    0     -1.17      0.00
    7   10    0      1.98      0.00
    8   10    0      3.31      0.00
    9   10    0     -4.62      0.00
   10   10    0     -0.70      0.00
   11   10    0     -3.17      0.00
   12   10    0     -0.82      0.00
   13   10    0      0.07      0.00
    1   11    0     -2.98      0.00
    2   11    0     -2.71      0.00
    3   11    0      2.00      0.00
    4   11    0      2.09      0.00
    5   11    0     -0.82      0.00
    6   11    0      1.51      0.00
    7   11    0      2.72      0.00
    8   11    0      0.37      0.00
    9   11    0      0.73      0.00
   10   11    0     -3.74      0.00
   11   11    0     -1.60      0.00
   12   11    0     -0.23      0.00
    0   12    0      0.70      0.00
    1   12    0     -5.14      0.00
    2   12    0     -2.97      0.00
    3   12    0      1.48      0.00
    4   12    0      0.99      0.00
    5   12    0     -0.06      0.00
    6   12    0     -2.14      0.00
    7   12    0      2.04      0.00
    8   12    0      2.12      0.00
    9   12    0      0.14      0.00
   10   12    0     -0.39      0.00
   11   12    0     -1.13      0.00
    1   13    0     -0.75      0.00
    2   13    0     -2.84      0.00
    3   13    0     -0.02      0.00
    4   13    0      0.12      0.00
    5   13    0     -1.49      0.00
    6   13    0      0.53      0.00
    7   13    0     -1.08      0.00
    8   13    0      0.53      0.00
    9   13    0      0.73      0.00
    0   14    0      4.59      0.00
    1   14    0     -0.16      0.00
    2   14    0     -2.62      0.00
    3   14    0     -0.13      0.00
    4   14    0      1.71      0.00
    5   14    0      0.13      0.00
    6   14    0     -0.17      0.00
    7   14    0     -2.07      0.00
    1   15    0      0.62      0.00
    2   15    0     -1.08      0.00
  -17    0    1      1.16      0.00
  -15    0    1     -1.75      0.00
  -13    0    1     -1.05      0.00
  -11    0    1     -2.57      0.00
   -9    0    1     -4.51      0.00
   -7    0    1      6.33      0.00
   -3    0    1     26.49      0.00
    3    0    1     -4.62      0.00
    5    0    1     -0.31      0.00
    7    0    1     18.01      0.00
    9    0    1     -0.60      0.00
   11    0    1      0.99      0.00
   13    0    1     -1.60      0.00
   15    0    1     -2.46      0.00
   17    0    1      0.25      0.00
  -18    1    1      0.68      0.00
  -17    1    1      0.28      0.00
  -16    1    1      0.25      0.00
  -15    1    1      1.05      0.00
  -14    1    1     -2.24      0.00
  -13    1    1      0.44      0.00
  -12    1    1     -1.46      0.00
  -11    1    1     -0.36      0.00
  -10    1    1     -2.44      0.00
   -9    1    1      0.27      0.00
   -8    1    1     -3.39      0.00
   -7    1    1     -7.25      0.00
   -5    1    1      2.67      0.00
   -4    1    1      8.27      0.00
   -3    1    1     10.41      0.00
   -2    1    1     42.49      0.00
   -1    1    1     65.06      0.00
    1    1    1      4.21      0.00
    2    1    1    -30.86      0.00
    3    1    1     -8.77      0.00
    4    1    1     -1.66      0.00
    5    1    1    -13.01      0.00
    7    1    1     -0.26      0.00
    8    1    1      6.72      0.00
    9    1    1      1.61      0.00
   10    1    1     -0.34      0.00
   11    1    1      2.61      0.00
   12    1    1     -0.38      0.00
   13    1    1      0.99      0.00
   14    1    1     -0.70      0.00
   15    1    1      0.18      0.00
   16    1    1     -0.92      0.00
   17    1    1     -0.67      0.00
  -18    2    1      0.50      0.00
  -17    2    1      0.07      0.00
  -16    2    1      1.56      0.00
  -15    2    1     -1.71      0.00
  -14    2    1     -0.29      0.00
  -13    2    1     -0.53      0.00
  -12    2    1      0.49      0.00
  -11    2    1      0.53      0.00
  -10    2    1     -1.03      0.00
   -9    2    1     -2.48      0.00
   -8    2    1     -3.98      0.00
   -7    2    1      4.23      0.00
   -5    2    1      5.07      0.00
   -4    2    1     10.22      0.00
   -3    2    1      8.43      0.00
   -2    2    1     35.74      0.00
   -1    2    1     -4.22      0.00
    0    2    1     62.67      0.00
    1    2    1    -55.36      0.00
    2    2    1    -32.95      0.00
    3    2    1     14.72      0.00
    4    2    1    -10.33      0.00
    5    2    1      2.79      0.00
    6    2    1    -12.63      0.00
    7    2    1      9.60      0.00
    8    2    1      5.75      0.00
    9    2    1     -0.56      0.00
   10    2    1      1.04      0.00
   11    2    1      1.29      0.00
   12    2    1      2.99      0.00
   13    2    1      0.51      0.00
   14    2    1      2.07      0.00
   15    2    1     -0.30      0.00
   16    2    1     -1.03      0.00
   17    2    1     -0.05      0.00
  -18    3    1     -0.13      0.00
  -17    3    1      0.80      0.00
  -16    3    1      0.21      0.00
  -15    3    1      1.39      0.00
  -14    3    1     -0.94      0.00
  -13    3    1     -0.85      0.00
  -12    3    1      0.65      0.00
  -11    3    1     -1.75      0.00
  -10    3    1      0.14      0.00
   -9    3    1      0.63      0.00
   -8    3    1      2.08      0.00
   -7    3    1    -10.17      0.00
   -6    3    1      0.60      0.00
   -5    3    1      7.27      0.00
   -4    3    1     -6.37      0.00
   -3    3    1     -0.95      0.00
   -2    3    1      5.64      0.00
   -1    3    1     66.94      0.00
    0    3    1    -23.29      0.00
    1    3    1    -20.25      0.00
    2    3    1      7.37      0.00
    3    3    1    -15.50      0.00
    4    3    1      9.39      0.00
    5    3    1    -12.69      0.00
    6    3    1      0.27      0.00
    7    3    1      2.00      0.00
    8    3    1      1.61      0.00
    9    3    1      2.47      0.00
   10    3    1     -2.46      0.00
   11    3    1      1.71      0.00
   12    3    1      0.73      0.00
   13    3    1      1.63      0.00
   14    3    1      1.40      0.00
   15    3    1      0.77      0.00
   16    3    1      0.60      0.00
   17    3    1     -0.90      0.00
  -17    4    1      0.72      0.00
  -16    4    1      1.43      0.00
  -15    4    1      1.08      0.00
  -14    4    1     -1.62      0.00
  -13    4    1     -0.02      0.00
  -12    4    1     -1.25      0.00
  -11    4    1      1.71      0.00
  -10    4    1      0.07      0.00
   -9    4    1      0.31      0.00
   -8    4    1     -1.54      0.00
   -7    4    1      4.95      0.00
   -6    4    1     -1.18      0.00
   -5    4    1     -9.11      0.00
   -4    4    1      4.24      0.00
   -3    4    1     -2.95      0.00
   -2    4    1     12.33      0.00
   -1    4    1     -6.03      0.00
    0    4    1     31.88      0.00
    1    4    1      8.44      0.00
    2    4    1    -35.76      0.00
    3    4    1      6.08      0.00
    4    4    1      1.02      0.00
    5    4    1      2.69      0.00
    6    4    1     -5.43      0.00
    7    4    1     -2.32      0.00
    8    4    1      6.55      0.00
    9    4    1      0.33      0.00
   10    4    1     -1.51      0.00
   11    4    1     -1.82      0.00
   12    4    1      1.23      0.00
   13    4    1      0.48      0.00
   14    4    1      1.59      0.00
   15    4    1      2.03      0.00
   16    4    1     -1.34      0.00
   17    4    1     -0.08      0.00
  -17    5    1      1.82      0.00
  -16    5    1      0.93      0.00
  -15    5    1      0.57      0.00
  -14    5    1      1.04      0.00
  -13    5    1     -2.43      0.00
  -12    5    1      1.18      0.00
  -11    5    1     -1.58      0.00
  -10    5    1     -1.44      0.00
   -9    5    1      0.41      0.00
   -8    5    1      5.78      0.00
   -7    5    1     -2.23      0.00
   -6    5    1     -2.61      0.00
   -5    5    1      6.17      0.00
   -4    5    1      1.17      0.00
   -3    5    1     -8.61      0.00
   -2    5    1    -13.67      0.00
   -1    5    1     29.30      0.00
    0    5    1     14.99      0.00
    1    5    1    -20.46      0.00
    2    5    1      4.36      0.00
    3    5    1     -7.04      0.00
    4    5    1      4.14      0.00
    5    5    1      0.90      0.00
    6    5    1     -4.69      0.00
    7    5    1      2.57      0.00
    8    5    1      2.11      0.00
    9    5    1      1.61      0.00
   10    5    1     -1.60      0.00
   11    5    1     -1.58      0.00
   12    5    1      0.21      0.00
   13    5    1     -0.64      0.00
   14    5    1      0.51      0.00
   15    5    1     -0.39      0.00
   16    5    1      0.92      0.00
   17    5    1     -0.84      0.00
  -16    6    1      1.40      0.00
  -15    6    1      1.46      0.00
  -14    6    1     -1.02      0.00
  -13    6    1     -1.46      0.00
  -12    6    1     -2.08      0.00
  -11    6    1     -0.08      0.00
  -10    6    1      0.27      0.00
   -9    6    1     -1.48      0.00
   -8    6    1     -2.19      0.00
   -7    6    1      5.60      0.00
   -6    6    1      4.68      0.00
   -5    6    1     -2.49      0.00
   -4    6    1     -2.43      0.00
   -3    6    1      0.22      0.00
   -2    6    1      3.33      0.00
   -1    6    1     -7.41      0.00
    0    6    1      6.96      0.00
    1    6    1     21.10      0.00
    2    6    1    -17.56      0.00
    3    6    1    -11.18      0.00
    4    6    1      3.41      0.00
    5    6    1      0.78      0.00
    6    6    1     -0.81      0.00
    7    6    1     -2.82      0.00
    8    6    1      2.39      0.00
    9    6    1      3.09      0.00
   10    6    1     -0.91      0.00
   11    6    1     -1.07      0.00
   12    6    1     -1.86      0.00
   13    6    1     -1.37      0.00
   14    6    1      0.01      0.00
   15    6    1      0.45      0.00
   16    6    1     -0.16      0.00
  -16    7    1      1.89      0.00
  -15    7    1      1.28      0.00
  -14    7    1      0.74      0.00
  -13    7    1     -1.16      0.00
  -12    7    1     -1.96      0.00
  -11    7    1      0.48      0.00
  -10    7    1     -3.29      0.00
   -9    7    1     -1.98      0.00
   -8    7    1      2.42      0.00
   -7    7    1      1.52      0.00
   -6    7    1     -0.32      0.00
   -5    7    1      2.12      0.00
   -4    7    1      7.40      0.00
   -3    7    1      1.12      0.00
   -2    7    1    -15.58      0.00
   -1    7    1      7.78      0.00
    0    7    1     18.40      0.00
    1    7    1     -4.46      0.00
    2    7    1     -5.14      0.00
    3    7    1     -4.60      0.00
    4    7    1     -2.99      0.00
    5    7    1      1.40      0.00
    6    7    1     -3.33      0.00
    7    7    1     -1.50      0.00
    8    7    1      1.76      0.00
    9    7    1      2.86      0.00
   10    7    1      0.37      0.00
   11    7    1     -0.80      0.00
   12    7    1     -0.81      0.00
   13    7    1      1.21      0.00
   14    7    1     -2.28      0.00
   15    7    1     -0.10      0.00
  -15    8    1      2.08      0.00
  -14    8    1      0.53      0.00
  -13    8    1     -0.29      0.00
  -12    8    1     -0.25      0.00
  -11    8    1     -2.30      0.00
  -10    8    1     -0.30      0.00
   -9    8    1     -1.14      0.00
   -8    8    1     -3.65      0.00
   -7    8    1      1.81      0.00
   -6    8    1      4.60      0.00
   -5    8    1      1.68      0.00
   -4    8    1     -1.65      0.00
   -3    8    1     -1.75      0.00
   -2    8    1      6.93      0.00
   -1    8    1     -3.03      0.00
    0    8    1     -1.01      0.00
    1    8    1     15.57      0.00
    2    8    1      1.63      0.00
    3    8    1    -10.23      0.00
    4    8    1     -2.65      0.00
    5    8    1     -0.09      0.00
    6    8    1     -1.05      0.00
    7    8    1     -1.54      0.00
    8    8    1     -0.44      0.00
    9    8    1      2.03      0.00
   10    8    1      3.39      0.00
   11    8    1      0.31      0.00
   12    8    1      1.10      0.00
   13    8    1     -1.27      0.00
   14    8    1      0.56      0.00
   15    8    1     -0.73      0.00
  -14    9    1      0.48      0.00
  -13    9    1      0.19      0.00
  -12    9    1     -1.04      0.00
  -11    9    1     -1.18      0.00
  -10    9    1     -0.77      0.00
   -9    9    1     -5.59      0.00
   -8    9    1     -1.19      0.00
   -7    9    1      1.10      0.00
   -6    9    1      1.01      0.00
   -5    9    1     -0.80      0.00
   -4    9    1      2.72      0.00
   -3    9    1      6.29      0.00
   -2    9    1     -7.66      0.00
   -1    9    1     -4.71      0.00
    0    9    1      9.68      0.00
    1    9    1      5.19      0.00
    2    9    1     -0.01      0.00
    3    9    1     -2.17      0.00
    4    9    1     -2.42      0.00
    5    9    1     -0.04      0.00
    6    9    1      0.13      0.00
    7    9    1     -3.38      0.00
    8    9    1     -1.67      0.00
    9    9    1      2.72      0.00
   10    9    1      1.56      0.00
   11    9    1      2.32      0.00
   12    9    1      0.68      0.00
   13    9    1      0.17      0.00
   14    9    1     -0.78      0.00
  -13   10    1     -0.33      0.00
  -12   10    1      0.34      0.00
  -11   10    1      0.48      0.00
  -10   10    1     -4.05      0.00
   -9   10    1      1.00      0.00
   -8   10    1     -4.12      0.00
   -7   10    1     -3.11      0.00
   -6   10    1      2.10      0.00
   -5   10    1      2.24      0.00
   -4   10    1     -0.07      0.00
   -3   10    1     -3.18      0.00
   -2   10    1      3.32      0.00
   -1   10    1      1.21      0.00
    0   10    1     -4.23      0.00
    1   10    1      4.89      0.00
    2   10    1      6.55      0.00
    3   10    1     -3.07      0.00
    4   10    1     -3.44      0.00
    5   10    1      0.30      0.00
    6   10    1     -0.94      0.00
    7   10    1     -1.68      0.00
    8   10    1     -1.51      0.00
    9   10    1     -1.65      0.00
   10   10    1      4.22      0.00
   11   10    1      0.28      0.00
   12   10    1      0.94      0.00
   13   10    1      0.07      0.00
  -12   11    1      2.34      0.00
  -11   11    1     -1.58      0.00
  -10   11    1      2.42      0.00
   -9   11    1     -3.21      0.00
   -8   11    1     -2.09      0.00
   -7   11    1      1.13      0.00
   -6   11    1      0.14      0.00
   -5   11    1     -0.35      0.00
   -4   11    1     -0.53      0.00
   -3   11    1      4.94      0.00
   -2   11    1     -0.90      0.00
   -1   11    1     -5.24      0.00
    0   11    1      1.80      0.00
    1   11    1      4.65      0.00
    2   11    1      2.01      0.00
    3   11    1     -0.60      0.00
    4   11    1     -1.17      0.00
    5   11    1      0.27      0.00
    6   11    1      0.43      0.00
    7   11    1     -1.15      0.00
    8   11    1     -4.14      0.00
    9   11    1      0.96      0.00
   10   11    1     -1.45      0.00
   11   11    1      3.13      0.00
   12   11    1      1.55      0.00
  -11   12    1      2.74      0.00
  -10   12    1     -2.30      0.00
   -9   12    1      1.44      0.00
   -8   12    1      0.20      0.00
   -7   12    1     -3.29      0.00
   -6   12    1      2.03      0.00
   -5   12    1      1.57      0.00
   -4   12    1      0.52      0.00
   -3   12    1     -2.64      0.00
   -2   12    1     -0.87      0.00
   -1   12    1      3.55      0.00
    0   12    1     -3.06      0.00
    1   12    1     -0.02      0.00
    2   12    1      4.73      0.00
    3   12    1      0.26      0.00
    4   12    1     -0.36      0.00
    5   12    1      0.26      0.00
    6   12    1      0.56      0.00
    7   12    1      1.12      0.00
    8   12    1     -1.42      0.00
    9   12    1     -1.44      0.00
   10   12    1      1.60      0.00
   11   12    1     -0.07      0.00
   -9   13    1     -0.45      0.00
   -8   13    1     -2.34      0.00
   -7   13    1     -1.36      0.00
   -6   13    1      0.33      0.00
   -5   13    1     -0.38      0.00
   -4   13    1     -0.73      0.00
   -3   13    1      0.64      0.00
   -2   13    1      2.68      0.00
   -1   13    1     -4.38      0.00
    0   13    1     -2.96      0.00
    1   13    1      0.75      0.00
    2   13    1      1.54      0.00
    3   13    1      0.56      0.00
    4   13    1     -0.83      0.00
    5   13    1      0.24      0.00
    6   13    1      2.64      0.00
    7   13    1     -0.54      0.00
    8   13    1      1.69      0.00
    9   13    1     -1.20      0.00
   -7   14    1     -1.80      0.00
   -6   14    1     -2.25      0.00
   -5   14    1     -0.29      0.00
   -4   14    1     -0.40      0.00
   -3   14    1     -1.25      0.00
   -2   14    1     -2.14      0.00
   -1   14    1      2.13      0.00
    0   14    1     -0.85      0.00
    1   14    1     -2.82      0.00
    2   14    1      0.23      0.00
    3   14    1      0.69      0.00
    4   14    1     -0.55      0.00
    5   14    1     -1.26      0.00
    6   14    1     -2.08      0.00
   -2   15    1      1.55      0.00
   -1   15    1      0.05      0.00
    0   15    1     -2.65      0.00
    1   15    1     -1.67      0.00
    2   15    1      1.77      0.00
  -18    0    2     -1.25      0.00
  -16    0    2     -1.61      0.00
  -14    0    2      2.66      0.00
  -12    0    2      0.71      0.00
  -10    0    2      2.14      0.00
   -8    0    2      4.62      0.00
   -6    0    2    -13.19      0.00
   -4    0    2    -14.98      0.00
   -2    0    2    -69.03      0.00
    0    0    2     46.04      0.00
    2    0    2     59.47      0.00
    4    0    2      8.44      0.00
    6    0    2     -3.56      0.00
    8    0    2    -10.54      0.00
   10    0    2     -0.13      0.00
   12    0    2     -0.24      0.00
   14    0    2      0.47      0.00
   16    0    2      1.03      0.00
  -18    1    2      0.35      0.00
  -17    1    2     -1.04      0.00
  -16    1    2     -0.34      0.00
  -15    1    2      1.01      0.00
  -14    1    2      0.24      0.00
  -13    1    2      0.88      0.00
  -12    1    2     -1.15      0.00
  -11    1    2      1.06      0.00
  -10    1    2     -0.65      0.00
   -9    1    2      2.64      0.00
   -8    1    2     -0.96      0.00
   -7    1    2      1.85      0.00
   -5    1    2    -20.18      0.00
   -4    1    2      1.66      0.00
   -3    1    2    -12.65      0.00
   -2    1    2     -7.20      0.00
   -1    1    2    -47.27      0.00
    0    1    2    -66.62      0.00
    1    1    2     95.41      0.00
    2    1    2     -5.04      0.00
    3    1    2      5.65      0.00
    4    1    2     -0.70      0.00
    5    1    2      5.71      0.00
    6    1    2      9.81      0.00
    7    1    2    -13.60      0.00
    8    1    2     -1.05      0.00
    9    1    2     -1.75      0.00
   10    1    2      0.16      0.00
   11    1    2     -1.75      0.00
   12    1    2     -2.31      0.00
   13    1    2      0.97      0.00
   14    1    2     -1.80      0.00
   15    1    2      1.06      0.00
   16    1    2      0.37      0.00
   17    1    2      0.04      0.00
  -18    2    2     -0.06      0.00
  -17    2    2     -0.80      0.00
  -16    2    2     -0.66      0.00
  -15    2    2     -1.58      0.00
  -14    2    2      2.65      0.00
  -13    2    2      0.84      0.00
  -12    2    2      0.19      0.00
  -11    2    2     -0.88      0.00
  -10    2    2      0.43      0.00
   -9    2    2     -2.01      0.00
   -8    2    2      1.56      0.00
   -7    2    2      8.31      0.00
   -6    2    2     -9.68      0.00
   -5    2    2      9.22      0.00
   -4    2    2     -0.08      0.00
   -3    2    2      7.73      0.00
   -2    2    2    -19.97      0.00
   -1    2    2    -56.92      0.00
    0    2    2     39.45      0.00
    1    2    2    -36.43      0.00
    2    2    2     26.63      0.00
    3    2    2      9.12      0.00
    4    2    2     -6.52      0.00
    5    2    2     10.58      0.00
    6    2    2     -4.55      0.00
    7    2    2      6.29      0.00
    8    2    2     -6.94      0.00
    9    2    2     -1.49      0.00
   10    2    2      2.10      0.00
   11    2    2     -0.28      0.00
   12    2    2     -0.10      0.00
   13    2    2     -1.76      0.00
   14    2    2     -0.40      0.00
   15    2    2     -2.07      0.00
   16    2    2      0.39      0.00
   17    2    2      0.45      0.00
  -18    3    2     -0.45      0.00
  -17    3    2     -0.49      0.00
  -16    3    2     -1.93      0.00
  -15    3    2      0.34      0.00
  -14    3    2      0.35      0.00
  -13    3    2      1.64      0.00
  -12    3    2     -0.17      0.00
  -11    3    2     -0.92      0.00
  -10    3    2      0.22      0.00
   -9    3    2      0.55      0.00
   -8    3    2     -1.83      0.00
   -7    3    2     -7.00      0.00
   -6    3    2     12.31      0.00
   -5    3    2     -0.25      0.00
   -4    3    2     -6.10      0.00
   -3    3    2      5.85      0.00
   -2    3    2      3.82      0.00
   -1    3    2      7.20      0.00
    0    3    2    -67.60      0.00
    1    3    2     28.75      0.00
    2    3    2     24.60      0.00
    3    3    2     -7.12      0.00
    4    3    2      4.72      0.00
    5    3    2     -7.63      0.00
    6    3    2     13.36      0.00
    7    3    2     -3.48      0.00
    8    3    2     -4.20      0.00
    9    3    2      0.31      0.00
   10    3    2      2.40      0.00
   11    3    2      2.39      0.00
   12    3    2     -0.94      0.00
   13    3    2      0.88      0.00
   14    3    2     -2.13      0.00
   15    3    2     -0.63      0.00
   16    3    2      0.59      0.00
   17    3    2      0.38      0.00
  -17    4    2     -1.18      0.00
  -16    4    2     -1.07      0.00
  -15    4    2     -2.35      0.00
  -14    4    2     -0.07      0.00
  -13    4    2      1.57      0.00
  -12    4    2      0.67      0.00
  -11    4    2      1.36      0.00
  -10    4    2      0.72      0.00
   -9    4    2     -1.35      0.00
   -8    4    2     -3.84      0.00
   -7    4    2      3.24      0.00
   -6    4    2     -4.93      0.00
   -5    4    2     -5.07      0.00
   -4    4    2      6.11      0.00
   -3    4    2      4.28      0.00
   -2    4    2     11.30      0.00
   -1    4    2    -32.64      0.00
    0    4    2     14.97      0.00
    1    4    2     -6.38      0.00
    2    4    2     -5.44      0.00
    3    4    2     20.53      0.00
    4    4    2     -8.49      0.00
    5    4    2      3.94      0.00
    6    4    2     -1.85      0.00
    7    4    2      1.82      0.00
    8    4    2     -0.19      0.00
    9    4    2     -3.81      0.00
   10    4    2      2.37      0.00
   11    4    2      1.60      0.00
   12    4    2      2.18      0.00
   13    4    2      0.20      0.00
   14    4    2      0.50      0.00
   15    4    2     -0.39      0.00
   16    4    2     -0.87      0.00
   17    4    2      1.22      0.00
  -17    5    2     -0.60      0.00
  -16    5    2     -1.47      0.00
  -15    5    2     -1.75      0.00
  -14    5    2      0.35      0.00
  -13    5    2      0.67      0.00
  -12    5    2      2.04      0.00
  -11    5    2     -1.06      0.00
  -10    5    2      1.69      0.00
   -9    5    2      3.28      0.00
   -8    5    2      0.90      0.00
   -7    5    2     -9.64      0.00
   -6    5    2     -1.36      0.00
   -5    5    2      6.24      0.00
   -4    5    2     -7.25      0.00
   -3    5    2     -2.17      0.00
   -2    5    2      3.77      0.00
   -1    5    2     20.87      0.00
    0    5    2    -29.15      0.00
    1    5    2    -15.31      0.00
    2    5    2     27.21      0.00
    3    5    2      1.33      0.00
    4    5    2      3.65      0.00
    5    5    2     -4.87      0.00
    6    5    2      3.95      0.00
    7    5    2      4.27      0.00
    8    5    2     -5.00      0.00
    9    5    2     -2.42      0.00
   10    5    2     -0.18      0.00
   11    5    2      2.61      0.00
   12    5    2      1.61      0.00
   13    5    2      1.21      0.00
   14    5    2      1.11      0.00
   15    5    2     -1.40      0.00
   16    5    2      0.99      0.00
  -17    6    2     -1.24      0.00
  -16    6    2     -1.23      0.00
  -15    6    2     -1.71      0.00
  -14    6    2     -1.74      0.00
  -13    6    2      1.67      0.00
  -12    6    2      0.80      0.00
  -11    6    2      2.31      0.00
  -10    6    2      1.97      0.00
   -9    6    2      2.09      0.00
   -8    6    2     -1.48      0.00
   -7    6    2      1.62      0.00
   -6    6    2     -2.62      0.00
   -5    6    2     -8.15      0.00
   -4    6    2     -3.61      0.00
   -3    6    2      2.91      0.00
   -2    6    2     10.12      0.00
   -1    6    2    -13.35      0.00
    0    6    2     -4.46      0.00
    1    6    2      5.96      0.00
    2    6    2    -10.54      0.00
    3    6    2     13.71      0.00
    4    6    2      4.67      0.00
    5    6    2      0.52      0.00
    6    6    2      3.38      0.00
    7    6    2      0.22      0.00
    8    6    2      0.83      0.00
    9    6    2     -3.25      0.00
   10    6    2     -1.52      0.00
   11    6    2      1.82      0.00
   12    6    2     -0.81      0.00
   13    6    2      2.08      0.00
   14    6    2      0.85      0.00
   15    6    2      1.69      0.00
   16    6    2     -0.47      0.00
  -16    7    2     -2.21      0.00
  -15    7    2     -2.27      0.00
  -14    7    2     -2.02      0.00
  -13    7    2      0.00      0.00
  -12    7    2      1.31      0.00
  -11    7    2      1.49      0.00
  -10    7    2     -0.43      0.00
   -9    7    2      4.52      0.00
   -8    7    2      4.78      0.00
   -7    7    2     -4.32      0.00
   -6    7    2     -5.57      0.00
   -5    7    2      2.96      0.00
   -4    7    2      0.36      0.00
   -3    7    2     -7.37      0.00
   -2    7    2     -5.69      0.00
   -1    7    2     14.15      0.00
    0    7    2     -6.12      0.00
    1    7    2    -24.02      0.00
    2    7    2      6.16      0.00
    3    7    2      9.35      0.00
    4    7    2      3.22      0.00
    5    7    2      1.55      0.00
    6    7    2      1.01      0.00
    7    7    2      4.88      0.00
    8    7    2      0.12      0.00
    9    7    2     -2.91      0.00
   10    7    2     -2.37      0.00
   11    7    2     -1.62      0.00
   12    7    2      0.65      0.00
   13    7    2      0.40      0.00
   14    7    2     -0.23      0.00
   15    7    2      1.31      0.00
  -15    8    2     -1.63      0.00
  -14    8    2     -2.41      0.00
  -13    8    2     -0.95      0.00
  -12    8    2      1.81      0.00
  -11    8    2     -0.36      0.00
  -10    8    2      3.89      0.00
   -9    8    2      2.62      0.00
   -8    8    2      1.80      0.00
   -7    8    2      1.28      0.00
   -6    8    2     -0.30      0.00
   -5    8    2     -2.35      0.00
   -4    8    2     -4.01      0.00
   -3    8    2     -1.38      0.00
   -2    8    2      9.21      0.00
   -1    8    2     -4.45      0.00
    0    8    2     -7.19      0.00
    1    8    2     -0.76      0.00
    2    8    2     -7.85      0.00
    3    8    2      0.20      0.00
    4    8    2      5.94      0.00
    5    8    2      0.56      0.00
    6    8    2      2.73      0.00
    7    8    2      2.47      0.00
    8    8    2      2.11      0.00
    9    8    2     -1.60      0.00
   10    8    2     -2.33      0.00
   11    8    2     -1.99      0.00
   12    8    2     -0.46      0.00
   13    8    2     -1.96      0.00
   14    8    2      1.93      0.00
   15    8    2      0.51      0.00
  -14    9    2      0.38      0.00
  -13    9    2     -0.41      0.00
  -12    9    2     -1.27      0.00
  -11    9    2      2.56      0.00
  -10    9    2      0.35      0.00
   -9    9    2      1.51      0.00
   -8    9    2      6.57      0.00
   -7    9    2      2.27      0.00
   -6    9    2     -3.77      0.00
   -5    9    2     -0.77      0.00
   -4    9    2      3.61      0.00
   -3    9    2      0.13      0.00
   -2    9    2     -7.56      0.00
   -1    9    2      5.60      0.00
    0    9    2      6.06      0.00
    1    9    2    -11.60      0.00
    2    9    2     -6.85      0.00
    3    9    2      3.97      0.00
    4    9    2      1.93      0.00
    5    9    2      1.52      0.00
    6    9    2      0.20      0.00
    7    9    2      1.74      0.00
    8    9    2      3.39      0.00
    9    9    2      0.55      0.00
   10    9    2     -3.10      0.00
   11    9    2     -0.65      0.00
   12    9    2     -0.85      0.00
   13    9    2      0.21      0.00
   14    9    2     -0.54      0.00
  -14   10    2      0.40      0.00
  -13   10    2     -1.09      0.00
  -12   10    2      0.22      0.00
  -11   10    2     -0.62      0.00
  -10   10    2     -0.49      0.00
   -9   10    2      3.59      0.00
   -8   10    2      1.03      0.00
   -7   10    2      1.64      0.00
   -6   10    2      1.49      0.00
   -5   10    2      0.12      0.00
   -4   10    2     -1.55      0.00
   -3   10    2     -3.82      0.00
   -2   10    2      5.18      0.00
   -1   10    2      1.23      0.00
    0   10    2     -3.08      0.00
    1   10    2     -0.49      0.00
    2   10    2     -3.20      0.00
    3   10    2     -3.06      0.00
    4   10    2      2.20      0.00
    5   10    2      0.65      0.00
    6   10    2     -0.30      0.00
    7   10    2      1.67      0.00
    8   10    2      3.14      0.00
    9   10    2      0.78      0.00
   10   10    2      0.29      0.00
   11   10    2     -2.64      0.00
   12   10    2     -0.80      0.00
   13   10    2     -0.48      0.00
  -12   11    2     -1.10      0.00
  -11   11    2     -1.38      0.00
  -10   11    2      1.52      0.00
   -9   11    2     -3.62      0.00
   -8   11    2      3.03      0.00
   -7   11    2      4.13      0.00
   -6   11    2     -2.10      0.00
   -5   11    2     -1.60      0.00
   -4   11    2      1.08      0.00
   -3   11    2      3.99      0.00
   -2   11    2     -5.07      0.00
   -1   11    2     -0.87      0.00
    0   11    2      5.42      0.00
    1   11    2     -1.58      0.00
    2   11    2     -5.77      0.00
    3   11    2     -0.04      0.00
    4   11    2      0.94      0.00
    5   11    2      0.10      0.00
    6   11    2     -1.93      0.00
    7   11    2      0.32      0.00
    8   11    2      1.02      0.00
    9   11    2      2.68      0.00
   10   11    2     -2.57      0.00
   11   11    2      1.24      0.00
   12   11    2     -1.63      0.00
  -11   12    2      1.31      0.00
  -10   12    2     -2.33      0.00
   -9   12    2      2.14      0.00
   -8   12    2      0.73      0.00
   -7   12    2      0.46      0.00
   -6   12    2      2.32      0.00
   -5   12    2     -0.84      0.00
   -4   12    2      0.38      0.00
   -3   12    2     -3.40      0.00
   -2   12    2      2.33      0.00
   -1   12    2      3.92      0.00
    0   12    2     -0.27      0.00
    1   12    2      0.81      0.00
    2   12    2     -0.40      0.00
    3   12    2     -2.02      0.00
    4   12    2      0.45      0.00
    5   12    2     -2.15      0.00
    6   12    2     -0.31      0.00
    7   12    2     -2.15      0.00
    8   12    2      0.39      0.00
    9   12    2      0.45      0.00
   10   12    2      2.54      0.00
   -9   13    2     -2.20      0.00
   -8   13    2      0.65      0.00
   -7   13    2      4.74      0.00
   -6   13    2      1.08      0.00
   -5   13    2     -0.44      0.00
   -4   13    2     -0.23      0.00
   -3   13    2      2.41      0.00
   -2   13    2      0.50      0.00
   -1   13    2     -3.95      0.00
    0   13    2      3.55      0.00
    1   13    2      4.29      0.00
    2   13    2     -1.58      0.00
    3   13    2      0.29      0.00
    4   13    2     -0.27      0.00
    5   13    2      1.82      0.00
    6   13    2     -0.07      0.00
    7   13    2     -1.91      0.00
    8   13    2      0.95      0.00
   -7   14    2      2.40      0.00
   -6   14    2      1.39      0.00
   -5   14    2      1.18      0.00
   -4   14    2      0.41      0.00
   -3   14    2     -0.77      0.00
   -2   14    2     -2.04      0.00
   -1   14    2      1.96      0.00
    0   14    2      0.97      0.00
    1   14    2      0.52      0.00
    2   14    2      0.54      0.00
    3   14    2     -0.59      0.00
    4   14    2      0.50      0.00
    5   14    2      0.78      0.00
    6   14    2      1.81      0.00
   -2   15    2      0.92      0.00
   -1   15    2     -3.45      0.00
    0   15    2     -1.65      0.00
    1   15    2      1.49      0.00
    2   15    2      0.50      0.00
  -17    0    3      1.52      0.00
  -15    0    3      0.21      0.00
  -13    0    3     -1.92      0.00
  -11    0    3      0.04      0.00
   -9    0    3      0.46      0.00
   -7    0    3     -7.53      0.00
   -5    0    3     14.12      0.00
   -3    0    3      0.64      0.00
   -1    0    3     89.83      0.00
    1    0    3    -51.16      0.00
    3    0    3    -11.68      0.00
    5    0    3    -11.13      0.00
    7    0    3      7.27      0.00
    9    0    3      2.90      0.00
   11    0    3      1.17      0.00
   13    0    3     -1.42      0.00
   15    0    3     -0.48      0.00
   17    0    3      0.27      0.00
  -18    1    3      0.89      0.00
  -17    1    3      0.11      0.00
  -16    1    3      2.16      0.00
  -15    1    3      0.46      0.00
  -14    1    3     -3.30      0.00
  -13    1    3     -1.01      0.00
  -12    1    3      0.25      0.00
  -11    1    3      1.54      0.00
  -10    1    3     -0.71      0.00
   -9    1    3      1.00      0.00
   -8    1    3     -1.40      0.00
   -7    1    3     -0.20      0.00
   -6    1    3      1.62      0.00
   -5    1    3    -12.71      0.00
   -4    1    3      8.25      0.00
   -3    1    3    -12.15      0.00
   -2    1    3     30.38      0.00
   -1    1    3      7.19      0.00
    0    1    3     16.00      0.00
    1    1    3     39.09      0.00
    2    1    3    -48.83      0.00
    3    1    3      3.14      0.00
    4    1    3     -2.16      0.00
    5    1    3      0.21      0.00
    6    1    3     -4.50      0.00
    7    1    3     -5.48      0.00
    8    1    3     10.00      0.00
    9    1    3      0.13      0.00
   10    1    3     -1.87      0.00
   11    1    3     -0.70      0.00
   12    1    3      0.05      0.00
   13    1    3      1.25      0.00
   14    1    3     -0.24      0.00
   15    1    3      1.43      0.00
   16    1    3     -0.51      0.00
   17    1    3     -0.62      0.00
  -18    2    3     -0.28      0.00
  -17    2    3      0.97      0.00
  -16    2    3      1.16      0.00
  -15    2    3      0.35      0.00
  -14    2    3     -0.36      0.00
  -13    2    3     -1.99      0.00
  -12    2    3     -0.39      0.00
  -11    2    3      0.11      0.00
  -10    2    3      0.74      0.00
   -9    2    3     -0.92      0.00
   -8    2    3      5.20      0.00
   -7    2    3      1.13      0.00
   -6    2    3    -14.15      0.00
   -5    2    3     13.72      0.00
   -4    2    3     -5.69      0.00
   -3    2    3     -3.90      0.00
   -2    2    3    -25.97      0.00
   -1    2    3     23.00      0.00
    0    2    3     58.86      0.00
    1    2    3    -52.92      0.00
    2    2    3      7.95      0.00
    3    2    3    -10.49      0.00
    4    2    3      1.11      0.00
    5    2    3      0.54      0.00
    6    2    3    -10.83      0.00
    7    2    3      6.81      0.00
    8    2    3     -0.74      0.00
    9    2    3      2.13      0.00
   10    2    3     -2.60      0.00
   11    2    3     -2.12      0.00
   12    2    3      0.34      0.00
   13    2    3     -2.15      0.00
   14    2    3      1.77      0.00
   15    2    3     -0.25      0.00
   16    2    3      0.23      0.00
   17    2    3     -0.33      0.00
  -18    3    3     -0.54      0.00
  -17    3    3      1.02      0.00
  -16    3    3      1.57      0.00
  -15    3    3      3.13      0.00
  -14    3    3     -1.04      0.00
  -13    3    3     -2.37      0.00
  -12    3    3     -1.18      0.00
  -11    3    3     -0.41      0.00
  -10    3    3     -0.52      0.00
   -9    3    3      0.81      0.00
   -8    3    3      1.01      0.00
   -7    3    3      0.54      0.00
   -6    3    3     13.06      0.00
   -5    3    3    -10.71      0.00
   -4    3    3      3.04      0.00
   -3    3    3     -5.10      0.00
   -2    3    3     -2.16      0.00
   -1    3    3      8.27      0.00
    0    3    3    -24.26      0.00
    1    3    3     41.76      0.00
    2    3    3    -20.73      0.00
    3    3    3    -17.04      0.00
    4    3    3      4.86      0.00
    5    3    3     -3.45      0.00
    6    3    3      4.87      0.00
    7    3    3     -9.21      0.00
    8    3    3      4.41      0.00
    9    3    3      3.50      0.00
   10    3    3     -2.14      0.00
   11    3    3     -3.33      0.00
   12    3    3     -2.48      0.00
   13    3    3     -0.31      0.00
   14    3    3     -1.73      0.00
   15    3    3      2.03      0.00
   16    3    3     -0.47      0.00
   17    3    3     -0.55      0.00
  -17    4    3      0.04      0.00
  -16    4    3      1.56      0.00
  -15    4    3      1.28      0.00
  -14    4    3      1.49      0.00
  -13    4    3     -1.06      0.00
  -12    4    3     -1.14      0.00
  -11    4    3     -0.54      0.00
  -10    4    3     -2.40      0.00
   -9    4    3     -4.06      0.00
   -8    4    3      2.01      0.00
   -7    4    3     10.15      0.00
   -6    4    3     -5.96      0.00
   -5    4    3      3.25      0.00
   -4    4    3      8.94      0.00
   -3    4    3      1.20      0.00
   -2    4    3    -11.97      0.00
   -1    4    3    -18.46      0.00
    0    4    3     45.35      0.00
    1    4    3    -14.61      0.00
    2    4    3    -11.42      0.00
    3    4    3     -0.33      0.00
    4    4    3    -10.34      0.00
    5    4    3      8.13      0.00
    6    4    3     -9.45      0.00
    7    4    3      1.14      0.00
    8    4    3      3.09      0.00
    9    4    3      2.16      0.00
   10    4    3      0.93      0.00
   11    4    3     -2.84      0.00
   12    4    3     -0.76      0.00
   13    4    3     -3.10      0.00
   14    4    3      0.42      0.00
   15    4    3     -0.47      0.00
   16    4    3      0.01      0.00
  -17    5    3      0.39      0.00
  -16    5    3      0.59      0.00
  -15    5    3      2.08      0.00
  -14    5    3      1.99      0.00
  -13    5    3     -1.11      0.00
  -12    5    3     -1.47      0.00
  -11    5    3     -1.92      0.00
  -10    5    3     -1.27      0.00
   -9    5    3     -2.42      0.00
   -8    5    3     -2.02      0.00
   -7    5    3     -2.36      0.00
   -6    5    3     10.70      0.00
   -5    5    3      5.34      0.00
   -4    5    3     -3.19      0.00
   -3    5    3      3.82      0.00
   -2    5    3     -2.88      0.00
   -1    5    3     11.44      0.00
    0    5    3    -19.49      0.00
    1    5    3     16.94      0.00
    2    5    3     11.18      0.00
    3    5    3    -23.01      0.00
    4    5    3     -1.21      0.00
    5    5    3     -5.87      0.00
    6    5    3      2.60      0.00
    7    5    3     -4.21      0.00
    8    5    3     -2.21      0.00
    9    5    3      5.95      0.00
   10    5    3      1.25      0.00
   11    5    3      0.38      0.00
   12    5    3     -1.82      0.00
   13    5    3     -0.88      0.00
   14    5    3     -1.96      0.00
   15    5    3     -0.64      0.00
   16    5    3      1.08      0.00
  -17    6    3      0.00      0.00
  -16    6    3      1.26      0.00
  -15    6    3      2.20      0.00
  -14    6    3      1.92      0.00
  -13    6    3      1.10      0.00
  -12    6    3     -1.97      0.00
  -11    6    3      0.70      0.00
  -10    6    3     -2.01      0.00
   -9    6    3     -5.13      0.00
   -8    6    3     -5.07      0.00
   -7    6    3      6.89      0.00
   -6    6    3      0.82      0.00
   -5    6    3     -3.61      0.00
   -4    6    3      7.29      0.00
   -3    6    3      9.80      0.00
   -2    6    3     -0.21      0.00
   -1    6    3    -18.00      0.00
    0    6    3     20.38      0.00
    1    6    3     16.05      0.00
    2    6    3    -12.30      0.00
    3    6    3      1.26      0.00
    4    6    3     -9.97      0.00
    5    6    3      0.50      0.00
    6    6    3     -4.78      0.00
    7    6    3     -5.25      0.00
    8    6    3      1.54      0.00
    9    6    3      1.43      0.00
   10    6    3      3.89      0.00
   11    6    3      1.03      0.00
   12    6    3     -1.12      0.00
   13    6    3      1.09      0.00
   14    6    3     -1.64      0.00
   15    6    3      0.24      0.00
   16    6    3     -2.06      0.00
  -16    7    3      1.46      0.00
  -15    7    3      2.86      0.00
  -14    7    3      3.16      0.00
  -13    7    3      1.71      0.00
  -12    7    3     -0.57      0.00
  -11    7    3     -1.71      0.00
  -10    7    3     -1.30      0.00
   -9    7    3     -1.84      0.00
   -8    7    3     -3.35      0.00
   -7    7    3     -5.46      0.00
   -6    7    3      3.24      0.00
   -5    7    3      6.69      0.00
   -4    7    3     -1.33      0.00
   -3    7    3     -1.68      0.00
   -2    7    3     -0.83      0.00
   -1    7    3      9.86      0.00
    0    7    3     -4.07      0.00
    1    7    3      2.11      0.00
    2    7    3     20.58      0.00
    3    7    3     -6.07      0.00
    4    7    3     -5.31      0.00
    5    7    3     -3.29      0.00
    6    7    3     -2.31      0.00
    7    7    3     -2.11      0.00
    8    7    3     -4.44      0.00
    9    7    3      1.88      0.00
   10    7    3      3.40      0.00
   11    7    3      0.59      0.00
   12    7    3      3.53      0.00
   13    7    3     -0.44      0.00
   14    7    3     -0.06      0.00
   15    7    3     -1.80      0.00
  -15    8    3      0.69      0.00
  -14    8    3      1.72      0.00
  -13    8    3      1.76      0.00
  -12    8    3      1.19      0.00
  -11    8    3     -2.24      0.00
  -10    8    3      1.49      0.00
   -9    8    3     -4.15      0.00
   -8    8    3     -6.78      0.00
   -7    8    3     -0.01      0.00
   -6    8    3      3.20      0.00
   -5    8    3     -3.09      0.00
   -4    8    3     -2.28      0.00
   -3    8    3      4.48      0.00
   -2    8    3      5.40      0.00
   -1    8    3    -12.93      0.00
    0    8    3      0.83      0.00
    1    8    3     15.58      0.00
    2    8    3      1.55      0.00
    3    8    3      1.25      0.00
    4    8    3     -1.69      0.00
    5    8    3     -1.97      0.00
    6    8    3     -0.42      0.00
    7    8    3     -3.82      0.00
    8    8    3     -2.92      0.00
    9    8    3     -0.59      0.00
   10    8    3      2.26      0.00
   11    8    3      2.03      0.00
   12    8    3      0.08      0.00
   13    8    3      0.30      0.00
   14    8    3      1.66      0.00
  -15    9    3     -0.47      0.00
  -14    9    3      0.89      0.00
  -13    9    3      0.85      0.00
  -12    9    3     -0.71      0.00
  -11    9    3      2.24      0.00
  -10    9    3     -2.35      0.00
   -9    9    3     -0.28      0.00
   -8    9    3     -1.67      0.00
   -7    9    3     -5.10      0.00
   -6    9    3     -1.65      0.00
   -5    9    3      3.30      0.00
   -4    9    3      1.48      0.00
   -3    9    3     -1.74      0.00
   -2    9    3     -4.59      0.00
   -1    9    3      4.44      0.00
    0    9    3     -0.62      0.00
    1    9    3     -4.69      0.00
    2    9    3      9.81      0.00
    3    9    3      4.69      0.00
    4    9    3     -3.41      0.00
    5    9    3     -0.15      0.00
    6    9    3     -0.75      0.00
    7    9    3     -0.93      0.00
    8    9    3     -3.00      0.00
    9    9    3     -2.19      0.00
   10    9    3      0.67      0.00
   11    9    3      1.90      0.00
   12    9    3      0.21      0.00
   13    9    3      1.13      0.00
  -14   10    3     -1.69      0.00
  -13   10    3     -0.42      0.00
  -12   10    3      2.84      0.00
  -11   10    3     -1.52      0.00
  -10   10    3      2.13      0.00
   -9   10    3      1.82      0.00
   -8   10    3     -4.52      0.00
   -7   10    3     -3.31      0.00
   -6   10    3      2.37      0.00
   -5   10    3      0.14      0.00
   -4   10    3     -2.83      0.00
   -3   10    3     -0.35      0.00
   -2   10    3      6.53      0.00
   -1   10    3     -3.63      0.00
    0   10    3     -5.67      0.00
    1   10    3      4.95      0.00
    2   10    3      3.43      0.00
    3   10    3      0.13      0.00
    4   10    3      1.12      0.00
    5   10    3     -0.50      0.00
    6   10    3      1.46      0.00
    7   10    3      0.73      0.00
    8   10    3     -2.85      0.00
    9   10    3     -1.54      0.00
   10   10    3      0.85      0.00
   11   10    3      0.38      0.00
   12   10    3      0.67      0.00
   13   10    3      0.47      0.00
  -12   11    3     -0.80      0.00
  -11   11    3      1.21      0.00
  -10   11    3      0.03      0.00
   -9   11    3     -0.83      0.00
   -8   11    3      1.83      0.00
   -7   11    3     -2.16      0.00
   -6   11    3     -3.55      0.00
   -5   11    3      1.78      0.00
   -4   11    3      1.91      0.00
   -3   11    3      1.99      0.00
   -2   11    3     -6.03      0.00
   -1   11    3      1.27      0.00
    0   11    3      1.08      0.00
    1   11    3     -4.68      0.00
    2   11    3      1.67      0.00
    3   11    3      3.58      0.00
    4   11    3      0.11      0.00
    5   11    3      0.90      0.00
    6   11    3      0.91      0.00
    7   11    3      2.49      0.00
    8   11    3     -0.75      0.00
    9   11    3     -1.90      0.00
   10   11    3     -1.06      0.00
   11   11    3      1.86      0.00
  -11   12    3      0.93      0.00
  -10   12    3     -0.50      0.00
   -9   12    3      3.53      0.00
   -8   12    3     -2.02      0.00
   -7   12    3     -4.64      0.00
   -6   12    3      0.44      0.00
   -5   12    3      0.09      0.00
   -4   12    3      0.84      0.00
   -3   12    3     -3.15      0.00
   -2   12    3      4.82      0.00
   -1   12    3      0.07      0.00
    0   12    3     -5.42      0.00
    1   12    3     -1.43      0.00
    2   12    3      0.04      0.00
    3   12    3     -0.11      0.00
    4   12    3     -0.10      0.00
    5   12    3     -1.04      0.00
    6   12    3      3.13      0.00
    7   12    3     -0.26      0.00
    8   12    3      0.92      0.00
    9   12    3     -1.10      0.00
   10   12    3      0.26      0.00
   -9   13    3     -0.02      0.00
   -8   13    3      1.59      0.00
   -7   13    3     -0.81      0.00
   -6   13    3     -4.43      0.00
   -5   13    3      0.19      0.00
   -4   13    3      0.23      0.00
   -3   13    3      3.76      0.00
   -2   13    3     -1.60      0.00
   -1   13    3     -1.42      0.00
    0   13    3      2.35      0.00
    1   13    3     -2.06      0.00
    2   13    3     -2.22      0.00
    3   13    3      0.92      0.00
    4   13    3     -1.03      0.00
    5   13    3      0.69      0.00
    6   13    3     -4.03      0.00
    7   13    3      0.53      0.00
    8   13    3      0.32      0.00
   -7   14    3     -1.52      0.00
   -6   14    3     -1.80      0.00
   -5   14    3     -0.54      0.00
   -4   14    3     -0.04      0.00
   -3   14    3     -1.13      0.00
   -2   14    3      0.83      0.00
   -1   14    3      5.26      0.00
    0   14    3      1.06      0.00
    1   14    3     -2.14      0.00
    2   14    3      1.13      0.00
    3   14    3     -0.05      0.00
    4   14    3      0.97      0.00
    5   14    3     -1.71      0.00
    6   14    3     -1.32      0.00
   -2   15    3      0.67      0.00
   -1   15    3     -0.40      0.00
    0   15    3      2.22      0.00
    1   15    3      1.93      0.00
  -18    0    4     -0.96      0.00
  -16    0    4     -2.85      0.00
  -14    0    4      3.76      0.00
  -12    0    4      0.24      0.00
  -10    0    4      0.26      0.00
   -8    0    4     -3.62      0.00
   -6    0    4      9.60      0.00
   -4    0    4     -4.95      0.00
   -2    0    4     -1.40      0.00
    0    0    4    -61.39      0.00
    2    0    4     35.04      0.00
    4    0    4      0.23      0.00
    6    0    4     11.30      0.00
    8    0    4     -8.07      0.00
   10    0    4      2.56      0.00
   12    0    4     -0.29      0.00
   14    0    4      0.66      0.00
   16    0    4      0.68      0.00
  -18    1    4      0.45      0.00
  -17    1    4     -1.61      0.00
  -16    1    4     -0.45      0.00
  -15    1    4     -1.67      0.00
  -14    1    4     -0.37      0.00
  -13    1    4      4.26      0.00
  -12    1    4      0.68      0.00
  -11    1    4     -0.53      0.00
  -10    1    4     -0.46      0.00
   -9    1    4     -0.63      0.00
   -8    1    4     -2.50      0.00
   -7    1    4      3.12      0.00
   -6    1    4      1.66      0.00
   -5    1    4     -5.88      0.00
   -4    1    4      4.87      0.00
   -3    1    4      9.45      0.00
   -2    1    4     23.92      0.00
   -1    1    4    -46.04      0.00
    0    1    4     -8.37      0.00
    1    1    4     17.12      0.00
    2    1    4    -10.56      0.00
    3    1    4     17.83      0.00
    4    1    4     -2.87      0.00
    5    1    4      5.41      0.00
    6    1    4      1.23      0.00
    7    1    4     -0.70      0.00
    8    1    4      1.02      0.00
    9    1    4     -4.05      0.00
   10    1    4      1.14      0.00
   11    1    4      2.00      0.00
   12    1    4      0.06      0.00
   13    1    4      2.29      0.00
   14    1    4     -0.58      0.00
   15    1    4      0.04      0.00
   16    1    4      0.11      0.00
   17    1    4     -0.41      0.00
  -18    2    4     -0.29      0.00
  -17    2    4     -0.41      0.00
  -16    2    4     -2.90      0.00
  -15    2    4     -2.40      0.00
  -14    2    4      1.99      0.00
  -13    2    4      2.15      0.00
  -12    2    4      1.40      0.00
  -11    2    4     -0.13      0.00
  -10    2    4      1.27      0.00
   -9    2    4      0.84      0.00
   -8    2    4     -0.62      0.00
   -7    2    4     -8.63      0.00
   -6    2    4     -4.85      0.00
   -5    2    4     13.11      0.00
   -4    2    4    -12.32      0.00
   -3    2    4      5.12      0.00
   -2    2    4     -0.07      0.00
   -1    2    4     26.77      0.00
    0    2    4     -9.33      0.00
    1    2    4    -39.78      0.00
    2    2    4     39.14      0.00
    3    2    4      3.94      0.00
    4    2    4      4.40      0.00
    5    2    4     -4.20      0.00
    6    2    4      2.92      0.00
    7    2    4      8.17      0.00
    8    2    4     -8.06      0.00
    9    2    4     -2.03      0.00
   10    2    4      1.63      0.00
   11    2    4      2.81      0.00
   12    2    4      2.22      0.00
   13    2    4      0.13      0.00
   14    2    4      1.90      0.00
   15    2    4     -1.31      0.00
   16    2    4      0.17      0.00
   17    2    4      0.76      0.00
  -18    3    4      0.92      0.00
  -17    3    4     -0.12      0.00
  -16    3    4     -1.26      0.00
  -15    3    4     -2.25      0.00
  -14    3    4     -2.53      0.00
  -13    3    4      1.18      0.00
  -12    3    4      2.90      0.00
  -11    3    4      1.18      0.00
  -10    3    4      2.14      0.00
   -9    3    4      3.46      0.00
   -8    3    4     -3.54      0.00
   -7    3    4     -5.21      0.00
   -6    3    4      3.66      0.00
   -5    3    4    -15.39      0.00
   -4    3    4      2.30      0.00
   -3    3    4     -7.14      0.00
   -2    3    4     20.07      0.00
   -1    3    4     -3.13      0.00
    0    3    4    -25.91      0.00
    1    3    4     28.49      0.00
    2    3    4    -14.06      0.00
    3    3    4     13.82      0.00
    4    3    4      6.95      0.00
    5    3    4     -2.26      0.00
    6    3    4      6.31      0.00
    7    3    4     -3.79      0.00
    8    3    4      1.86      0.00
    9    3    4     -4.41      0.00
   10    3    4     -1.49      0.00
   11    3    4      2.09      0.00
   12    3    4      1.35      0.00
   13    3    4      3.13      0.00
   14    3    4      0.09      0.00
   15    3    4      0.91      0.00
   16    3    4     -0.88      0.00
  -18    4    4      0.82      0.00
  -17    4    4      0.33      0.00
  -16    4    4     -0.47      0.00
  -15    4    4     -3.07      0.00
  -14    4    4     -1.26      0.00
  -13    4    4      0.87      0.00
  -12    4    4      1.20      0.00
  -11    4    4      1.43      0.00
  -10    4    4      1.38      0.00
   -9    4    4      3.89      0.00
   -8    4    4      5.02      0.00
   -7    4    4     -2.49      0.00
   -6    4    4    -16.43      0.00
   -5    4    4      7.04      0.00
   -4    4    4     -4.41      0.00
   -3    4    4     -7.19      0.00
   -2    4    4     -7.14      0.00
   -1    4    4      6.74      0.00
    0    4    4     20.84      0.00
    1    4    4    -40.20      0.00
    2    4    4      8.09      0.00
    3    4    4     15.71      0.00
    4    4    4      3.71      0.00
    5    4    4      5.51      0.00
    6    4    4     -4.78      0.00
    7    4    4      9.95      0.00
    8    4    4     -1.24      0.00
    9    4    4     -6.11      0.00
   10    4    4     -2.48      0.00
   11    4    4     -0.02      0.00
   12    4    4      1.82      0.00
   13    4    4      0.24      0.00
   14    4    4      2.91      0.00
   15    4    4     -1.60      0.00
   16    4    4     -0.05      0.00
  -17    5    4      0.69      0.00
  -16    5    4     -0.34      0.00
  -15    5    4     -0.89      0.00
  -14    5    4     -2.66      0.00
  -13    5    4     -1.25      0.00
  -12    5    4      1.16      0.00
  -11    5    4      0.41      0.00
  -10    5    4      1.90      0.00
   -9    5    4      5.52      0.00
   -8    5    4      2.91      0.00
   -7    5    4     -4.57      0.00
   -6    5    4      3.79      0.00
   -5    5    4     -6.26      0.00
   -4    5    4     -7.60      0.00
   -3    5    4     -6.23      0.00
   -2    5    4      1.51      0.00
   -1    5    4     10.13      0.00
    0    5    4    -28.66      0.00
    1    5    4      9.33      0.00
    2    5    4     -4.38      0.00
    3    5    4     -3.28      0.00
    4    5    4     15.01      0.00
    5    5    4     -1.70      0.00
    6    5    4      9.19      0.00
    7    5    4      0.13      0.00
    8    5    4      0.85      0.00
    9    5    4     -0.93      0.00
   10    5    4     -5.65      0.00
   11    5    4      0.03      0.00
   12    5    4     -1.46      0.00
   13    5    4      1.72      0.00
   14    5    4     -0.67      0.00
   15    5    4      1.61      0.00
   16    5    4      0.09      0.00
  -17    6    4     -0.50      0.00
  -16    6    4     -1.26      0.00
  -15    6    4     -1.91      0.00
  -14    6    4     -3.79      0.00
  -13    6    4     -1.07      0.00
  -12    6    4      0.03      0.00
  -11    6    4      1.87      0.00
  -10    6    4     -1.43      0.00
   -9    6    4      2.00      0.00
   -8    6    4      6.31      0.00
   -7    6    4      6.96      0.00
   -6    6    4    -10.57      0.00
   -5    6    4     -3.02      0.00
   -4    6    4      5.77      0.00
   -3    6    4     -3.49      0.00
   -2    6    4     -8.14      0.00
   -1    6    4     -7.68      0.00
    0    6    4     18.01      0.00
    1    6    4    -19.40      0.00
    2    6    4    -19.66      0.00
    3    6    4     11.10      0.00
    4    6    4      1.06      0.00
    5    6    4      7.68      0.00
    6    6    4     -2.33      0.00
    7    6    4      5.75      0.00
    8    6    4      5.25      0.00
    9    6    4     -3.72      0.00
   10    6    4     -1.66      0.00
   11    6    4     -3.71      0.00
   12    6    4     -1.25      0.00
   13    6    4     -0.38      0.00
   14    6    4      0.57      0.00
   15    6    4      1.30      0.00
  -16    7    4     -0.82      0.00
  -15    7    4     -1.22      0.00
  -14    7    4     -2.61      0.00
  -13    7    4     -3.42      0.00
  -12    7    4     -0.16      0.00
  -11    7    4     -0.47      0.00
  -10    7    4      0.81      0.00
   -9    7    4      2.59      0.00
   -8    7    4      5.96      0.00
   -7    7    4     -1.67      0.00
   -6    7    4      2.41      0.00
   -5    7    4      2.05      0.00
   -4    7    4     -3.34      0.00
   -3    7    4     -3.81      0.00
   -2    7    4      0.52      0.00
   -1    7    4     11.31      0.00
    0    7    4    -12.16      0.00
    1    7    4     -7.87      0.00
    2    7    4      0.84      0.00
    3    7    4    -11.71      0.00
    4    7    4      5.53      0.00
    5    7    4     -0.52      0.00
    6    7    4      3.87      0.00
    7    7    4      3.29      0.00
    8    7    4      1.78      0.00
    9    7    4      2.86      0.00
   10    7    4     -3.58      0.00
   11    7    4     -2.32      0.00
   12    7    4      1.16      0.00
   13    7    4     -3.30      0.00
   14    7    4      0.37      0.00
   15    7    4     -0.35      0.00
  -15    8    4     -0.62      0.00
  -14    8    4     -0.45      0.00
  -13    8    4     -1.60      0.00
  -12    8    4     -0.63      0.00
  -11    8    4     -0.39      0.00
  -10    8    4      0.46      0.00
   -9    8    4     -1.54      0.00
   -8    8    4      3.11      0.00
   -7    8    4      8.82      0.00
   -6    8    4     -1.97      0.00
   -5    8    4     -6.37      0.00
   -4    8    4      3.65      0.00
   -3    8    4      3.96      0.00
   -2    8    4     -0.29      0.00
   -1    8    4     -7.61      0.00
    0    8    4     10.64      0.00
    1    8    4      2.23      0.00
    2    8    4    -17.19      0.00
    3    8    4     -0.31      0.00
    4    8    4     -0.17      0.00
    5    8    4      2.17      0.00
    6    8    4     -0.38      0.00
    7    8    4      0.51      0.00
    8    8    4      4.90      0.00
    9    8    4      1.54      0.00
   10    8    4     -0.66      0.00
   11    8    4     -0.36      0.00
   12    8    4     -2.21      0.00
   13    8    4      0.85      0.00
   14    8    4     -0.16      0.00
  -15    9    4      0.84      0.00
  -14    9    4      1.63      0.00
  -13    9    4     -1.13      0.00
  -12    9    4     -2.19      0.00
  -11    9    4      1.63      0.00
  -10    9    4     -3.43      0.00
   -9    9    4      0.40      0.00
   -8    9    4      4.23      0.00
   -7    9    4      0.86      0.00
   -6    9    4      0.29      0.00
   -5    9    4      1.42      0.00
   -4    9    4     -0.18      0.00
   -3    9    4     -2.52      0.00
   -2    9    4     -3.04      0.00
   -1    9    4      7.57      0.00
    0    9    4      0.42      0.00
    1    9    4     -4.59      0.00
    2    9    4      2.49      0.00
    3    9    4     -5.40      0.00
    4    9    4     -1.41      0.00
    5    9    4      0.55      0.00
    6    9    4     -1.54      0.00
    7    9    4      0.00      0.00
    8    9    4      1.90      0.00
    9    9    4      2.55      0.00
   10    9    4     -0.38      0.00
   11    9    4     -0.65      0.00
   12    9    4      0.35      0.00
   13    9    4      0.11      0.00
  -14   10    4      0.32      0.00
  -13   10    4      0.67      0.00
  -12   10    4      0.77      0.00
  -11   10    4     -2.54      0.00
  -10   10    4      2.24      0.00
   -9   10    4     -2.25      0.00
   -8   10    4     -2.31      0.00
   -7   10    4      5.48      0.00
   -6   10    4      3.19      0.00
   -5   10    4     -4.29      0.00
   -4   10    4     -2.29      0.00
   -3   10    4      2.42      0.00
   -2   10    4      2.93      0.00
   -1   10    4     -4.94      0.00
    0   10    4      1.54      0.00
    1   10    4      8.00      0.00
    2   10    4     -5.44      0.00
    3   10    4     -3.43      0.00
    4   10    4      0.81      0.00
    5   10    4     -1.12      0.00
    6   10    4     -1.07      0.00
    7   10    4     -2.36      0.00
    8   10    4      0.39      0.00
    9   10    4      3.17      0.00
   10   10    4      0.19      0.00
   11   10    4     -1.35      0.00
   12   10    4     -0.96      0.00
  -12   11    4     -2.33      0.00
  -11   11    4      1.86      0.00
  -10   11    4     -1.86      0.00
   -9   11    4     -1.38      0.00
   -8   11    4      2.55      0.00
   -7   11    4      2.35      0.00
   -6   11    4     -0.43      0.00
   -5   11    4      0.86      0.00
   -4   11    4     -0.40      0.00
   -3   11    4     -1.42      0.00
   -2   11    4     -4.61      0.00
   -1   11    4      4.11      0.00
    0   11    4      3.55      0.00
    1   11    4     -1.17      0.00
    2   11    4      3.09      0.00
    3   11    4     -0.01      0.00
    4   11    4     -0.87      0.00
    5   11    4     -0.20      0.00
    6   11    4     -2.09      0.00
    7   11    4     -1.44      0.00
    8   11    4     -0.02      0.00
    9   11    4      0.90      0.00
   10   11    4      1.62      0.00
   11   11    4      0.52      0.00
  -11   12    4     -2.16      0.00
  -10   12    4      0.42      0.00
   -9   12    4     -1.01      0.00
   -8   12    4     -3.62      0.00
   -7   12    4      1.97      0.00
   -6   12    4      5.67      0.00
   -5   12    4     -1.10      0.00
   -4   12    4     -2.27      0.00
   -3   12    4     -3.53      0.00
   -2   12    4      4.44      0.00
   -1   12    4     -2.99      0.00
    0   12    4     -2.41      0.00
    1   12    4      5.63      0.00
    2   12    4      0.20      0.00
    3   12    4      0.49      0.00
    4   12    4      0.17      0.00
    5   12    4      0.91      0.00
    6   12    4      2.69      0.00
    7   12    4     -2.61      0.00
    8   12    4      0.92      0.00
    9   12    4      2.22      0.00
   -9   13    4     -3.53      0.00
   -8   13    4     -1.14      0.00
   -7   13    4      1.65      0.00
   -6   13    4      0.59      0.00
   -5   13    4      2.68      0.00
   -4   13    4     -0.77      0.00
   -3   13    4      1.15      0.00
   -2   13    4     -5.58      0.00
   -1   13    4     -2.13      0.00
    0   13    4      0.65      0.00
    1   13    4     -1.90      0.00
    2   13    4      1.18      0.00
    3   13    4     -0.07      0.00
    4   13    4      0.38      0.00
    5   13    4      1.79      0.00
    6   13    4     -0.64      0.00
    7   13    4      4.41      0.00
    8   13    4     -0.24      0.00
   -7   14    4     -1.13      0.00
   -6   14    4      2.83      0.00
   -5   14    4      1.35      0.00
   -4   14    4      1.21      0.00
   -3   14    4     -1.84      0.00
   -2   14    4      1.25      0.00
   -1   14    4     -0.12      0.00
    0   14    4     -5.37      0.00
    1   14    4     -2.28      0.00
    2   14    4      0.63      0.00
    3   14    4     -1.35      0.00
    4   14    4     -0.79      0.00
    5   14    4     -1.59      0.00
  -17    0    5      2.19      0.00
  -15    0    5      3.74      0.00
  -13    0    5     -6.23      0.00
  -11    0    5      0.92      0.00
   -9    0    5     -0.51      0.00
   -7    0    5      3.34      0.00
   -5    0    5     -3.73      0.00
   -3    0    5    -10.05      0.00
   -1    0    5     16.35      0.00
    1    0    5     15.40      0.00
    3    0    5    -17.88      0.00
    7    0    5     -4.53      0.00
    9    0    5      5.37      0.00
   11    0    5     -2.59      0.00
   13    0    5     -1.74      0.00
   15    0    5     -0.61      0.00
  -18    1    5      0.84      0.00
  -17    1    5     -0.07      0.00
  -16    1    5      3.84      0.00
  -15    1    5      1.36      0.00
  -14    1    5     -1.83      0.00
  -13    1    5     -0.05      0.00
  -12    1    5     -3.09      0.00
  -11    1    5     -0.34      0.00
  -10    1    5     -1.28      0.00
   -9    1    5     -2.44      0.00
   -8    1    5      4.93      0.00
   -7    1    5      6.92      0.00
   -6    1    5     -4.40      0.00
   -5    1    5     -0.79      0.00
   -4    1    5      8.39      0.00
   -3    1    5      2.97      0.00
   -2    1    5    -16.34      0.00
   -1    1    5    -26.54      0.00
    0    1    5     39.70      0.00
    1    1    5      7.89      0.00
    2    1    5    -25.17      0.00
    3    1    5     -2.08      0.00
    4    1    5     -4.04      0.00
    5    1    5      4.26      0.00
    6    1    5     -8.04      0.00
    7    1    5     -1.56      0.00
    8    1    5      6.20      0.00
    9    1    5      1.82      0.00
   10    1    5     -0.89      0.00
   11    1    5     -1.10      0.00
   12    1    5     -1.03      0.00
   13    1    5     -0.06      0.00
   14    1    5     -2.07      0.00
   15    1    5      0.34      0.00
   16    1    5     -0.58      0.00
  -18    2    5     -1.09      0.00
  -17    2    5      0.84      0.00
  -16    2    5      0.72      0.00
  -15    2    5      4.16      0.00
  -14    2    5      3.90      0.00
  -13    2    5     -4.20      0.00
  -12    2    5     -2.43      0.00
  -11    2    5     -1.79      0.00
  -10    2    5     -0.94      0.00
   -9    2    5     -2.72      0.00
   -8    2    5     -0.01      0.00
   -7    2    5      2.66      0.00
   -6    2    5      9.77      0.00
   -5    2    5      7.88      0.00
   -4    2    5     -1.91      0.00
   -3    2    5      6.62      0.00
   -2    2    5    -11.61      0.00
   -1    2    5     12.51      0.00
    0    2    5    -10.43      0.00
    1    2    5     -5.55      0.00
    2    2    5     17.69      0.00
    3    2    5    -21.99      0.00
    4    2    5     -3.10      0.00
    5    2    5     -2.91      0.00
    6    2    5      2.03      0.00
    7    2    5     -1.49      0.00
    8    2    5     -3.04      0.00
    9    2    5      6.78      0.00
   10    2    5      1.99      0.00
   11    2    5     -2.30      0.00
   12    2    5     -0.82      0.00
   13    2    5     -3.08      0.00
   14    2    5     -0.62      0.00
   15    2    5     -0.38      0.00
   16    2    5      0.02      0.00
  -18    3    5     -0.34      0.00
  -17    3    5     -0.75      0.00
  -16    3    5      1.77      0.00
  -15    3    5      2.97      0.00
  -14    3    5      0.98      0.00
  -13    3    5      0.68      0.00
  -12    3    5     -1.46      0.00
  -11    3    5     -1.79      0.00
  -10    3    5     -2.48      0.00
   -9    3    5     -5.30      0.00
   -8    3    5     -4.82      0.00
   -7    3    5      9.19      0.00
   -6    3    5      9.65      0.00
   -5    3    5     -6.41      0.00
   -4    3    5     13.61      0.00
   -3    3    5      7.05      0.00
   -2    3    5     10.95      0.00
   -1    3    5    -24.66      0.00
    1    3    5     32.55      0.00
    2    3    5    -19.68      0.00
    3    3    5     -1.56      0.00
    4    3    5    -10.58      0.00
    5    3    5      0.48      0.00
    6    3    5     -1.64      0.00
    7    3    5     -9.08      0.00
    8    3    5      4.41      0.00
    9    3    5      3.43      0.00
   10    3    5      3.01      0.00
   11    3    5      0.36      0.00
   12    3    5     -1.39      0.00
   13    3    5     -0.34      0.00
   14    3    5     -2.21      0.00
   15    3    5      0.41      0.00
   16    3    5      0.58      0.00
  -18    4    5     -1.18      0.00
  -17    4    5     -0.69      0.00
  -16    4    5     -0.89      0.00
  -15    4    5      0.80      0.00
  -14    4    5      4.32      0.00
  -13    4    5      0.85      0.00
  -12    4    5     -2.08      0.00
  -11    4    5     -0.69      0.00
  -10    4    5     -1.84      0.00
   -9    4    5     -4.52      0.00
   -8    4    5     -3.35      0.00
   -7    4    5     -1.38      0.00
   -6    4    5      1.20      0.00
   -5    4    5     15.84      0.00
   -4    4    5     -3.34      0.00
   -3    4    5      9.86      0.00
   -2    4    5     -1.62      0.00
   -1    4    5      9.87      0.00
    1    4    5    -15.36      0.00
    2    4    5     24.88      0.00
    3    4    5     -6.16      0.00
    4    4    5    -11.07      0.00
    5    4    5     -3.81      0.00
    6    4    5     -5.43      0.00
    7    4    5      1.68      0.00
    8    4    5     -5.60      0.00
    9    4    5      2.64      0.00
   10    4    5      5.63      0.00
   11    4    5      1.48      0.00
   12    4    5      0.59      0.00
   13    4    5     -1.28      0.00
   14    4    5     -0.19      0.00
   15    4    5     -1.27      0.00
   16    4    5      1.20      0.00
  -17    5    5     -0.16      0.00
  -16    5    5      0.20      0.00
  -15    5    5      1.83      0.00
  -14    5    5      1.47      0.00
  -13    5    5      1.56      0.00
  -12    5    5     -0.13      0.00
  -11    5    5     -0.63      0.00
  -10    5    5      1.19      0.00
   -9    5    5     -2.41      0.00
   -8    5    5     -9.54      0.00
   -7    5    5     -2.55      0.00
   -6    5    5     12.22      0.00
   -5    5    5     -4.76      0.00
   -4    5    5      0.67      0.00
   -3    5    5      6.68      0.00
   -2    5    5     13.21      0.00
   -1    5    5     -2.97      0.00
    0    5    5    -14.58      0.00
    1    5    5     34.46      0.00
    2    5    5      2.09      0.00
    3    5    5     -1.74      0.00
    4    5    5     -2.47      0.00
    5    5    5     -6.92      0.00
    6    5    5      3.20      0.00
    7    5    5     -9.75      0.00
    8    5    5     -2.04      0.00
    9    5    5      2.20      0.00
   10    5    5      2.58      0.00
   11    5    5      4.12      0.00
   12    5    5     -0.09      0.00
   13    5    5      1.65      0.00
   14    5    5     -2.34      0.00
   15    5    5      0.78      0.00
  -17    6    5     -0.22      0.00
  -16    6    5      0.71      0.00
  -15    6    5      0.88      0.00
  -14    6    5      2.87      0.00
  -13    6    5      3.80      0.00
  -12    6    5     -0.12      0.00
  -11    6    5     -0.25      0.00
  -10    6    5     -0.61      0.00
   -9    6    5     -1.32      0.00
   -8    6    5     -3.34      0.00
   -7    6    5     -2.33      0.00
   -6    6    5     -6.84      0.00
   -5    6    5      7.28      0.00
   -4    6    5      2.80      0.00
   -3    6    5     -1.00      0.00
   -2    6    5     -1.58      0.00
   -1    6    5     -1.30      0.00
    0    6    5     17.17      0.00
    1    6    5    -10.79      0.00
    2    6    5     13.33      0.00
    3    6    5     13.36      0.00
    4    6    5     -6.83      0.00
    5    6    5      1.14      0.00
    6    6    5     -6.72      0.00
    7    6    5      1.42      0.00
    8    6    5     -4.52      0.00
    9    6    5     -3.30      0.00
   10    6    5      5.06      0.00
   11    6    5      0.13      0.00
   12    6    5      2.71      0.00
   13    6    5      0.26      0.00
   14    6    5      1.35      0.00
   15    6    5     -2.17      0.00
  -16    7    5      0.63      0.00
  -15    7    5      0.00      0.00
  -14    7    5      1.40      0.00
  -13    7    5      1.37      0.00
  -12    7    5      2.07      0.00
  -11    7    5     -1.56      0.00
  -10    7    5      2.54      0.00
   -9    7    5      0.93      0.00
   -8    7    5     -5.14      0.00
   -7    7    5     -9.55      0.00
   -6    7    5      7.05      0.00
   -5    7    5      1.83      0.00
   -4    7    5     -5.88      0.00
   -3    7    5     -1.27      0.00
   -2    7    5      5.31      0.00
   -1    7    5      2.99      0.00
    0    7    5    -17.82      0.00
    1    7    5     10.56      0.00
    2    7    5     13.45      0.00
    3    7    5     -1.61      0.00
    4    7    5      4.64      0.00
    5    7    5     -4.59      0.00
    6    7    5      3.73      0.00
    7    7    5     -3.75      0.00
    8    7    5     -4.53      0.00
    9    7    5     -0.34      0.00
   10    7    5     -1.68      0.00
   11    7    5      2.85      0.00
   12    7    5      1.17      0.00
   13    7    5     -1.19      0.00
   14    7    5      0.77      0.00
  -15    8    5     -1.76      0.00
  -14    8    5     -0.50      0.00
  -13    8    5      1.74      0.00
  -12    8    5      0.96      0.00
  -11    8    5      0.30      0.00
  -10    8    5      0.49      0.00
   -9    8    5      0.33      0.00
   -8    8    5     -2.11      0.00
   -7    8    5     -0.89      0.00
   -6    8    5     -5.76      0.00
   -5    8    5      0.69      0.00
   -4    8    5      5.63      0.00
   -3    8    5     -0.27      0.00
   -2    8    5     -1.75      0.00
   -1    8    5     -6.73      0.00
    0    8    5      7.45      0.00
    1    8    5     -4.86      0.00
    2    8    5     -3.32      0.00
    3    8    5     11.94      0.00
    4    8    5     -1.78      0.00
    5    8    5      2.26      0.00
    6    8    5     -1.56      0.00
    7    8    5      1.30      0.00
    8    8    5     -0.95      0.00
    9    8    5     -4.70      0.00
   10    8    5      1.00      0.00
   11    8    5      0.64      0.00
   12    8    5     -2.48      0.00
   13    8    5      2.20      0.00
   14    8    5     -0.39      0.00
  -15    9    5      0.79      0.00
  -14    9    5     -1.16      0.00
  -13    9    5     -1.04      0.00
  -12    9    5      1.04      0.00
  -11    9    5      1.01      0.00
  -10    9    5     -1.43      0.00
   -9    9    5      3.90      0.00
   -8    9    5      0.49      0.00
   -7    9    5     -8.77      0.00
   -6    9    5      0.02      0.00
   -5    9    5      4.77      0.00
   -4    9    5     -1.11      0.00
   -3    9    5     -1.53      0.00
   -2    9    5      0.50      0.00
   -1    9    5      6.69      0.00
    0    9    5     -8.98      0.00
    1    9    5     -4.42      0.00
    2    9    5      7.55      0.00
    3    9    5     -1.45      0.00
    4    9    5      2.85      0.00
    5    9    5     -0.94      0.00
    6    9    5      2.00      0.00
    7    9    5      2.50      0.00
    8    9    5     -1.46      0.00
    9    9    5     -1.91      0.00
   10    9    5     -1.02      0.00
   11    9    5      1.41      0.00
   12    9    5      1.39      0.00
   13    9    5     -1.33      0.00
  -14   10    5     -1.95      0.00
  -13   10    5      0.72      0.00
  -12   10    5      1.35      0.00
  -11   10    5     -1.62      0.00
  -10   10    5      1.72      0.00
   -9   10    5     -0.69      0.00
   -8   10    5     -2.07      0.00
   -7   10    5      0.72      0.00
   -6   10    5     -3.37      0.00
   -5   10    5     -1.98      0.00
   -4   10    5      3.47      0.00
   -3   10    5      3.91      0.00
   -2   10    5      0.59      0.00
   -1   10    5     -4.86      0.00
    0   10    5      1.50      0.00
    1   10    5     -0.08      0.00
    2   10    5     -7.15      0.00
    3   10    5      3.32      0.00
    4   10    5      0.92      0.00
    5   10    5     -0.10      0.00
    6   10    5      1.38      0.00
    7   10    5      1.82      0.00
    8   10    5      0.82      0.00
    9   10    5     -2.15      0.00
   10   10    5     -0.81      0.00
   11   10    5     -0.40      0.00
   12   10    5     -0.23      0.00
  -12   11    5      0.19      0.00
  -11   11    5      2.62      0.00
  -10   11    5     -2.75      0.00
   -9   11    5      2.33      0.00
   -8   11    5      3.72      0.00
   -7   11    5     -4.80      0.00
   -6   11    5     -5.04      0.00
   -5   11    5      2.42      0.00
   -4   11    5      2.25      0.00
   -3   11    5      0.51      0.00
   -2   11    5     -0.33      0.00
   -1   11    5      4.75      0.00
    0   11    5     -0.86      0.00
    1   11    5     -6.06      0.00
    2   11    5      1.80      0.00
    3   11    5     -1.19      0.00
    4   11    5     -1.31      0.00
    5   11    5     -1.26      0.00
    6   11    5     -0.81      0.00
    7   11    5      2.20      0.00
    8   11    5      0.01      0.00
    9   11    5     -2.71      0.00
   10   11    5     -1.84      0.00
   11   11    5     -1.11      0.00
  -11   12    5      0.19      0.00
  -10   12    5      2.75      0.00
   -9   12    5      1.02      0.00
   -8   12    5      0.68      0.00
   -7   12    5      0.50      0.00
   -6   12    5     -1.21      0.00
   -5   12    5     -4.58      0.00
   -4   12    5      0.33      0.00
   -3   12    5      3.12      0.00
   -2   12    5      5.56      0.00
   -1   12    5     -2.01      0.00
    0   12    5      1.15      0.00
    1   12    5      3.87      0.00
    2   12    5     -3.79      0.00
    3   12    5      0.27      0.00
    4   12    5     -1.29      0.00
    5   12    5     -0.74      0.00
    6   12    5     -0.99      0.00
    7   12    5     -2.67      0.00
    8   12    5      0.96      0.00
    9   12    5     -1.15      0.00
   -9   13    5      1.23      0.00
   -8   13    5      4.19      0.00
   -7   13    5      0.99      0.00
   -6   13    5     -4.33      0.00
   -5   13    5     -1.33      0.00
   -4   13    5     -1.68      0.00
   -3   13    5      1.96      0.00
   -2   13    5     -2.47      0.00
   -1   13    5      3.58      0.00
    0   13    5      5.76      0.00
    1   13    5     -0.28      0.00
    2   13    5      3.00      0.00
    3   13    5     -0.67      0.00
    4   13    5      1.71      0.00
    5   13    5     -0.37      0.00
    6   13    5     -3.38      0.00
    7   13    5      1.56      0.00
   -6   14    5      0.03      0.00
   -5   14    5     -3.63      0.00
   -4   14    5     -2.02      0.00
   -3   14    5     -2.36      0.00
   -2   14    5      2.37      0.00
   -1   14    5      0.49      0.00
    0   14    5      0.18      0.00
    1   14    5      4.05      0.00
    2   14    5      0.27      0.00
    3   14    5      0.34      0.00
    4   14    5      0.39      0.00
    5   14    5      1.36      0.00
  -18    0    6     -1.05      0.00
  -16    0    6     -4.34      0.00
  -14    0    6     -1.86      0.00
  -12    0    6      5.04      0.00
  -10    0    6      1.56      0.00
   -8    0    6     -4.15      0.00
   -6    0    6     -2.54      0.00
   -4    0    6     -7.10      0.00
   -2    0    6     20.58      0.00
    0    0    6    -25.02      0.00
    2    0    6      9.74      0.00
    4    0    6      5.01      0.00
    6    0    6      3.27      0.00
    8    0    6     -4.19      0.00
   10    0    6     -1.33      0.00
   12    0    6      0.68      0.00
   14    0    6      2.72      0.00
   16    0    6      1.87      0.00
  -18    1    6      1.10      0.00
  -17    1    6     -1.56      0.00
  -16    1    6      0.11      0.00
  -15    1    6     -6.68      0.00
  -14    1    6     -2.64      0.00
  -13    1    6      5.05      0.00
  -12    1    6      1.16      0.00
  -11    1    6      1.36      0.00
  -10    1    6      0.76      0.00
   -9    1    6      3.98      0.00
   -8    1    6      3.99      0.00
   -7    1    6     -9.59      0.00
   -6    1    6    -10.25      0.00
   -5    1    6      0.21      0.00
   -4    1    6     -2.82      0.00
   -3    1    6     -6.21      0.00
   -2    1    6     -3.68      0.00
   -1    1    6      5.99      0.00
    0    1    6     17.05      0.00
    1    1    6    -19.34      0.00
    2    1    6     -5.51      0.00
    3    1    6     18.86      0.00
    4    1    6      4.30      0.00
    5    1    6     -1.50      0.00
    6    1    6     -2.77      0.00
    7    1    6      5.62      0.00
    8    1    6      0.88      0.00
    9    1    6     -7.03      0.00
   10    1    6     -1.98      0.00
   11    1    6      2.33      0.00
   12    1    6      0.51      0.00
   13    1    6      2.04      0.00
   14    1    6      0.18      0.00
   15    1    6      1.58      0.00
   16    1    6     -0.20      0.00
  -18    2    6     -0.21      0.00
  -17    2    6      1.19      0.00
  -16    2    6     -3.05      0.00
  -15    2    6     -1.74      0.00
  -14    2    6     -2.39      0.00
  -13    2    6     -3.63      0.00
  -12    2    6      4.24      0.00
  -11    2    6      1.87      0.00
  -10    2    6      3.15      0.00
   -9    2    6      5.49      0.00
   -8    2    6      1.06      0.00
   -7    2    6     -5.70      0.00
   -6    2    6     -4.06      0.00
   -5    2    6     -6.99      0.00
   -4    2    6     -9.67      0.00
   -3    2    6    -11.10      0.00
   -2    2    6     -1.46      0.00
   -1    2    6     17.79      0.00
    0    2    6    -20.98      0.00
    1    2    6     -6.37      0.00
    2    2    6      9.70      0.00
    3    2    6     -2.24      0.00
    4    2    6     10.96      0.00
    5    2    6     -0.29      0.00
    6    2    6      5.56      0.00
    7    2    6      3.23      0.00
    8    2    6     -2.35      0.00
    9    2    6     -1.21      0.00
   10    2    6     -3.12      0.00
   11    2    6     -0.89      0.00
   12    2    6      1.43      0.00
   13    2    6     -0.25      0.00
   14    2    6      2.88      0.00
   15    2    6      0.24      0.00
   16    2    6     -0.17      0.00
  -18    3    6      0.97      0.00
  -17    3    6      0.92      0.00
  -16    3    6      1.88      0.00
  -15    3    6     -3.11      0.00
  -14    3    6     -5.51      0.00
  -13    3    6      1.36      0.00
  -12    3    6      0.74      0.00
  -11    3    6      1.90      0.00
  -10    3    6      0.73      0.00
   -9    3    6      4.66      0.00
   -8    3    6      7.68      0.00
   -7    3    6      3.49      0.00
   -6    3    6    -12.35      0.00
   -5    3    6     -9.57      0.00
   -4    3    6      3.81      0.00
   -3    3    6    -11.04      0.00
   -2    3    6     -7.32      0.00
   -1    3    6    -15.20      0.00
    1    3    6     -3.20      0.00
    2    3    6    -25.94      0.00
    3    3    6     12.17      0.00
    4    3    6      6.49      0.00
    5    3    6      7.43      0.00
    6    3    6     -1.08      0.00
    7    3    6      2.55      0.00
    8    3    6      7.97      0.00
    9    3    6     -4.95      0.00
   10    3    6     -4.58      0.00
   11    3    6     -1.07      0.00
   12    3    6     -0.84      0.00
   13    3    6      1.44      0.00
   14    3    6      0.56      0.00
   15    3    6      0.27      0.00
   16    3    6     -0.10      0.00
  -18    4    6     -0.05      0.00
  -17    4    6      1.33      0.00
  -16    4    6     -0.35      0.00
  -15    4    6      0.23      0.00
  -14    4    6     -0.35      0.00
  -13    4    6     -3.31      0.00
  -12    4    6      0.18      0.00
  -11    4    6      1.08      0.00
  -10    4    6     -0.26      0.00
   -9    4    6      3.91      0.00
   -8    4    6      8.95      0.00
   -7    4    6     -0.12      0.00
   -6    4    6     -4.38      0.00
   -5    4    6      2.22      0.00
   -4    4    6     -8.77      0.00
   -3    4    6     -2.78      0.00
   -2    4    6    -14.47      0.00
   -1    4    6     12.18      0.00
    0    4    6     -8.37      0.00
    1    4    6    -21.62      0.00
    2    4    6      5.12      0.00
    3    4    6    -10.51      0.00
    4    4    6      7.10      0.00
    5    4    6      2.67      0.00
    6    4    6      2.21      0.00
    7    4    6      7.82      0.00
    8    4    6     -0.50      0.00
    9    4    6      0.91      0.00
   10    4    6     -3.49      0.00
   11    4    6     -3.67      0.00
   12    4    6     -0.93      0.00
   13    4    6     -0.93      0.00
   14    4    6      0.85      0.00
   15    4    6      1.03      0.00
  -17    5    6     -0.29      0.00
  -16    5    6      0.66      0.00
  -15    5    6      0.16      0.00
  -14    5    6     -4.09      0.00
  -13    5    6     -1.48      0.00
  -12    5    6      0.21      0.00
  -11    5    6      0.93      0.00
  -10    5    6     -0.28      0.00
   -9    5    6     -0.14      0.00
   -8    5    6      3.74      0.00
   -7    5    6      9.50      0.00
   -6    5    6      2.44      0.00
   -5    5    6    -12.89      0.00
   -4    5    6      4.81      0.00
   -3    5    6      0.25      0.00
   -2    5    6      0.32      0.00
   -1    5    6    -13.23      0.00
    0    5    6     -1.41      0.00
    1    5    6     12.94      0.00
    2    5    6    -27.64      0.00
    3    5    6     -5.66      0.00
    4    5    6      2.12      0.00
    5    5    6      3.03      0.00
    6    5    6      2.74      0.00
    7    5    6     -2.81      0.00
    8    5    6      7.72      0.00
    9    5    6      1.53      0.00
   10    5    6     -3.56      0.00
   11    5    6     -2.14      0.00
   12    5    6     -2.57      0.00
   13    5    6     -0.21      0.00
   14    5    6     -0.36      0.00
   15    5    6      2.33      0.00
  -17    6    6     -0.10      0.00
  -16    6    6     -0.50      0.00
  -15    6    6     -0.70      0.00
  -14    6    6      0.00      0.00
  -13    6    6     -2.87      0.00
  -12    6    6     -1.51      0.00
  -11    6    6      0.74      0.00
  -10    6    6     -1.53      0.00
   -9    6    6     -0.90      0.00
   -8    6    6      7.15      0.00
   -7    6    6      5.62      0.00
   -6    6    6     -4.86      0.00
   -5    6    6      4.95      0.00
   -4    6    6     -0.26      0.00
   -3    6    6     -0.46      0.00
   -2    6    6     -5.17      0.00
   -1    6    6      5.58      0.00
    0    6    6     11.77      0.00
    1    6    6    -20.03      0.00
    2    6    6      1.45      0.00
    3    6    6     -6.87      0.00
    4    6    6     -4.39      0.00
    5    6    6      2.75      0.00
    6    6    6     -3.30      0.00
    7    6    6      6.22      0.00
    8    6    6      0.82      0.00
    9    6    6      2.72      0.00
   10    6    6      0.98      0.00
   11    6    6     -4.34      0.00
   12    6    6      0.70      0.00
   13    6    6     -1.83      0.00
   14    6    6      1.33      0.00
   15    6    6     -0.93      0.00
  -16    7    6      0.92      0.00
  -15    7    6      1.25      0.00
  -14    7    6      0.13      0.00
  -13    7    6     -2.48      0.00
  -12    7    6     -0.65      0.00
  -11    7    6     -0.36      0.00
  -10    7    6      1.35      0.00
   -9    7    6     -2.24      0.00
   -8    7    6     -0.16      0.00
   -7    7    6      5.13      0.00
   -6    7    6      9.94      0.00
   -5    7    6     -7.97      0.00
   -4    7    6     -3.75      0.00
   -3    7    6      3.56      0.00
   -2    7    6      4.85      0.00
   -1    7    6     -0.94      0.00
    0    7    6     -7.34      0.00
    1    7    6     17.24      0.00
    2    7    6     -6.47      0.00
    3    7    6    -10.32      0.00
    4    7    6      1.39      0.00
    5    7    6     -1.97      0.00
    6    7    6      3.41      0.00
    7    7    6     -4.52      0.00
    8    7    6      3.69      0.00
    9    7    6      4.36      0.00
   10    7    6     -1.76      0.00
   11    7    6      1.62      0.00
   12    7    6     -1.06      0.00
   13    7    6     -0.45      0.00
   14    7    6     -0.51      0.00
  -15    8    6      0.13      0.00
  -14    8    6      2.27      0.00
  -13    8    6      0.37      0.00
  -12    8    6     -2.63      0.00
  -11    8    6      0.82      0.00
  -10    8    6     -1.21      0.00
   -9    8    6     -2.53      0.00
   -8    8    6      1.85      0.00
   -7    8    6      7.68      0.00
   -6    8    6     -1.95      0.00
   -5    8    6      0.12      0.00
   -4    8    6      1.37      0.00
   -3    8    6     -2.28      0.00
   -2    8    6     -2.66      0.00
   -1    8    6     -1.95      0.00
    0    8    6     12.67      0.00
    1    8    6     -4.90      0.00
    2    8    6     -0.74      0.00
    3    8    6      2.35      0.00
    4    8    6     -5.62      0.00
    5    8    6      2.80      0.00
    6    8    6     -4.01      0.00
    7    8    6      0.66      0.00
    8    8    6      0.06      0.00
    9    8    6      1.14      0.00
   10    8    6      2.39      0.00
   11    8    6     -2.09      0.00
   12    8    6     -1.19      0.00
   13    8    6      2.84      0.00
  -15    9    6      0.28      0.00
  -14    9    6     -0.01      0.00
  -13    9    6     -0.74      0.00
  -12    9    6     -0.75      0.00
  -11    9    6     -0.29      0.00
  -10    9    6      0.53      0.00
   -9    9    6      1.01      0.00
   -8    9    6     -1.22      0.00
   -7    9    6      0.29      0.00
   -6    9    6      8.44      0.00
   -5    9    6      0.45      0.00
   -4    9    6     -7.17      0.00
   -3    9    6     -0.64      0.00
   -2    9    6      0.81      0.00
   -1    9    6      3.50      0.00
    0    9    6     -7.82      0.00
    1    9    6      8.04      0.00
    2    9    6      5.72      0.00
    3    9    6     -6.67      0.00
    4    9    6      2.19      0.00
    5    9    6     -2.42      0.00
    6    9    6      1.83      0.00
    7    9    6     -3.28      0.00
    8    9    6     -1.26      0.00
    9    9    6      2.90      0.00
   10    9    6      0.21      0.00
   11    9    6     -0.33      0.00
   12    9    6      0.36      0.00
  -14   10    6      0.11      0.00
  -13   10    6      1.93      0.00
  -12   10    6     -2.39      0.00
  -11   10    6     -1.23      0.00
  -10   10    6      2.24      0.00
   -9   10    6     -2.61      0.00
   -8   10    6     -1.78      0.00
   -7   10    6      7.10      0.00
   -6   10    6      1.54      0.00
   -5   10    6     -0.50      0.00
   -4   10    6      0.72      0.00
   -3   10    6     -2.59      0.00
   -2   10    6     -2.82      0.00
   -1   10    6     -4.48      0.00
    0   10    6      5.46      0.00
    1   10    6      1.43      0.00
    2   10    6     -2.14      0.00
    3   10    6      4.77      0.00
    4   10    6     -1.49      0.00
    5   10    6      2.68      0.00
    6   10    6     -0.41      0.00
    7   10    6     -1.44      0.00
    8   10    6     -0.27      0.00
    9   10    6      1.85      0.00
   10   10    6      2.74      0.00
   11   10    6     -1.02      0.00
  -12   11    6     -1.43      0.00
  -11   11    6     -1.32      0.00
  -10   11    6     -1.78      0.00
   -9   11    6      0.63      0.00
   -8   11    6     -0.55      0.00
   -7   11    6     -3.39      0.00
   -6   11    6      4.60      0.00
   -5   11    6      5.98      0.00
   -4   11    6     -2.50      0.00
   -3   11    6     -4.74      0.00
   -2   11    6     -2.09      0.00
   -1   11    6      1.78      0.00
    0   11    6     -4.65      0.00
    1   11    6     -1.50      0.00
    2   11    6      5.15      0.00
    3   11    6     -1.55      0.00
    4   11    6      1.17      0.00
    5   11    6      1.09      0.00
    6   11    6      2.45      0.00
    7   11    6      0.52      0.00
    8   11    6     -1.02      0.00
    9   11    6      1.91      0.00
   10   11    6      1.80      0.00
  -11   12    6     -2.43      0.00
  -10   12    6      1.56      0.00
   -9   12    6     -2.69      0.00
   -8   12    6     -4.60      0.00
   -7   12    6      0.61      0.00
   -6   12    6      3.57      0.00
   -5   12    6      0.99      0.00
   -4   12    6      3.54      0.00
   -3   12    6     -0.36      0.00
   -2   12    6     -1.46      0.00
   -1   12    6     -5.24      0.00
    0   12    6     -1.71      0.00
    1   12    6     -0.46      0.00
    2   12    6     -4.17      0.00
    3   12    6      0.63      0.00
    4   12    6     -0.49      0.00
    5   12    6      1.79      0.00
    6   12    6      1.69      0.00
    7   12    6     -0.12      0.00
    8   12    6      1.08      0.00
    9   12    6      0.38      0.00
   -9   13    6      1.76      0.00
   -8   13    6     -0.93      0.00
   -7   13    6     -2.58      0.00
   -6   13    6     -0.53      0.00
   -5   13    6      6.01      0.00
   -4   13    6      2.64      0.00
   -3   13    6      0.86      0.00
   -2   13    6     -2.97      0.00
   -1   13    6      2.05      0.00
    0   13    6     -1.30      0.00
    1   13    6     -6.21      0.00
    2   13    6      0.78      0.00
    3   13    6     -2.23      0.00
    4   13    6      0.07      0.00
    5   13    6     -2.28      0.00
    6   13    6     -0.26      0.00
    7   13    6      2.95      0.00
   -6   14    6      1.34      0.00
   -5   14    6      0.55      0.00
   -4   14    6      3.95      0.00
   -3   14    6      1.12      0.00
   -2   14    6      2.68      0.00
   -1   14    6      0.21      0.00
    0   14    6     -2.55      0.00
    1   14    6      0.28      0.00
    2   14    6     -2.73      0.00
    3   14    6      1.79      0.00
    4   14    6     -0.66      0.00
  -17    0    7      0.70      0.00
  -15    0    7      7.46      0.00
  -13    0    7     -2.02      0.00
  -11    0    7     -2.64      0.00
   -9    0    7     -7.59      0.00
   -7    0    7     12.13      0.00
   -5    0    7      4.91      0.00
   -3    0    7     13.39      0.00
   -1    0    7    -17.75      0.00
    1    0    7     20.11      0.00
    3    0    7    -15.99      0.00
    5    0    7      1.95      0.00
    7    0    7     -4.93      0.00
    9    0    7      7.22      0.00
   11    0    7     -1.46      0.00
   13    0    7     -1.10      0.00
   15    0    7     -2.76      0.00
  -18    1    7      0.53      0.00
  -17    1    7     -1.32      0.00
  -16    1    7      2.69      0.00
  -15    1    7     -0.10      0.00
  -14    1    7      6.58      0.00
  -13    1    7      2.72      0.00
  -12    1    7     -5.46      0.00
  -11    1    7     -2.01      0.00
  -10    1    7     -2.51      0.00
   -9    1    7     -2.80      0.00
   -8    1    7     -2.83      0.00
   -7    1    7     -2.11      0.00
   -6    1    7     11.68      0.00
   -5    1    7      8.33      0.00
   -4    1    7      7.11      0.00
   -3    1    7      7.27      0.00
   -2    1    7     -0.80      0.00
   -1    1    7      0.01      0.00
    0    1    7      8.92      0.00
    1    1    7     -3.92      0.00
    2    1    7      3.15      0.00
    3    1    7      1.54      0.00
    4    1    7    -10.89      0.00
    5    1    7     -3.41      0.00
    6    1    7     -1.58      0.00
    7    1    7     -1.07      0.00
    8    1    7     -0.31      0.00
    9    1    7      0.01      0.00
   10    1    7      3.74      0.00
   11    1    7      0.83      0.00
   12    1    7     -1.34      0.00
   13    1    7      0.28      0.00
   14    1    7     -3.24      0.00
   15    1    7      0.64      0.00
   16    1    7     -2.09      0.00
  -18    2    7     -1.48      0.00
  -17    2    7     -0.44      0.00
  -16    2    7     -2.30      0.00
  -15    2    7      5.78      0.00
  -14    2    7      3.61      0.00
  -13    2    7     -1.00      0.00
  -12    2    7      0.99      0.00
  -11    2    7     -2.55      0.00
  -10    2    7     -0.78      0.00
   -9    2    7     -5.81      0.00
   -8    2    7    -11.28      0.00
   -7    2    7      2.48      0.00
   -6    2    7     10.33      0.00
   -5    2    7      4.11      0.00
   -4    2    7      2.92      0.00
   -3    2    7     10.00      0.00
   -2    2    7     16.02      0.00
   -1    2    7      1.48      0.00
    0    2    7    -15.38      0.00
    1    2    7     18.79      0.00
    2    2    7     13.05      0.00
    3    2    7     -9.51      0.00
    4    2    7     -6.04      0.00
    5    2    7     -3.97      0.00
    6    2    7      1.00      0.00
    7    2    7     -6.78      0.00
    8    2    7     -5.24      0.00
    9    2    7      4.25      0.00
   10    2    7      3.05      0.00
   11    2    7      0.11      0.00
   12    2    7      0.94      0.00
   13    2    7     -1.34      0.00
   14    2    7      1.10      0.00
   15    2    7     -1.86      0.00
  -18    3    7     -0.22      0.00
  -17    3    7     -1.54      0.00
  -16    3    7     -0.16      0.00
  -15    3    7     -2.69      0.00
  -14    3    7      2.13      0.00
  -13    3    7      5.80      0.00
  -12    3    7     -2.47      0.00
  -11    3    7     -0.81      0.00
  -10    3    7     -1.46      0.00
   -9    3    7     -3.17      0.00
   -8    3    7     -6.62      0.00
   -7    3    7     -5.91      0.00
   -6    3    7     -0.69      0.00
   -5    3    7      8.75      0.00
   -4    3    7      5.14      0.00
   -3    3    7      2.94      0.00
   -2    3    7      7.08      0.00
   -1    3    7     -1.70      0.00
    0    3    7     16.62      0.00
    1    3    7      0.91      0.00
    2    3    7      2.79      0.00
    3    3    7     13.69      0.00
    4    3    7     -7.70      0.00
    5    3    7     -3.41      0.00
    6    3    7     -4.77      0.00
    7    3    7     -2.95      0.00
    8    3    7     -0.50      0.00
    9    3    7     -3.68      0.00
   10    3    7      4.18      0.00
   11    3    7      3.90      0.00
   12    3    7      0.71      0.00
   13    3    7      2.46      0.00
   14    3    7     -1.41      0.00
   15    3    7     -0.75      0.00
  -18    4    7     -0.21      0.00
  -17    4    7     -0.60      0.00
  -16    4    7     -2.81      0.00
  -15    4    7      1.10      0.00
  -14    4    7      2.44      0.00
  -13    4    7     -0.61      0.00
  -12    4    7      0.98      0.00
  -11    4    7     -1.03      0.00
  -10    4    7      1.28      0.00
   -9    4    7      0.45      0.00
   -8    4    7     -7.63      0.00
   -7    4    7    -11.15      0.00
   -6    4    7      3.56      0.00
   -5    4    7      6.58      0.00
   -4    4    7     -5.37      0.00
   -3    4    7      1.86      0.00
   -2    4    7      4.17      0.00
   -1    4    7     15.02      0.00
    0    4    7    -15.36      0.00
    1    4    7      3.73      0.00
    2    4    7     24.00      0.00
    3    4    7      1.22      0.00
    4    4    7      2.15      0.00
    5    4    7     -5.08      0.00
    6    4    7      2.17      0.00
    7    4    7      0.26      0.00
    8    4    7     -8.71      0.00
    9    4    7      0.71      0.00
   10    4    7      2.10      0.00
   11    4    7      2.92      0.00
   12    4    7      2.72      0.00
   13    4    7      0.81      0.00
   14    4    7      0.31      0.00
   15    4    7     -0.35      0.00
  -17    5    7     -0.58      0.00
  -16    5    7      1.72      0.00
  -15    5    7     -1.36      0.00
  -14    5    7     -0.77      0.00
  -13    5    7      4.65      0.00
  -12    5    7      0.76      0.00
  -11    5    7     -0.97      0.00
  -10    5    7      0.84      0.00
   -9    5    7      0.26      0.00
   -8    5    7     -4.73      0.00
   -7    5    7     -4.26      0.00
   -6    5    7     -4.32      0.00
   -5    5    7     -2.54      0.00
   -4    5    7      6.68      0.00
   -3    5    7     -3.18      0.00
   -2    5    7      2.79      0.00
   -1    5    7    -11.19      0.00
    0    5    7      7.02      0.00
    1    5    7      7.21      0.00
    2    5    7     -6.28      0.00
    3    5    7     16.10      0.00
    4    5    7      2.32      0.00
    5    5    7      0.42      0.00
    6    5    7     -0.77      0.00
    7    5    7     -3.39      0.00
    8    5    7      1.07      0.00
    9    5    7     -5.05      0.00
   10    5    7      0.22      0.00
   11    5    7      3.33      0.00
   12    5    7      1.44      0.00
   13    5    7      1.77      0.00
   14    5    7      0.66      0.00
   15    5    7     -1.48      0.00
  -17    6    7     -0.76      0.00
  -16    6    7     -0.92      0.00
  -15    6    7     -0.86      0.00
  -14    6    7      1.87      0.00
  -13    6    7      0.64      0.00
  -12    6    7      2.31      0.00
  -11    6    7     -0.85      0.00
  -10    6    7     -0.35      0.00
   -9    6    7      3.30      0.00
   -8    6    7      0.50      0.00
   -7    6    7    -10.66      0.00
   -6    6    7     -6.51      0.00
   -5    6    7      9.39      0.00
   -4    6    7     -1.94      0.00
   -3    6    7     -2.93      0.00
   -2    6    7     -3.88      0.00
   -1    6    7      8.32      0.00
    0    6    7     -5.08      0.00
    1    6    7    -16.67      0.00
    2    6    7     15.08      0.00
    3    6    7      3.20      0.00
    4    6    7      2.18      0.00
    5    6    7     -0.50      0.00
    6    6    7     -0.87      0.00
    7    6    7      4.30      0.00
    8    6    7     -5.85      0.00
    9    6    7     -2.27      0.00
   10    6    7     -0.36      0.00
   11    6    7     -0.13      0.00
   12    6    7      2.72      0.00
   13    6    7      0.03      0.00
   14    6    7      1.25      0.00
  -16    7    7     -0.34      0.00
  -15    7    7     -1.04      0.00
  -14    7    7     -2.84      0.00
  -13    7    7      1.27      0.00
  -12    7    7      2.88      0.00
  -11    7    7      0.28      0.00
  -10    7    7      0.90      0.00
   -9    7    7      1.12      0.00
   -8    7    7     -1.64      0.00
   -7    7    7     -3.91      0.00
   -6    7    7     -0.87      0.00
   -5    7    7     -6.71      0.00
   -4    7    7      5.41      0.00
   -3    7    7      3.00      0.00
   -2    7    7      2.37      0.00
   -1    7    7     -6.15      0.00
    0    7    7     -5.78      0.00
    1    7    7      8.90      0.00
    2    7    7    -10.56      0.00
    3    7    7      3.05      0.00
    4    7    7      4.22      0.00
    5    7    7     -0.95      0.00
    6    7    7      2.07      0.00
    7    7    7     -2.71      0.00
    8    7    7      3.02      0.00
    9    7    7     -3.23      0.00
   10    7    7     -2.48      0.00
   11    7    7      3.06      0.00
   12    7    7     -1.42      0.00
   13    7    7      0.84      0.00
   14    7    7     -0.05      0.00
  -15    8    7     -0.23      0.00
  -14    8    7      0.22      0.00
  -13    8    7      0.11      0.00
  -12    8    7      1.31      0.00
  -11    8    7      1.81      0.00
  -10    8    7     -2.56      0.00
   -9    8    7      1.96      0.00
   -8    8    7      3.15      0.00
   -7    8    7     -3.70      0.00
   -6    8    7    -10.76      0.00
   -5    8    7      3.98      0.00
   -4    8    7      3.97      0.00
   -3    8    7     -0.17      0.00
   -2    8    7     -1.74      0.00
   -1    8    7      2.95      0.00
    0    8    7      5.79      0.00
    1    8    7    -14.23      0.00
    2    8    7      1.95      0.00
    3    8    7      2.73      0.00
    4    8    7     -0.95      0.00
    5    8    7      1.75      0.00
    6    8    7     -2.63      0.00
    7    8    7      4.97      0.00
    8    8    7     -1.01      0.00
    9    8    7     -1.94      0.00
   10    8    7      0.14      0.00
   11    8    7     -0.50      0.00
   12    8    7      1.49      0.00
   13    8    7      1.92      0.00
  -14    9    7     -2.36      0.00
  -13    9    7      0.09      0.00
  -12    9    7      2.91      0.00
  -11    9    7      0.87      0.00
  -10    9    7     -0.04      0.00
   -9    9    7      1.21      0.00
   -8    9    7     -0.80      0.00
   -7    9    7     -3.70      0.00
   -6    9    7     -1.07      0.00
   -5    9    7     -4.49      0.00
   -4    9    7     -1.07      0.00
   -3    9    7      6.62      0.00
   -2    9    7      2.82      0.00
   -1    9    7      1.73      0.00
    0    9    7     -6.35      0.00
    1    9    7      6.29      0.00
    2    9    7     -4.10      0.00
    3    9    7     -4.19      0.00
    4    9    7      3.56      0.00
    5    9    7     -3.46      0.00
    6    9    7      1.95      0.00
    7    9    7     -1.39      0.00
    8    9    7      1.75      0.00
    9    9    7     -1.33      0.00
   10    9    7     -1.95      0.00
   11    9    7      1.15      0.00
   12    9    7      1.65      0.00
  -13   10    7     -0.10      0.00
  -12   10    7      0.77      0.00
  -11   10    7      2.91      0.00
  -10   10    7      0.34      0.00
   -9   10    7     -1.42      0.00
   -8   10    7      3.21      0.00
   -7   10    7      2.58      0.00
   -6   10    7     -8.36      0.00
   -5   10    7     -3.87      0.00
   -4   10    7      3.28      0.00
   -3   10    7      1.41      0.00
   -2   10    7      2.07      0.00
   -1   10    7      0.31      0.00
    0   10    7      7.88      0.00
    1   10    7     -4.30      0.00
    2   10    7     -2.99      0.00
    3   10    7      3.43      0.00
    4   10    7     -3.58      0.00
    5   10    7      1.11      0.00
    6   10    7     -4.68      0.00
    7   10    7      1.27      0.00
    8   10    7      0.66      0.00
    9   10    7     -1.61      0.00
   10   10    7     -2.60      0.00
   11   10    7     -2.34      0.00
  -12   11    7      2.35      0.00
  -11   11    7      1.79      0.00
  -10   11    7      0.58      0.00
   -9   11    7      2.62      0.00
   -8   11    7      3.71      0.00
   -7   11    7     -2.15      0.00
   -6   11    7      0.38      0.00
   -5   11    7     -3.78      0.00
   -4   11    7     -6.19      0.00
   -3   11    7      1.79      0.00
   -2   11    7      4.56      0.00
   -1   11    7      3.79      0.00
    0   11    7     -1.76      0.00
    1   11    7      3.45      0.00
    2   11    7      3.62      0.00
    3   11    7     -2.74      0.00
    4   11    7      1.60      0.00
    5   11    7     -3.03      0.00
    6   11    7     -0.38      0.00
    7   11    7     -1.51      0.00
    8   11    7      0.59      0.00
    9   11    7     -0.96      0.00
  -11   12    7      1.97      0.00
  -10   12    7      0.37      0.00
   -9   12    7     -1.60      0.00
   -8   12    7      1.39      0.00
   -7   12    7      5.91      0.00
   -6   12    7     -1.15      0.00
   -5   12    7     -6.77      0.00
   -4   12    7     -1.87      0.00
   -3   12    7     -1.40      0.00
   -2   12    7      1.21      0.00
   -1   12    7     -1.58      0.00
    0   12    7      4.20      0.00
    1   12    7      3.27      0.00
    2   12    7     -0.31      0.00
    3   12    7      3.02      0.00
    4   12    7      0.78      0.00
    5   12    7      1.89      0.00
    6   12    7     -2.07      0.00
    7   12    7     -0.62      0.00
    8   12    7      1.06      0.00
   -9   13    7      0.07      0.00
   -8   13    7      0.78      0.00
   -7   13    7      0.82      0.00
   -6   13    7      0.28      0.00
   -5   13    7      0.10      0.00
   -4   13    7     -7.15      0.00
   -3   13    7     -1.90      0.00
   -2   13    7     -1.02      0.00
   -1   13    7      1.86      0.00
    0   13    7     -0.59      0.00
    1   13    7      0.15      0.00
    2   13    7      3.76      0.00
    3   13    7     -0.86      0.00
    4   13    7      0.96      0.00
    5   13    7      0.21      0.00
    6   13    7      1.24      0.00
   -6   14    7      2.58      0.00
   -5   14    7     -2.09      0.00
   -4   14    7     -0.76      0.00
   -3   14    7     -2.81      0.00
   -2   14    7      0.95      0.00
   -1   14    7     -2.40      0.00
    0   14    7     -2.72      0.00
    1   14    7      2.92      0.00
    2   14    7     -1.55      0.00
    3   14    7      0.51      0.00
  -18    0    8      0.14      0.00
  -16    0    8      0.12      0.00
  -14    0    8     -8.67      0.00
  -12    0    8      5.17      0.00
  -10    0    8      2.71      0.00
   -8    0    8     10.76      0.00
   -6    0    8    -17.11      0.00
   -4    0    8     -8.40      0.00
   -2    0    8    -10.16      0.00
    0    0    8      4.27      0.00
    2    0    8    -10.39      0.00
    4    0    8     14.60      0.00
    6    0    8      0.68      0.00
    8    0    8      2.68      0.00
   10    0    8     -5.20      0.00
   12    0    8      1.20      0.00
   14    0    8      1.66      0.00
  -18    1    8      0.80      0.00
  -17    1    8      0.67      0.00
  -16    1    8      1.05      0.00
  -15    1    8     -4.92      0.00
  -14    1    8     -0.79      0.00
  -13    1    8     -2.63      0.00
  -12    1    8     -1.39      0.00
  -11    1    8      3.73      0.00
  -10    1    8      0.64      0.00
   -9    1    8      8.02      0.00
   -8    1    8      6.26      0.00
   -7    1    8     -2.39      0.00
   -6    1    8     -0.36      0.00
   -5    1    8    -10.65      0.00
   -4    1    8     -2.99      0.00
   -3    1    8    -12.77      0.00
   -2    1    8     -9.79      0.00
   -1    1    8      6.12      0.00
    0    1    8      2.54      0.00
    1    1    8    -15.86      0.00
    2    1    8     -4.73      0.00
    3    1    8      6.42      0.00
    4    1    8      1.72      0.00
    5    1    8      4.20      0.00
    6    1    8      1.50      0.00
    7    1    8      6.05      0.00
    8    1    8      2.93      0.00
    9    1    8     -3.31      0.00
   10    1    8     -0.72      0.00
   11    1    8     -0.51      0.00
   12    1    8     -0.55      0.00
   13    1    8     -0.04      0.00
   14    1    8     -1.60      0.00
   15    1    8      2.51      0.00
  -18    2    8     -0.82      0.00
  -17    2    8      1.79      0.00
  -16    2    8      0.94      0.00
  -15    2    8      3.61      0.00
  -14    2    8     -6.13      0.00
  -13    2    8     -4.61      0.00
  -12    2    8      2.92      0.00
  -11    2    8      1.17      0.00
  -10    2    8      1.13      0.00
   -9    2    8      0.75      0.00
   -8    2    8      7.89      0.00
   -7    2    8     13.16      0.00
   -6    2    8     -5.37      0.00
   -5    2    8     -8.66      0.00
   -4    2    8     -2.94      0.00
   -3    2    8     -1.53      0.00
   -2    2    8     -5.80      0.00
   -1    2    8    -10.84      0.00
    0    2    8     -5.48      0.00
    1    2    8      6.08      0.00
    2    2    8    -11.83      0.00
    3    2    8    -11.14      0.00
    4    2    8      7.82      0.00
    5    2    8      5.37      0.00
    6    2    8      2.45      0.00
    7    2    8      0.36      0.00
    8    2    8      4.11      0.00
    9    2    8      3.24      0.00
   10    2    8     -4.04      0.00
   11    2    8     -3.51      0.00
   12    2    8     -0.42      0.00
   13    2    8     -3.03      0.00
   14    2    8      1.70      0.00
   15    2    8     -2.24      0.00
  -18    3    8      0.42      0.00
  -17    3    8      1.25      0.00
  -16    3    8      2.82      0.00
  -15    3    8     -1.46      0.00
  -14    3    8      0.63      0.00
  -13    3    8      0.21      0.00
  -12    3    8     -3.34      0.00
  -11    3    8      1.63      0.00
  -10    3    8     -1.63      0.00
   -9    3    8      1.01      0.00
   -8    3    8      8.85      0.00
   -7    3    8      6.67      0.00
   -6    3    8      1.18      0.00
   -5    3    8     -1.35      0.00
   -4    3    8     -1.39      0.00
   -3    3    8     -0.93      0.00
   -2    3    8     -8.67      0.00
   -1    3    8     -2.33      0.00
    0    3    8     10.30      0.00
    1    3    8    -12.70      0.00
    2    3    8    -11.93      0.00
    3    3    8     -2.59      0.00
    4    3    8     -3.51      0.00
    5    3    8      2.65      0.00
    6    3    8     -1.91      0.00
    7    3    8      3.07      0.00
    8    3    8      5.55      0.00
    9    3    8     -0.84      0.00
   10    3    8     -0.67      0.00
   11    3    8     -2.55      0.00
   12    3    8     -3.52      0.00
   13    3    8     -0.82      0.00
   14    3    8     -3.94      0.00
   15    3    8      1.21      0.00
  -17    4    8     -0.80      0.00
  -16    4    8     -0.41      0.00
  -15    4    8      4.19      0.00
  -14    4    8     -0.80      0.00
  -13    4    8     -4.93      0.00
  -12    4    8      0.92      0.00
  -11    4    8      0.35      0.00
  -10    4    8      0.07      0.00
   -9    4    8     -2.44      0.00
   -8    4    8      1.64      0.00
   -7    4    8      9.01      0.00
   -6    4    8      8.33      0.00
   -5    4    8     -4.76      0.00
   -4    4    8     -4.47      0.00
   -3    4    8      4.36      0.00
   -2    4    8      2.57      0.00
   -1    4    8      1.95      0.00
    1    4    8      9.08      0.00
    2    4    8     -0.64      0.00
    3    4    8    -18.14      0.00
    4    4    8     -1.72      0.00
    5    4    8     -0.53      0.00
    6    4    8      2.14      0.00
    7    4    8     -0.62      0.00
    8    4    8     -1.04      0.00
    9    4    8      7.24      0.00
   10    4    8     -0.99      0.00
   11    4    8     -2.97      0.00
   12    4    8     -1.88      0.00
   13    4    8     -3.38      0.00
   14    4    8     -0.55      0.00
   15    4    8      0.78      0.00
  -17    5    8      0.14      0.00
  -16    5    8      1.37      0.00
  -15    5    8     -1.96      0.00
  -14    5    8     -0.22      0.00
  -13    5    8      0.03      0.00
  -12    5    8     -3.43      0.00
  -11    5    8      0.28      0.00
  -10    5    8     -0.14      0.00
   -9    5    8     -3.91      0.00
   -8    5    8      1.54      0.00
   -7    5    8      9.66      0.00
   -6    5    8      2.54      0.00
   -5    5    8     -2.19      0.00
   -4    5    8      1.72      0.00
   -3    5    8     -0.55      0.00
   -2    5    8      1.21      0.00
   -1    5    8     -6.89      0.00
    0    5    8     16.59      0.00
    1    5    8      2.26      0.00
    2    5    8    -10.22      0.00
    3    5    8      1.06      0.00
    4    5    8     -6.26      0.00
    5    5    8      1.26      0.00
    6    5    8     -1.92      0.00
    7    5    8     -1.74      0.00
    8    5    8      5.46      0.00
    9    5    8      0.96      0.00
   10    5    8      2.25      0.00
   11    5    8     -1.11      0.00
   12    5    8     -2.12      0.00
   13    5    8     -1.30      0.00
   14    5    8     -1.23      0.00
  -17    6    8      1.35      0.00
  -16    6    8     -0.69      0.00
  -15    6    8      2.33      0.00
  -14    6    8      2.43      0.00
  -13    6    8     -3.66      0.00
  -12    6    8     -2.22      0.00
  -11    6    8     -1.35      0.00
  -10    6    8      0.28      0.00
   -9    6    8     -0.87      0.00
   -8    6    8     -1.44      0.00
   -7    6    8      1.59      0.00
   -6    6    8      8.70      0.00
   -5    6    8      4.26      0.00
   -4    6    8     -9.13      0.00
   -3    6    8     -1.73      0.00
   -2    6    8      0.46      0.00
   -1    6    8      8.78      0.00
    0    6    8     -6.70      0.00
    1    6    8      0.67      0.00
    2    6    8     14.03      0.00
    3    6    8     -8.29      0.00
    4    6    8     -2.36      0.00
    5    6    8     -0.15      0.00
    6    6    8      0.98      0.00
    7    6    8      1.15      0.00
    8    6    8     -3.63      0.00
    9    6    8      4.91      0.00
   10    6    8      1.91      0.00
   11    6    8     -1.19      0.00
   12    6    8      0.12      0.00
   13    6    8     -1.77      0.00
   14    6    8     -1.73      0.00
  -16    7    8      1.11      0.00
  -15    7    8      0.12      0.00
  -14    7    8      0.22      0.00
  -13    7    8      1.29      0.00
  -12    7    8     -3.24      0.00
  -11    7    8     -1.43      0.00
  -10    7    8      0.91      0.00
   -9    7    8     -3.33      0.00
   -8    7    8     -3.12      0.00
   -7    7    8      5.83      0.00
   -6    7    8      7.53      0.00
   -5    7    8     -3.69      0.00
   -4    7    8      1.58      0.00
   -3    7    8     -3.06      0.00
   -2    7    8      0.09      0.00
   -1    7    8     -7.64      0.00
    0    7    8      3.22      0.00
    1    7    8     10.68      0.00
    2    7    8     -7.00      0.00
    3    7    8      3.53      0.00
    4    7    8     -1.04      0.00
    6    7    8      0.86      0.00
    7    7    8     -3.84      0.00
    8    7    8      2.89      0.00
    9    7    8     -0.16      0.00
   10    7    8      1.22      0.00
   11    7    8      1.06      0.00
   12    7    8     -2.94      0.00
   13    7    8      0.24      0.00
  -15    8    8     -0.26      0.00
  -14    8    8      2.00      0.00
  -13    8    8     -0.56      0.00
  -12    8    8     -2.82      0.00
  -11    8    8     -2.00      0.00
  -10    8    8     -1.08      0.00
   -9    8    8      1.58      0.00
   -8    8    8     -1.52      0.00
   -7    8    8      0.16      0.00
   -6    8    8      3.00      0.00
   -5    8    8     10.21      0.00
   -4    8    8     -4.45      0.00
   -3    8    8     -5.17      0.00
   -2    8    8     -3.38      0.00
   -1    8    8      3.68      0.00
    0    8    8     -1.03      0.00
    1    8    8     -7.92      0.00
    2    8    8     10.69      0.00
    3    8    8     -0.64      0.00
    4    8    8     -1.53      0.00
    5    8    8      0.51      0.00
    6    8    8     -0.25      0.00
    7    8    8      2.44      0.00
    8    8    8     -4.06      0.00
    9    8    8      1.70      0.00
   10    8    8      1.94      0.00
   11    8    8     -1.93      0.00
   12    8    8      0.31      0.00
  -14    9    8     -1.79      0.00
  -13    9    8      2.32      0.00
  -12    9    8     -1.74      0.00
  -11    9    8     -3.51      0.00
  -10    9    8      1.02      0.00
   -9    9    8     -1.02      0.00
   -8    9    8     -3.99      0.00
   -7    9    8      0.27      0.00
   -6    9    8      7.80      0.00
   -5    9    8      1.57      0.00
   -4    9    8      0.94      0.00
   -3    9    8     -0.04      0.00
   -2    9    8     -3.26      0.00
   -1    9    8     -4.01      0.00
    0    9    8     -5.81      0.00
    1    9    8      7.31      0.00
    2    9    8     -3.64      0.00
    3    9    8      0.99      0.00
    4    9    8      1.87      0.00
    5    9    8     -0.56      0.00
    6    9    8      3.87      0.00
    7    9    8     -2.29      0.00
    8    9    8      0.70      0.00
    9    9    8      1.13      0.00
   10    9    8      2.28      0.00
   11    9    8      1.02      0.00
  -13   10    8      0.57      0.00
  -12   10    8     -1.17      0.00
  -11   10    8     -2.59      0.00
  -10   10    8     -2.16      0.00
   -9   10    8     -1.91      0.00
   -8   10    8     -1.07      0.00
   -7   10    8     -1.49      0.00
   -6   10    8     -0.88      0.00
   -5   10    8      7.76      0.00
   -4   10    8      6.19      0.00
   -3   10    8     -4.00      0.00
   -2   10    8     -3.10      0.00
   -1   10    8     -1.98      0.00
    0   10    8      1.90      0.00
    1   10    8     -8.10      0.00
    2   10    8      1.50      0.00
    3   10    8      2.51      0.00
    4   10    8     -2.32      0.00
    5   10    8      3.44      0.00
    6   10    8     -0.74      0.00
    7   10    8      3.14      0.00
    8   10    8     -1.43      0.00
    9   10    8      0.91      0.00
   10   10    8      1.41      0.00
  -12   11    8      0.53      0.00
  -11   11    8     -3.40      0.00
  -10   11    8     -0.38      0.00
   -9   11    8      0.76      0.00
   -8   11    8     -3.68      0.00
   -7   11    8     -6.20      0.00
   -6   11    8      3.39      0.00
   -5   11    8      3.51      0.00
   -4   11    8      3.83      0.00
   -3   11    8      4.21      0.00
   -2   11    8     -0.28      0.00
   -1   11    8     -1.34      0.00
    0   11    8     -5.07      0.00
    1   11    8      1.16      0.00
    2   11    8     -0.56      0.00
    3   11    8     -4.54      0.00
    4   11    8      1.22      0.00
    5   11    8     -2.62      0.00
    6   11    8      3.93      0.00
    7   11    8     -0.81      0.00
    8   11    8     -0.49      0.00
    9   11    8     -1.10      0.00
  -10   12    8     -1.30      0.00
   -9   12    8      0.70      0.00
   -8   12    8     -0.87      0.00
   -7   12    8     -0.12      0.00
   -6   12    8     -4.59      0.00
   -5   12    8      2.11      0.00
   -4   12    8      8.40      0.00
   -3   12    8      2.33      0.00
   -2   12    8     -0.78      0.00
   -1   12    8     -1.30      0.00
    0   12    8      3.07      0.00
    1   12    8     -2.07      0.00
    2   12    8     -3.43      0.00
    3   12    8      1.09      0.00
    4   12    8     -2.33      0.00
    5   12    8      0.22      0.00
    6   12    8     -2.38      0.00
    7   12    8      1.32      0.00
   -8   13    8      0.78      0.00
   -7   13    8     -3.45      0.00
   -6   13    8     -1.77      0.00
   -5   13    8      1.13      0.00
   -4   13    8      0.95      0.00
   -3   13    8      5.30      0.00
   -2   13    8     -0.34      0.00
   -1   13    8      3.00      0.00
    0   13    8     -0.10      0.00
    1   13    8     -0.35      0.00
    2   13    8      1.24      0.00
    3   13    8     -0.84      0.00
    4   13    8      0.89      0.00
    5   13    8     -1.67      0.00
   -5   14    8     -3.62      0.00
   -4   14    8      3.57      0.00
   -3   14    8      0.41      0.00
   -2   14    8      1.43      0.00
   -1   14    8     -0.85      0.00
    0   14    8      1.71      0.00
    1   14    8      2.50      0.00
    2   14    8     -2.05      0.00
  -17    0    9     -0.49      0.00
  -15    0    9      1.35      0.00
  -13    0    9      6.14      0.00
  -11    0    9     -4.91      0.00
   -9    0    9     -6.87      0.00
   -7    0    9     -7.79      0.00
   -5    0    9     16.28      0.00
   -3    0    9     11.61      0.00
   -1    0    9      1.97      0.00
    1    0    9      8.81      0.00
    3    0    9      1.29      0.00
    5    0    9     -8.05      0.00
    7    0    9     -5.29      0.00
    9    0    9      0.71      0.00
   11    0    9      2.30      0.00
   13    0    9      1.83      0.00
   15    0    9      0.10      0.00
  -18    1    9      0.64      0.00
  -17    1    9     -0.36      0.00
  -16    1    9     -2.29      0.00
  -15    1    9     -1.30      0.00
  -14    1    9      7.00      0.00
  -13    1    9      2.19      0.00
  -12    1    9     -1.85      0.00
  -11    1    9      0.23      0.00
  -10    1    9     -1.42      0.00
   -9    1    9      1.89      0.00
   -8    1    9    -13.44      0.00
   -7    1    9     -8.75      0.00
   -6    1    9      7.87      0.00
   -5    1    9      0.89      0.00
   -4    1    9      7.20      0.00
   -3    1    9     -1.56      0.00
   -2    1    9     12.49      0.00
   -1    1    9      7.89      0.00
    0    1    9     -4.10      0.00
    1    1    9     -2.52      0.00
    2    1    9     14.68      0.00
    3    1    9      7.37      0.00
    4    1    9     -9.55      0.00
    5    1    9     -1.48      0.00
    6    1    9     -2.05      0.00
    7    1    9     -0.32      0.00
    8    1    9     -5.34      0.00
    9    1    9     -2.61      0.00
   10    1    9      4.75      0.00
   11    1    9      1.43      0.00
   12    1    9      0.80      0.00
   13    1    9      1.41      0.00
   14    1    9      1.27      0.00
   15    1    9      2.25      0.00
  -18    2    9     -0.73      0.00
  -17    2    9     -0.13      0.00
  -16    2    9     -1.43      0.00
  -15    2    9      0.15      0.00
  -14    2    9     -2.67      0.00
  -13    2    9      3.59      0.00
  -12    2    9      3.89      0.00
  -11    2    9     -2.37      0.00
  -10    2    9      0.75      0.00
   -9    2    9     -2.09      0.00
   -8    2    9     -3.54      0.00
   -7    2    9     -6.77      0.00
   -6    2    9    -10.16      0.00
   -5    2    9      6.78      0.00
   -4    2    9      2.61      0.00
   -3    2    9      3.17      0.00
   -2    2    9      3.25      0.00
   -1    2    9     -1.56      0.00
    0    2    9      0.85      0.00
    1    2    9      8.55      0.00
    2    2    9      3.64      0.00
    3    2    9      4.67      0.00
    4    2    9      6.45      0.00
    5    2    9     -3.36      0.00
    6    2    9      0.10      0.00
    7    2    9     -3.92      0.00
    8    2    9     -2.09      0.00
    9    2    9     -0.91      0.00
   10    2    9     -0.79      0.00
   11    2    9      2.81      0.00
   12    2    9      2.94      0.00
   13    2    9      2.32      0.00
   14    2    9      4.91      0.00
   15    2    9     -1.45      0.00
  -18    3    9      1.57      0.00
  -17    3    9      0.38      0.00
  -16    3    9     -1.42      0.00
  -15    3    9     -4.52      0.00
  -14    3    9      2.50      0.00
  -13    3    9      3.09      0.00
  -12    3    9     -1.52      0.00
  -11    3    9      0.50      0.00
  -10    3    9      0.23      0.00
   -9    3    9      4.78      0.00
   -8    3    9     -1.91      0.00
   -7    3    9    -12.95      0.00
   -6    3    9     -3.37      0.00
   -5    3    9      3.06      0.00
   -4    3    9      2.04      0.00
   -3    3    9     -3.39      0.00
   -2    3    9     -2.61      0.00
   -1    3    9      8.00      0.00
    0    3    9      0.36      0.00
    1    3    9    -11.35      0.00
    2    3    9      7.27      0.00
    3    3    9     14.31      0.00
    4    3    9      1.33      0.00
    5    3    9      0.14      0.00
    6    3    9     -0.71      0.00
    7    3    9      3.19      0.00
    8    3    9     -2.53      0.00
    9    3    9     -6.02      0.00
   10    3    9      0.74      0.00
   11    3    9      2.45      0.00
   12    3    9      1.23      0.00
   13    3    9      4.10      0.00
   14    3    9     -0.31      0.00
  -17    4    9     -0.69      0.00
  -16    4    9      1.05      0.00
  -15    4    9      1.53      0.00
  -14    4    9     -2.32      0.00
  -13    4    9      0.20      0.00
  -12    4    9      5.21      0.00
  -11    4    9     -0.97      0.00
  -10    4    9      0.90      0.00
   -9    4    9      1.91      0.00
   -8    4    9     -0.02      0.00
   -7    4    9     -4.62      0.00
   -6    4    9     -6.53      0.00
   -5    4    9     -2.28      0.00
   -4    4    9      3.85      0.00
   -3    4    9      1.82      0.00
   -2    4    9      1.32      0.00
   -1    4    9     -3.66      0.00
    0    4    9     -9.76      0.00
    1    4    9      4.36      0.00
    2    4    9     -0.08      0.00
    3    4    9      0.08      0.00
    4    4    9      8.62      0.00
    5    4    9      0.32      0.00
    6    4    9      1.99      0.00
    7    4    9     -0.56      0.00
    8    4    9     -2.93      0.00
    9    4    9     -0.50      0.00
   10    4    9     -4.27      0.00
   11    4    9      0.57      0.00
   12    4    9      1.75      0.00
   13    4    9      0.37      0.00
   14    4    9      4.39      0.00
  -17    5    9      0.57      0.00
  -16    5    9      0.40      0.00
  -15    5    9     -3.13      0.00
  -14    5    9      0.39      0.00
  -13    5    9      3.54      0.00
  -12    5    9      1.36      0.00
  -11    5    9      1.62      0.00
  -10    5    9     -0.94      0.00
   -9    5    9      2.25      0.00
   -8    5    9      3.83      0.00
   -7    5    9     -4.18      0.00
   -6    5    9    -10.54      0.00
   -5    5    9      0.52      0.00
   -4    5    9      6.54      0.00
   -3    5    9      1.18      0.00
   -2    5    9     -2.41      0.00
   -1    5    9     -1.74      0.00
    0    5    9      9.04      0.00
    1    5    9    -12.40      0.00
    2    5    9     -8.09      0.00
    3    5    9      9.26      0.00
    4    5    9     -0.06      0.00
    5    5    9      1.27      0.00
    6    5    9     -2.33      0.00
    7    5    9      1.35      0.00
    8    5    9      3.02      0.00
    9    5    9     -5.94      0.00
   10    5    9     -1.48      0.00
   11    5    9     -0.41      0.00
   12    5    9      0.84      0.00
   13    5    9      1.78      0.00
   14    5    9      1.51      0.00
  -16    6    9     -1.88      0.00
  -15    6    9      1.27      0.00
  -14    6    9     -1.84      0.00
  -13    6    9     -1.84      0.00
  -12    6    9      4.61      0.00
  -11    6    9      1.97      0.00
  -10    6    9     -0.02      0.00
   -9    6    9      2.74      0.00
   -8    6    9      1.82      0.00
   -7    6    9     -3.83      0.00
   -6    6    9     -3.42      0.00
   -5    6    9     -4.27      0.00
   -4    6    9     -0.42      0.00
   -3    6    9      5.94      0.00
   -2    6    9      3.75      0.00
   -1    6    9      5.27      0.00
    0    6    9     -9.43      0.00
    1    6    9      0.56      0.00
    2    6    9      3.70      0.00
    3    6    9     -8.09      0.00
    4    6    9      3.67      0.00
    5    6    9      0.34      0.00
    6    6    9      0.25      0.00
    7    6    9      1.17      0.00
    8    6    9     -1.97      0.00
    9    6    9      1.36      0.00
   10    6    9     -2.75      0.00
   11    6    9     -0.40      0.00
   12    6    9      0.87      0.00
   13    6    9      0.31      0.00
  -16    7    9     -0.12      0.00
  -15    7    9     -1.40      0.00
  -14    7    9     -1.81      0.00
  -13    7    9      0.96      0.00
  -12    7    9      1.51      0.00
  -11    7    9      3.58      0.00
  -10    7    9     -0.35      0.00
   -9    7    9     -1.27      0.00
   -8    7    9      4.11      0.00
   -7    7    9      2.32      0.00
   -6    7    9     -8.26      0.00
   -5    7    9     -7.90      0.00
   -4    7    9      5.00      0.00
   -3    7    9      3.22      0.00
   -2    7    9      2.21      0.00
   -1    7    9     -3.97      0.00
    0    7    9      9.30      0.00
    1    7    9      2.15      0.00
    2    7    9    -10.91      0.00
    3    7    9      4.18      0.00
    4    7    9      0.12      0.00
    5    7    9     -0.12      0.00
    6    7    9     -0.46      0.00
    7    7    9     -1.32      0.00
    8    7    9      4.99      0.00
    9    7    9     -2.54      0.00
   10    7    9     -1.24      0.00
   11    7    9      0.68      0.00
   12    7    9     -0.83      0.00
   13    7    9      1.77      0.00
  -15    8    9      1.89      0.00
  -14    8    9     -0.28      0.00
  -13    8    9     -2.27      0.00
  -12    8    9      1.55      0.00
  -11    8    9      3.03      0.00
  -10    8    9      0.05      0.00
   -9    8    9      2.12      0.00
   -8    8    9      1.88      0.00
   -7    8    9      0.07      0.00
   -6    8    9     -4.84      0.00
   -5    8    9     -2.22      0.00
   -4    8    9     -7.44      0.00
   -3    8    9      3.57      0.00
   -2    8    9      2.85      0.00
   -1    8    9      6.74      0.00
    0    8    9     -0.96      0.00
    1    8    9     -2.31      0.00
    2    8    9      7.16      0.00
    3    8    9     -5.65      0.00
    4    8    9      0.00      0.00
    5    8    9      0.10      0.00
    6    8    9     -1.28      0.00
    7    8    9      1.85      0.00
    8    8    9     -2.53      0.00
    9    8    9      1.09      0.00
   10    8    9     -1.00      0.00
   11    8    9     -1.15      0.00
   12    8    9      2.45      0.00
  -14    9    9     -1.63      0.00
  -13    9    9     -0.57      0.00
  -12    9    9     -0.10      0.00
  -11    9    9      2.97      0.00
  -10    9    9      3.06      0.00
   -9    9    9     -1.56      0.00
   -8    9    9      3.06      0.00
   -7    9    9      3.56      0.00
   -6    9    9     -0.39      0.00
   -5    9    9    -10.49      0.00
   -4    9    9     -2.65      0.00
   -3    9    9      1.05      0.00
   -2    9    9      1.88      0.00
   -1    9    9     -0.59      0.00
    0    9    9      3.04      0.00
    1    9    9      8.69      0.00
    2    9    9     -6.25      0.00
    3    9    9      1.82      0.00
    4    9    9     -1.04      0.00
    5    9    9     -0.53      0.00
    6    9    9     -0.82      0.00
    7    9    9     -3.41      0.00
    8    9    9      2.84      0.00
    9    9    9     -0.26      0.00
   10    9    9     -1.81      0.00
   11    9    9     -0.98      0.00
  -13   10    9     -3.96      0.00
  -12   10    9      0.40      0.00
  -11   10    9      2.30      0.00
  -10   10    9      0.92      0.00
   -9   10    9      1.23      0.00
   -8   10    9      4.16      0.00
   -7   10    9      3.78      0.00
   -6   10    9     -1.09      0.00
   -5   10    9     -2.22      0.00
   -4   10    9     -7.19      0.00
   -3   10    9     -6.86      0.00
   -2   10    9      1.90      0.00
   -1   10    9      2.31      0.00
    0   10    9      3.74      0.00
    1   10    9     -4.14      0.00
    2   10    9      5.67      0.00
    3   10    9      0.43      0.00
    4   10    9     -0.43      0.00
    5   10    9      0.57      0.00
    6   10    9     -3.01      0.00
    7   10    9      1.30      0.00
    8   10    9      0.10      0.00
    9   10    9      0.41      0.00
  -12   11    9     -0.70      0.00
  -11   11    9      1.59      0.00
  -10   11    9      1.80      0.00
   -9   11    9     -0.47      0.00
   -8   11    9     -0.53      0.00
   -7   11    9      3.41      0.00
   -6   11    9      5.44      0.00
   -5   11    9     -3.81      0.00
   -4   11    9     -7.16      0.00
   -3   11    9     -2.84      0.00
   -2   11    9     -0.87      0.00
   -1   11    9     -0.71      0.00
    0   11    9     -2.55      0.00
    1   11    9      4.94      0.00
    2   11    9      0.07      0.00
    3   11    9     -0.56      0.00
    4   11    9      3.27      0.00
    5   11    9     -0.52      0.00
    6   11    9      2.59      0.00
    7   11    9     -2.15      0.00
    8   11    9      1.46      0.00
  -10   12    9      0.05      0.00
   -9   12    9     -1.13      0.00
   -8   12    9     -0.45      0.00
   -7   12    9      3.27      0.00
   -6   12    9      1.03      0.00
   -5   12    9      2.60      0.00
   -4   12    9     -3.53      0.00
   -3   12    9     -6.25      0.00
   -2   12    9     -2.04      0.00
   -1   12    9      0.00      0.00
    0   12    9      1.60      0.00
    1   12    9     -2.56      0.00
    2   12    9     -0.96      0.00
    3   12    9      3.22      0.00
    4   12    9     -1.12      0.00
    5   12    9      3.02      0.00
    6   12    9     -1.28      0.00
   -8   13    9     -0.53      0.00
   -7   13    9     -0.51      0.00
   -6   13    9      5.26      0.00
   -5   13    9      2.23      0.00
   -4   13    9     -2.53      0.00
   -3   13    9     -1.94      0.00
   -2   13    9     -1.43      0.00
   -1   13    9      1.33      0.00
    0   13    9     -4.32      0.00
    1   13    9     -0.96      0.00
    2   13    9      1.14      0.00
    3   13    9     -2.56      0.00
    4   13    9     -0.30      0.00
   -3   14    9     -3.72      0.00
   -2   14    9      0.89      0.00
   -1   14    9     -1.99      0.00
  -18    0   10     -0.86      0.00
  -16    0   10      1.30      0.00
  -14    0   10     -5.19      0.00
  -12    0   10     -1.87      0.00
  -10    0   10      0.81      0.00
   -8    0   10     12.65      0.00
   -6    0   10      1.34      0.00
   -4    0   10    -10.21      0.00
   -2    0   10    -12.38      0.00
    0    0   10      3.23      0.00
    2    0   10    -14.36      0.00
    4    0   10      3.55      0.00
    6    0   10      2.62      0.00
    8    0   10      5.88      0.00
   10    0   10     -3.33      0.00
   12    0   10     -1.60      0.00
   14    0   10     -4.25      0.00
  -18    1   10     -0.05      0.00
  -17    1   10     -1.01      0.00
  -16    1   10     -0.29      0.00
  -15    1   10      1.93      0.00
  -14    1   10      1.65      0.00
  -13    1   10     -6.94      0.00
  -12    1   10     -2.63      0.00
  -11    1   10      3.24      0.00
  -10    1   10     -0.64      0.00
   -9    1   10      1.07      0.00
   -8    1   10     -2.42      0.00
   -7    1   10     14.35      0.00
   -6    1   10      8.53      0.00
   -5    1   10    -11.08      0.00
   -4    1   10      0.00      0.00
   -3    1   10     -5.00      0.00
   -2    1   10      3.02      0.00
   -1    1   10     -5.33      0.00
    0    1   10     -2.22      0.00
    1    1   10     -2.23      0.00
    2    1   10      0.66      0.00
    3    1   10     -9.07      0.00
    4    1   10     -5.84      0.00
    5    1   10      5.45      0.00
    6    1   10     -0.23      0.00
    7    1   10      3.16      0.00
    8    1   10      0.83      0.00
    9    1   10      2.70      0.00
   10    1   10      1.90      0.00
   11    1   10     -4.08      0.00
   12    1   10     -1.26      0.00
   13    1   10     -3.80      0.00
   14    1   10     -1.69      0.00
  -18    2   10     -1.72      0.00
  -17    2   10      0.20      0.00
  -16    2   10      1.76      0.00
  -15    2   10      2.52      0.00
  -14    2   10     -2.59      0.00
  -13    2   10     -0.32      0.00
  -12    2   10     -0.33      0.00
  -11    2   10     -1.64      0.00
  -10    2   10      0.27      0.00
   -9    2   10     -5.25      0.00
   -8    2   10      5.29      0.00
   -7    2   10      7.60      0.00
   -6    2   10      2.17      0.00
   -5    2   10      4.88      0.00
   -4    2   10     -6.18      0.00
   -3    2   10      3.52      0.00
   -2    2   10     -4.06      0.00
   -1    2   10     -4.34      0.00
    0    2   10      5.09      0.00
    1    2   10      6.35      0.00
    2    2   10     -8.51      0.00
    3    2   10     -8.75      0.00
    4    2   10      0.28      0.00
    5    2   10     -3.21      0.00
    6    2   10      0.78      0.00
    7    2   10     -2.48      0.00
    8    2   10      4.49      0.00
    9    2   10      4.40      0.00
   10    2   10     -1.04      0.00
   11    2   10     -0.16      0.00
   12    2   10     -1.77      0.00
   13    2   10     -1.59      0.00
   14    2   10     -2.61      0.00
  -17    3   10     -1.68      0.00
  -16    3   10     -1.32      0.00
  -15    3   10      0.36      0.00
  -14    3   10      4.44      0.00
  -13    3   10     -2.37      0.00
  -12    3   10     -5.00      0.00
  -11    3   10      1.68      0.00
  -10    3   10      0.19      0.00
   -9    3   10     -1.18      0.00
   -8    3   10     -4.12      0.00
   -7    3   10      3.51      0.00
   -6    3   10     13.16      0.00
   -5    3   10     -1.70      0.00
   -4    3   10     -4.38      0.00
   -3    3   10     -3.43      0.00
   -2    3   10      2.08      0.00
   -1    3   10      5.37      0.00
    0    3   10     -0.94      0.00
    1    3   10     -0.60      0.00
    2    3   10      5.92      0.00
    3    3   10     -2.89      0.00
    4    3   10     -9.78      0.00
    5    3   10     -0.28      0.00
    6    3   10     -1.54      0.00
    7    3   10      1.72      0.00
    8    3   10     -0.77      0.00
    9    3   10      2.62      0.00
   10    3   10      5.23      0.00
   11    3   10     -0.01      0.00
   12    3   10     -0.68      0.00
   13    3   10     -0.50      0.00
   14    3   10     -4.69      0.00
  -17    4   10     -1.05      0.00
  -16    4   10      0.68      0.00
  -15    4   10      1.34      0.00
  -14    4   10     -1.45      0.00
  -13    4   10     -1.88      0.00
  -12    4   10      0.01      0.00
  -11    4   10     -2.75      0.00
  -10    4   10      1.46      0.00
   -9    4   10     -3.51      0.00
   -8    4   10     -2.21      0.00
   -7    4   10      5.54      0.00
   -6    4   10      5.55      0.00
   -5    4   10      2.44      0.00
   -4    4   10     -3.47      0.00
   -3    4   10     -2.41      0.00
   -2    4   10      0.63      0.00
   -1    4   10     -5.81      0.00
    0    4   10      0.27      0.00
    1    4   10     12.39      0.00
    2    4   10      1.38      0.00
    3    4   10     -4.50      0.00
    4    4   10      0.02      0.00
    5    4   10     -1.89      0.00
    6    4   10      1.05      0.00
    7    4   10     -3.09      0.00
    8    4   10     -0.79      0.00
    9    4   10      4.78      0.00
   10    4   10      1.28      0.00
   11    4   10      1.22      0.00
   12    4   10      0.18      0.00
   13    4   10     -1.26      0.00
  -17    5   10      2.84      0.00
  -16    5   10     -0.80      0.00
  -15    5   10     -0.90      0.00
  -14    5   10      3.28      0.00
  -13    5   10      1.01      0.00
  -12    5   10     -5.75      0.00
  -11    5   10     -1.12      0.00
  -10    5   10     -0.35      0.00
   -9    5   10      0.34      0.00
   -8    5   10     -2.75      0.00
   -7    5   10     -0.09      0.00
   -6    5   10      6.80      0.00
   -5    5   10      7.67      0.00
   -4    5   10     -2.24      0.00
   -3    5   10     -7.56      0.00
   -2    5   10     -5.38      0.00
   -1    5   10      1.27      0.00
    0    5   10      3.97      0.00
    1    5   10     -6.62      0.00
    2    5   10      4.51      0.00
    3    5   10      7.39      0.00
    4    5   10     -5.57      0.00
    5    5   10      0.27      0.00
    6    5   10     -0.60      0.00
    7    5   10      0.69      0.00
    8    5   10     -0.27      0.00
    9    5   10     -2.52      0.00
   10    5   10      3.95      0.00
   11    5   10      0.11      0.00
   12    5   10      0.33      0.00
   13    5   10      0.28      0.00
  -16    6   10      1.53      0.00
  -15    6   10      2.27      0.00
  -14    6   10      0.71      0.00
  -13    6   10     -0.42      0.00
  -12    6   10     -0.10      0.00
  -11    6   10     -3.86      0.00
  -10    6   10      0.68      0.00
   -9    6   10      0.13      0.00
   -8    6   10     -4.82      0.00
   -7    6   10     -0.77      0.00
   -6    6   10      8.63      0.00
   -5    6   10      4.37      0.00
   -4    6   10      0.28      0.00
   -3    6   10     -2.93      0.00
   -2    6   10     -1.50      0.00
   -1    6   10     -2.03      0.00
    0    6   10    -10.41      0.00
    1    6   10      4.72      0.00
    2    6   10      4.92      0.00
    3    6   10     -5.34      0.00
    4    6   10      3.35      0.00
    5    6   10     -1.43      0.00
    6    6   10      1.11      0.00
    7    6   10     -0.88      0.00
    8    6   10     -3.67      0.00
    9    6   10      2.18      0.00
   10    6   10      0.20      0.00
   11    6   10      1.02      0.00
   12    6   10     -0.59      0.00
   13    6   10     -0.27      0.00
  -16    7   10      0.67      0.00
  -15    7   10     -1.28      0.00
  -14    7   10      0.87      0.00
  -13    7   10      3.46      0.00
  -12    7   10     -2.19      0.00
  -11    7   10     -2.27      0.00
  -10    7   10     -1.51      0.00
   -9    7   10      0.06      0.00
   -8    7   10     -1.07      0.00
   -7    7   10     -1.74      0.00
   -6    7   10      0.55      0.00
   -5    7   10      9.48      0.00
   -4    7   10      6.03      0.00
   -3    7   10     -3.37      0.00
   -2    7   10     -4.71      0.00
   -1    7   10     -3.73      0.00
    0    7   10      4.49      0.00
    1    7   10     -6.15      0.00
    2    7   10     -5.48      0.00
    3    7   10      7.60      0.00
    4    7   10     -1.65      0.00
    5    7   10     -1.10      0.00
    6    7   10      0.44      0.00
    7    7   10     -0.26      0.00
    8    7   10      1.83      0.00
    9    7   10     -3.22      0.00
   10    7   10      0.91      0.00
   11    7   10      0.16      0.00
   12    7   10     -0.77      0.00
  -15    8   10      0.91      0.00
  -14    8   10     -0.06      0.00
  -13    8   10      1.45      0.00
  -12    8   10      0.96      0.00
  -11    8   10     -3.07      0.00
  -10    8   10     -1.20      0.00
   -9    8   10      1.70      0.00
   -8    8   10     -3.76      0.00
   -7    8   10     -4.42      0.00
   -6    8   10      2.72      0.00
   -5    8   10      7.75      0.00
   -4    8   10      2.79      0.00
   -3    8   10      3.29      0.00
   -2    8   10     -2.00      0.00
   -1    8   10      1.83      0.00
    0    8   10     -8.24      0.00
    1    8   10     -3.61      0.00
    2    8   10      4.25      0.00
    3    8   10     -4.17      0.00
    4    8   10      2.17      0.00
    5    8   10      0.86      0.00
    6    8   10      0.69      0.00
    7    8   10      2.59      0.00
    8    8   10     -4.37      0.00
    9    8   10      1.55      0.00
   10    8   10      0.72      0.00
   11    8   10     -0.21      0.00
  -14    9   10      0.32      0.00
  -13    9   10      2.43      0.00
  -12    9   10      1.35      0.00
  -11    9   10     -1.69      0.00
  -10    9   10     -1.60      0.00
   -9    9   10     -2.22      0.00
   -8    9   10     -0.76      0.00
   -7    9   10     -4.64      0.00
   -6    9   10     -1.02      0.00
   -5    9   10      2.09      0.00
   -4    9   10     11.63      0.00
   -3    9   10      3.69      0.00
   -2    9   10     -0.24      0.00
   -1    9   10     -3.09      0.00
    0    9   10      1.21      0.00
    1    9   10      0.14      0.00
    2    9   10     -8.27      0.00
    3    9   10      3.45      0.00
    4    9   10     -0.66      0.00
    5    9   10      1.51      0.00
    6    9   10      0.85      0.00
    7    9   10     -1.08      0.00
    8    9   10      2.63      0.00
    9    9   10     -1.54      0.00
   10    9   10     -0.06      0.00
  -13   10   10     -0.55      0.00
  -12   10   10      2.44      0.00
  -11   10   10     -1.64      0.00
  -10   10   10     -1.79      0.00
   -9   10   10      2.01      0.00
   -8   10   10     -1.45      0.00
   -7   10   10     -4.29      0.00
   -6   10   10     -4.90      0.00
   -5   10   10      3.14      0.00
   -4   10   10      5.04      0.00
   -3   10   10      4.92      0.00
   -2   10   10      4.69      0.00
   -1   10   10      1.39      0.00
    0   10   10      0.30      0.00
    1   10   10     -5.94      0.00
    2   10   10      4.32      0.00
    3   10   10     -4.09      0.00
    4   10   10     -0.16      0.00
    5   10   10     -1.54      0.00
    6   10   10     -0.20      0.00
    7   10   10      2.57      0.00
    8   10   10     -2.44      0.00
  -11   11   10     -0.59      0.00
  -10   11   10     -0.76      0.00
   -9   11   10      0.86      0.00
   -8   11   10      0.60      0.00
   -7   11   10     -1.86      0.00
   -6   11   10     -3.63      0.00
   -5   11   10     -3.42      0.00
   -4   11   10      3.72      0.00
   -3   11   10      8.29      0.00
   -2   11   10      1.24      0.00
   -1   11   10     -0.44      0.00
    0   11   10     -1.49      0.00
    1   11   10      5.40      0.00
    2   11   10     -3.79      0.00
    3   11   10     -1.53      0.00
    4   11   10     -1.34      0.00
    5   11   10     -1.73      0.00
    6   11   10      0.29      0.00
    7   11   10     -2.06      0.00
  -10   12   10     -2.98      0.00
   -9   12   10      0.62      0.00
   -8   12   10      2.12      0.00
   -7   12   10     -0.78      0.00
   -6   12   10     -4.44      0.00
   -5   12   10     -2.77      0.00
   -4   12   10      0.50      0.00
   -3   12   10      3.19      0.00
   -2   12   10      1.44      0.00
   -1   12   10      1.11      0.00
    0   12   10      3.06      0.00
    1   12   10     -2.10      0.00
    2   12   10      1.42      0.00
    3   12   10      2.02      0.00
    4   12   10     -1.72      0.00
    5   12   10      0.50      0.00
   -7   13   10     -0.19      0.00
   -6   13   10     -2.26      0.00
   -5   13   10     -6.17      0.00
   -4   13   10     -0.99      0.00
   -3   13   10      2.73      0.00
   -2   13   10      1.94      0.00
   -1   13   10      0.60      0.00
    0   13   10     -1.24      0.00
    1   13   10      3.81      0.00
    2   13   10      1.99      0.00
    3   13   10     -1.56      0.00
  -17    0   11      2.28      0.00
  -15    0   11     -2.28      0.00
  -13    0   11      7.71      0.00
  -11    0   11     -1.54      0.00
   -9    0   11      2.78      0.00
   -7    0   11    -16.81      0.00
   -5    0   11      5.52      0.00
   -3    0   11      3.49      0.00
   -1    0   11      6.87      0.00
    1    0   11     -2.65      0.00
    3    0   11     12.21      0.00
    5    0   11     -2.58      0.00
    7    0   11     -2.17      0.00
    9    0   11     -5.40      0.00
   11    0   11      3.99      0.00
   13    0   11      3.46      0.00
  -18    1   11      0.47      0.00
  -17    1   11     -0.25      0.00
  -16    1   11     -0.25      0.00
  -15    1   11     -0.58      0.00
  -14    1   11      0.91      0.00
  -13    1   11     -1.26      0.00
  -12    1   11      4.19      0.00
  -11    1   11      1.08      0.00
  -10    1   11     -1.07      0.00
   -9    1   11      2.31      0.00
   -8    1   11     -4.33      0.00
   -7    1   11      0.46      0.00
   -6    1   11    -10.63      0.00
   -5    1   11     -5.82      0.00
   -4    1   11      9.71      0.00
   -3    1   11     -1.46      0.00
   -2    1   11      5.24      0.00
   -1    1   11     -1.54      0.00
    0    1   11     -2.57      0.00
    1    1   11     -2.85      0.00
    2    1   11      6.88      0.00
    3    1   11      1.32      0.00
    4    1   11      3.53      0.00
    5    1   11      2.87      0.00
    6    1   11     -1.27      0.00
    7    1   11      0.65      0.00
    8    1   11     -4.55      0.00
    9    1   11     -2.24      0.00
   10    1   11     -0.41      0.00
   11    1   11     -1.15      0.00
   12    1   11      2.19      0.00
   13    1   11      0.04      0.00
   14    1   11      4.91      0.00
  -17    2   11      2.21      0.00
  -16    2   11      1.01      0.00
  -15    2   11     -2.66      0.00
  -14    2   11     -4.15      0.00
  -13    2   11      4.41      0.00
  -12    2   11      2.56      0.00
  -11    2   11     -1.93      0.00
  -10    2   11     -0.70      0.00
   -9    2   11      1.01      0.00
   -8    2   11      7.47      0.00
   -7    2   11     -9.17      0.00
   -6    2   11    -10.42      0.00
   -5    2   11      3.45      0.00
   -4    2   11     -0.10      0.00
   -3    2   11      5.35      0.00
   -2    2   11     -5.70      0.00
   -1    2   11      2.08      0.00
    0    2   11      2.14      0.00
    1    2   11     -3.19      0.00
    2    2   11     -6.77      0.00
    3    2   11      5.68      0.00
    4    2   11      7.84      0.00
    5    2   11     -0.97      0.00
    6    2   11      1.79      0.00
    7    2   11     -1.10      0.00
    8    2   11      1.45      0.00
    9    2   11     -4.16      0.00
   10    2   11     -5.71      0.00
   11    2   11      1.25      0.00
   12    2   11     -1.15      0.00
   13    2   11      2.18      0.00
  -17    3   11     -0.87      0.00
  -16    3   11      0.69      0.00
  -15    3   11     -0.56      0.00
  -14    3   11      1.25      0.00
  -13    3   11     -1.92      0.00
  -12    3   11      1.40      0.00
  -11    3   11      3.07      0.00
  -10    3   11     -1.57      0.00
   -9    3   11      1.85      0.00
   -8    3   11     -0.24      0.00
   -7    3   11     -0.85      0.00
   -6    3   11     -4.16      0.00
   -5    3   11    -10.02      0.00
   -4    3   11      5.23      0.00
   -3    3   11      2.05      0.00
   -2    3   11      4.77      0.00
   -1    3   11      2.55      0.00
    0    3   11     -4.32      0.00
    1    3   11     -5.81      0.00
    2    3   11      0.07      0.00
    3    3   11      0.14      0.00
    4    3   11     -0.26      0.00
    5    3   11      4.53      0.00
    6    3   11     -0.59      0.00
    7    3   11      3.53      0.00
    8    3   11     -1.26      0.00
    9    3   11     -2.12      0.00
   10    3   11     -1.26      0.00
   11    3   11     -2.93      0.00
   12    3   11     -0.32      0.00
   13    3   11     -1.72      0.00
  -17    4   11     -0.04      0.00
  -16    4   11      1.52      0.00
  -15    4   11      0.35      0.00
  -14    4   11     -4.06      0.00
  -13    4   11      1.07      0.00
  -12    4   11      4.90      0.00
  -11    4   11     -0.05      0.00
  -10    4   11     -0.58      0.00
   -9    4   11     -1.51      0.00
   -8    4   11      4.56      0.00
   -7    4   11      0.35      0.00
   -6    4   11    -11.20      0.00
   -5    4   11     -4.22      0.00
   -4    4   11      0.53      0.00
   -3    4   11      7.51      0.00
   -2    4   11      2.90      0.00
   -1    4   11     -2.07      0.00
    0    4   11      4.61      0.00
    1    4   11      3.31      0.00
    2    4   11     -8.86      0.00
    3    4   11     -3.33      0.00
    4    4   11      4.20      0.00
    5    4   11     -0.10      0.00
    6    4   11      0.51      0.00
    7    4   11     -0.98      0.00
    8    4   11      3.29      0.00
    9    4   11      1.90      0.00
   10    4   11     -3.85      0.00
   11    4   11     -0.02      0.00
   12    4   11     -0.39      0.00
   13    4   11     -0.65      0.00
  -16    5   11     -2.90      0.00
  -15    5   11     -0.78      0.00
  -14    5   11      0.47      0.00
  -13    5   11     -1.21      0.00
  -12    5   11     -0.78      0.00
  -11    5   11      4.91      0.00
  -10    5   11     -0.89      0.00
   -9    5   11      0.93      0.00
   -8    5   11      1.70      0.00
   -7    5   11     -0.01      0.00
   -6    5   11     -3.51      0.00
   -5    5   11     -8.41      0.00
   -4    5   11     -3.08      0.00
   -3    5   11      1.99      0.00
   -2    5   11      4.42      0.00
   -1    5   11      7.24      0.00
    0    5   11      4.14      0.00
    1    5   11     -4.53      0.00
    2    5   11      2.11      0.00
    3    5   11      0.62      0.00
    4    5   11     -3.71      0.00
    5    5   11      2.14      0.00
    6    5   11     -0.57      0.00
    7    5   11      1.37      0.00
    8    5   11      2.44      0.00
    9    5   11     -1.16      0.00
   10    5   11      1.21      0.00
   11    5   11     -1.21      0.00
   12    5   11      0.97      0.00
  -16    6   11     -0.29      0.00
  -15    6   11      0.53      0.00
  -14    6   11     -2.27      0.00
  -13    6   11     -2.86      0.00
  -12    6   11      2.76      0.00
  -11    6   11      1.36      0.00
  -10    6   11      1.97      0.00
   -9    6   11     -2.32      0.00
   -8    6   11      1.81      0.00
   -7    6   11      4.72      0.00
   -6    6   11     -3.00      0.00
   -5    6   11    -10.43      0.00
   -4    6   11     -5.22      0.00
   -3    6   11      2.38      0.00
   -2    6   11      4.88      0.00
   -1    6   11     -0.72      0.00
    0    6   11     -0.69      0.00
    1    6   11     10.64      0.00
    2    6   11      0.52      0.00
    3    6   11     -5.86      0.00
    4    6   11      4.21      0.00
    5    6   11     -0.51      0.00
    6    6   11      0.55      0.00
    7    6   11     -1.44      0.00
    8    6   11      0.37      0.00
    9    6   11      3.79      0.00
   10    6   11     -1.54      0.00
   11    6   11      0.50      0.00
   12    6   11     -0.92      0.00
  -15    7   11     -0.35      0.00
  -14    7   11     -0.19      0.00
  -13    7   11     -0.43      0.00
  -12    7   11     -3.03      0.00
  -11    7   11      3.43      0.00
  -10    7   11      0.40      0.00
   -9    7   11     -0.54      0.00
   -8    7   11      2.43      0.00
   -7    7   11      3.52      0.00
   -6    7   11     -1.80      0.00
   -5    7   11     -3.73      0.00
   -4    7   11     -8.60      0.00
   -3    7   11     -3.02      0.00
   -2    7   11      0.12      0.00
    0    7   11      6.90      0.00
    1    7   11     -1.24      0.00
    2    7   11      1.40      0.00
    3    7   11      5.21      0.00
    4    7   11     -4.04      0.00
    5    7   11     -0.10      0.00
    6    7   11     -0.22      0.00
    7    7   11     -0.24      0.00
    8    7   11      2.19      0.00
    9    7   11     -1.41      0.00
   10    7   11      0.75      0.00
   11    7   11      0.11      0.00
  -14    8   11      0.39      0.00
  -13    8   11     -2.79      0.00
  -12    8   11     -1.07      0.00
  -11    8   11      0.69      0.00
  -10    8   11      3.14      0.00
   -9    8   11     -0.58      0.00
   -8    8   11     -0.14      0.00
   -7    8   11      4.54      0.00
   -6    8   11      4.27      0.00
   -5    8   11     -6.20      0.00
   -4    8   11     -8.71      0.00
   -3    8   11     -3.32      0.00
   -2    8   11     -0.40      0.00
   -1    8   11      1.30      0.00
    0    8   11     -4.56      0.00
    1    8   11      6.45      0.00
    2    8   11      5.61      0.00
    3    8   11     -3.03      0.00
    4    8   11      0.39      0.00
    5    8   11     -0.22      0.00
    6    8   11     -1.00      0.00
    7    8   11     -0.43      0.00
    8    8   11     -3.36      0.00
    9    8   11      3.38      0.00
   10    8   11      0.35      0.00
   11    8   11      0.09      0.00
  -14    9   11      1.99      0.00
  -13    9   11     -1.00      0.00
  -12    9   11     -1.67      0.00
  -11    9   11      0.49      0.00
  -10    9   11      1.20      0.00
   -9    9   11     -0.99      0.00
   -8    9   11      1.38      0.00
   -7    9   11      3.75      0.00
   -6    9   11      4.33      0.00
   -5    9   11     -0.60      0.00
   -4    9   11     -3.75      0.00
   -3    9   11     -9.53      0.00
   -2    9   11     -3.35      0.00
   -1    9   11     -3.53      0.00
    0    9   11      3.58      0.00
    1    9   11      0.59      0.00
    2    9   11     -1.72      0.00
    3    9   11      5.72      0.00
    4    9   11     -0.38      0.00
    5    9   11      0.11      0.00
    6    9   11     -0.93      0.00
    7    9   11     -2.41      0.00
    8    9   11      3.95      0.00
    9    9   11     -1.03      0.00
  -12   10   11     -0.68      0.00
  -11   10   11     -0.04      0.00
  -10   10   11      1.26      0.00
   -9   10   11     -0.33      0.00
   -8   10   11     -2.60      0.00
   -7   10   11      3.30      0.00
   -6   10   11      4.11      0.00
   -5   10   11      4.54      0.00
   -4   10   11     -4.56      0.00
   -3   10   11     -5.89      0.00
   -2   10   11     -2.39      0.00
   -1   10   11     -0.77      0.00
    0   10   11     -2.09      0.00
    1   10   11     -3.03      0.00
    2   10   11      6.18      0.00
    3   10   11     -0.55      0.00
    4   10   11      3.63      0.00
    5   10   11     -0.05      0.00
    6   10   11      1.65      0.00
    7   10   11      2.03      0.00
    8   10   11     -2.19      0.00
  -11   11   11      2.28      0.00
  -10   11   11      1.46      0.00
   -9   11   11     -1.21      0.00
   -8   11   11     -1.13      0.00
   -7   11   11     -0.54      0.00
   -6   11   11      4.68      0.00
   -5   11   11      4.38      0.00
   -4   11   11      1.02      0.00
   -3   11   11     -1.96      0.00
   -2   11   11     -5.30      0.00
   -1   11   11     -0.94      0.00
    0   11   11     -0.89      0.00
    1   11   11      4.07      0.00
    2   11   11     -5.81      0.00
    3   11   11      2.90      0.00
    4   11   11      1.27      0.00
    5   11   11      3.01      0.00
    6   11   11      1.51      0.00
   -9   12   11      2.16      0.00
   -8   12   11     -0.84      0.00
   -7   12   11     -0.21      0.00
   -6   12   11      3.24      0.00
   -5   12   11      4.93      0.00
   -4   12   11      2.83      0.00
   -3   12   11     -3.70      0.00
   -2   12   11     -1.97      0.00
   -1   12   11      0.79      0.00
    0   12   11      1.06      0.00
    1   12   11     -6.37      0.00
    2   12   11      1.00      0.00
    3   12   11     -0.85      0.00
    4   12   11     -0.86      0.00
   -6   13   11      0.45      0.00
   -5   13   11      5.17      0.00
   -4   13   11      3.99      0.00
   -3   13   11     -0.56      0.00
   -2   13   11     -0.38      0.00
   -1   13   11     -1.05      0.00
    0   13   11     -3.17      0.00
    1   13   11      1.12      0.00
    2   13   11     -2.93      0.00
  -16    0   12     -1.52      0.00
  -14    0   12      1.89      0.00
  -12    0   12     -6.07      0.00
  -10    0   12      2.57      0.00
   -8    0   12     -1.88      0.00
   -6    0   12     17.37      0.00
   -4    0   12     -8.56      0.00
   -2    0   12     -1.26      0.00
    0    0   12      1.30      0.00
    2    0   12     -0.97      0.00
    4    0   12     -7.06      0.00
    6    0   12      1.21      0.00
    8    0   12      3.91      0.00
   10    0   12      3.73      0.00
   12    0   12     -2.30      0.00
  -17    1   12     -1.76      0.00
  -16    1   12     -0.19      0.00
  -15    1   12      3.03      0.00
  -14    1   12      2.13      0.00
  -13    1   12     -3.95      0.00
  -12    1   12      0.12      0.00
  -11    1   12      0.18      0.00
  -10    1   12      1.22      0.00
   -9    1   12     -1.98      0.00
   -8    1   12     -3.95      0.00
   -7    1   12     10.20      0.00
   -6    1   12      2.45      0.00
   -5    1   12      3.51      0.00
   -4    1   12      1.80      0.00
   -3    1   12     -5.08      0.00
   -2    1   12      2.08      0.00
   -1    1   12     -3.91      0.00
    0    1   12     -0.61      0.00
    1    1   12      4.89      0.00
    2    1   12      4.33      0.00
    3    1   12     -7.35      0.00
    4    1   12     -1.76      0.00
    5    1   12     -1.31      0.00
    6    1   12     -0.87      0.00
    7    1   12      0.74      0.00
    8    1   12     -1.01      0.00
    9    1   12      5.83      0.00
   10    1   12      3.14      0.00
   11    1   12     -1.04      0.00
   12    1   12      1.17      0.00
   13    1   12     -1.78      0.00
  -17    2   12      0.63      0.00
  -16    2   12     -1.01      0.00
  -15    2   12     -0.82      0.00
  -14    2   12      1.74      0.00
  -13    2   12      3.68      0.00
  -12    2   12     -4.23      0.00
  -11    2   12     -2.24      0.00
  -10    2   12      2.45      0.00
   -9    2   12      0.60      0.00
   -8    2   12      0.17      0.00
   -7    2   12     -6.05      0.00
   -6    2   12     11.41      0.00
   -5    2   12     10.29      0.00
   -4    2   12     -6.16      0.00
   -3    2   12     -1.70      0.00
   -2    2   12     -5.65      0.00
   -1    2   12      2.37      0.00
    0    2   12      1.07      0.00
    1    2   12      1.55      0.00
    2    2   12      0.35      0.00
    3    2   12      3.68      0.00
    4    2   12     -2.62      0.00
    5    2   12     -4.11      0.00
    6    2   12      0.01      0.00
    7    2   12     -1.99      0.00
    8    2   12      1.16      0.00
    9    2   12     -0.08      0.00
   10    2   12      2.30      0.00
   11    2   12      4.18      0.00
   12    2   12     -0.09      0.00
   13    2   12      3.13      0.00
  -17    3   12     -1.69      0.00
  -16    3   12     -1.12      0.00
  -15    3   12      0.24      0.00
  -14    3   12      3.46      0.00
  -13    3   12     -2.81      0.00
  -12    3   12     -1.56      0.00
  -11    3   12     -0.22      0.00
  -10    3   12      0.66      0.00
   -9    3   12      1.35      0.00
   -8    3   12     -5.41      0.00
   -7    3   12      3.68      0.00
   -6    3   12      6.59      0.00
   -5    3   12      3.10      0.00
   -4    3   12      4.64      0.00
   -3    3   12     -7.18      0.00
   -2    3   12      0.43      0.00
   -1    3   12     -3.56      0.00
    0    3   12     -5.04      0.00
    1    3   12      0.90      0.00
    2    3   12      6.81      0.00
    3    3   12      1.39      0.00
    4    3   12     -2.62      0.00
    5    3   12      1.04      0.00
    6    3   12     -1.97      0.00
    7    3   12      0.82      0.00
    8    3   12     -5.03      0.00
    9    3   12     -0.29      0.00
   10    3   12      3.16      0.00
   11    3   12     -1.05      0.00
   12    3   12      1.73      0.00
   13    3   12     -0.65      0.00
  -17    4   12      3.28      0.00
  -16    4   12      0.40      0.00
  -15    4   12     -0.53      0.00
  -14    4   12     -1.58      0.00
  -13    4   12      3.85      0.00
  -12    4   12     -1.23      0.00
  -11    4   12     -4.87      0.00
  -10    4   12      0.11      0.00
   -9    4   12      0.96      0.00
   -8    4   12      0.59      0.00
   -7    4   12     -3.47      0.00
   -6    4   12      2.03      0.00
   -5    4   12     13.31      0.00
   -4    4   12      2.17      0.00
   -3    4   12     -0.81      0.00
   -2    4   12     -8.10      0.00
   -1    4   12     -5.24      0.00
    0    4   12     -0.30      0.00
    1    4   12     -1.11      0.00
    2    4   12     -2.93      0.00
    3    4   12      3.20      0.00
    4    4   12      3.04      0.00
    5    4   12     -2.87      0.00
    6    4   12      0.88      0.00
    7    4   12     -1.80      0.00
    8    4   12     -0.71      0.00
    9    4   12     -1.59      0.00
   10    4   12     -1.85      0.00
   11    4   12      1.23      0.00
   12    4   12     -1.34      0.00
  -16    5   12      0.34      0.00
  -15    5   12     -0.09      0.00
  -14    5   12      3.03      0.00
  -13    5   12     -0.06      0.00
  -12    5   12     -1.73      0.00
  -11    5   12     -0.82      0.00
  -10    5   12     -1.97      0.00
   -9    5   12      2.22      0.00
   -8    5   12     -3.42      0.00
   -7    5   12     -3.66      0.00
   -6    5   12      5.04      0.00
   -5    5   12      5.63      0.00
   -4    5   12      8.29      0.00
   -3    5   12     -1.75      0.00
   -2    5   12     -1.85      0.00
   -1    5   12     -0.15      0.00
    0    5   12     -5.23      0.00
    1    5   12     -8.44      0.00
    2    5   12      2.59      0.00
    3    5   12      0.68      0.00
    4    5   12     -2.27      0.00
    5    5   12      0.82      0.00
    6    5   12     -0.33      0.00
    7    5   12      1.20      0.00
    8    5   12     -1.16      0.00
    9    5   12     -3.57      0.00
   10    5   12      2.32      0.00
   11    5   12     -0.54      0.00
   12    5   12      0.53      0.00
  -16    6   12      2.77      0.00
  -15    6   12      0.67      0.00
  -14    6   12     -1.72      0.00
  -13    6   12      2.28      0.00
  -12    6   12      2.69      0.00
  -11    6   12     -3.99      0.00
  -10    6   12     -0.87      0.00
   -9    6   12     -0.69      0.00
   -8    6   12      0.39      0.00
   -7    6   12     -3.24      0.00
   -6    6   12     -3.45      0.00
   -5    6   12      7.28      0.00
   -4    6   12      8.90      0.00
   -3    6   12      5.39      0.00
   -2    6   12     -1.73      0.00
   -1    6   12     -4.09      0.00
    1    6   12      1.36      0.00
    2    6   12     -6.45      0.00
    3    6   12     -2.81      0.00
    4    6   12      4.34      0.00
    5    6   12     -2.12      0.00
    6    6   12     -0.03      0.00
    7    6   12     -0.04      0.00
    8    6   12     -0.54      0.00
    9    6   12      1.36      0.00
   10    6   12     -1.82      0.00
   11    6   12      0.82      0.00
  -15    7   12      0.53      0.00
  -14    7   12      0.06      0.00
  -13    7   12      2.40      0.00
  -12    7   12     -0.13      0.00
  -11    7   12      0.40      0.00
  -10    7   12     -3.69      0.00
   -9    7   12      2.02      0.00
   -8    7   12      0.10      0.00
   -7    7   12     -5.52      0.00
   -6    7   12     -2.47      0.00
   -5    7   12      4.53      0.00
   -4    7   12      6.42      0.00
   -3    7   12      5.18      0.00
   -2    7   12     -0.02      0.00
   -1    7   12      2.64      0.00
    0    7   12      1.67      0.00
    1    7   12     -7.51      0.00
    2    7   12     -1.95      0.00
    3    7   12      1.48      0.00
    4    7   12     -2.87      0.00
    5    7   12      1.52      0.00
    6    7   12      0.37      0.00
    7    7   12      2.14      0.00
    8    7   12      0.93      0.00
    9    7   12     -2.81      0.00
   10    7   12      0.14      0.00
   11    7   12     -0.87      0.00
  -14    8   12      0.19      0.00
  -13    8   12     -1.16      0.00
  -12    8   12      3.46      0.00
  -11    8   12     -1.26      0.00
  -10    8   12     -1.30      0.00
   -9    8   12     -1.06      0.00
   -8    8   12      0.67      0.00
   -7    8   12     -2.91      0.00
   -6    8   12     -4.53      0.00
   -5    8   12     -2.79      0.00
   -4    8   12      7.57      0.00
   -3    8   12      7.62      0.00
   -2    8   12      3.70      0.00
   -1    8   12      1.24      0.00
    0    8   12     -2.08      0.00
    1    8   12      3.75      0.00
    2    8   12     -3.21      0.00
    3    8   12     -5.02      0.00
    4    8   12      0.74      0.00
    5    8   12      1.59      0.00
    6    8   12      0.50      0.00
    7    8   12      0.51      0.00
    8    8   12     -1.02      0.00
    9    8   12      2.39      0.00
   10    8   12     -0.37      0.00
  -13    9   12     -0.83      0.00
  -12    9   12      0.89      0.00
  -11    9   12     -0.15      0.00
  -10    9   12     -2.25      0.00
   -9    9   12      0.92      0.00
   -8    9   12      1.32      0.00
   -7    9   12     -1.95      0.00
   -6    9   12     -5.72      0.00
   -5    9   12     -2.62      0.00
   -4    9   12      1.75      0.00
   -3    9   12      3.80      0.00
   -2    9   12      5.32      0.00
   -1    9   12      1.29      0.00
    0    9   12      6.07      0.00
    1    9   12     -2.54      0.00
    2    9   12     -2.14      0.00
    3    9   12     -1.07      0.00
    4    9   12     -2.62      0.00
    5    9   12     -1.58      0.00
    6    9   12     -0.96      0.00
    7    9   12     -0.20      0.00
    8    9   12      3.35      0.00
  -12   10   12     -0.81      0.00
  -11   10   12     -0.55      0.00
  -10   10   12     -1.35      0.00
   -9   10   12     -0.61      0.00
   -8   10   12      1.93      0.00
   -7   10   12      0.47      0.00
   -6   10   12     -4.94      0.00
   -5   10   12     -5.25      0.00
   -4   10   12     -3.72      0.00
   -3   10   12      4.50      0.00
   -2   10   12      3.89      0.00
   -1   10   12      2.52      0.00
    0   10   12     -2.53      0.00
    1   10   12      1.06      0.00
    2   10   12      3.92      0.00
    3   10   12     -4.46      0.00
    4   10   12     -3.18      0.00
    5   10   12     -3.10      0.00
    6   10   12     -0.70      0.00
    7   10   12     -0.07      0.00
  -10   11   12     -4.04      0.00
   -9   11   12     -1.30      0.00
   -8   11   12      1.27      0.00
   -7   11   12     -1.45      0.00
   -6   11   12     -0.62      0.00
   -5   11   12     -6.13      0.00
   -4   11   12     -3.16      0.00
   -3   11   12      1.76      0.00
   -2   11   12      0.61      0.00
   -1   11   12      0.44      0.00
    0   11   12      0.97      0.00
    1   11   12      3.92      0.00
    2   11   12     -2.34      0.00
    3   11   12      3.11      0.00
    4   11   12     -1.62      0.00
    5   11   12      0.19      0.00
   -8   12   12     -2.70      0.00
   -7   12   12      1.47      0.00
   -6   12   12     -2.42      0.00
   -5   12   12     -4.90      0.00
   -4   12   12     -3.71      0.00
   -3   12   12     -1.68      0.00
   -2   12   12      3.58      0.00
   -1   12   12      2.20      0.00
    0   12   12      0.65      0.00
    1   12   12     -2.43      0.00
    2   12   12      8.05      0.00
    3   12   12      1.10      0.00
   -4   13   12     -4.94      0.00
   -3   13   12      0.26      0.00
   -2   13   12      1.44      0.00
   -1   13   12     -1.66      0.00
  -17    0   13      1.14      0.00
  -15    0   13     -1.79      0.00
  -13    0   13      0.65      0.00
  -11    0   13      1.45      0.00
   -9    0   13     -0.43      0.00
   -7    0   13     -3.26      0.00
   -5    0   13    -11.92      0.00
   -3    0   13      6.31      0.00
   -1    0   13      2.26      0.00
    1    0   13     -4.89      0.00
    3    0   13      3.39      0.00
    5    0   13      3.33      0.00
    7    0   13     -1.06      0.00
    9    0   13     -5.47      0.00
   11    0   13     -0.90      0.00
  -17    1   13     -0.35      0.00
  -16    1   13      2.32      0.00
  -15    1   13      0.70      0.00
  -14    1   13     -4.13      0.00
  -13    1   13     -2.20      0.00
  -12    1   13      5.28      0.00
  -11    1   13      1.16      0.00
  -10    1   13     -3.25      0.00
   -9    1   13     -1.91      0.00
   -8    1   13      3.99      0.00
   -7    1   13      4.76      0.00
   -6    1   13    -15.22      0.00
   -5    1   13     -4.65      0.00
   -4    1   13      3.04      0.00
   -3    1   13      1.24      0.00
   -2    1   13      2.70      0.00
   -1    1   13     -0.59      0.00
    0    1   13      0.57      0.00
    1    1   13      0.91      0.00
    2    1   13     -2.73      0.00
    3    1   13     -3.60      0.00
    4    1   13      5.34      0.00
    5    1   13      1.25      0.00
    6    1   13      0.38      0.00
    7    1   13      0.87      0.00
    8    1   13     -0.87      0.00
    9    1   13      1.61      0.00
   10    1   13     -4.75      0.00
   11    1   13     -2.83      0.00
   12    1   13      0.15      0.00
  -17    2   13      0.91      0.00
  -16    2   13      1.22      0.00
  -15    2   13     -1.20      0.00
  -14    2   13     -0.60      0.00
  -13    2   13      1.02      0.00
  -12    2   13     -0.72      0.00
  -11    2   13      2.27      0.00
  -10    2   13      0.23      0.00
   -9    2   13     -1.06      0.00
   -8    2   13      2.51      0.00
   -7    2   13     -3.35      0.00
   -6    2   13      2.21      0.00
   -5    2   13     -9.08      0.00
   -4    2   13     -6.37      0.00
   -3    2   13      5.48      0.00
   -2    2   13      1.02      0.00
   -1    2   13      4.86      0.00
    0    2   13      2.39      0.00
    1    2   13     -1.68      0.00
    2    2   13     -3.86      0.00
    3    2   13      0.80      0.00
    4    2   13     -1.73      0.00
    5    2   13      1.70      0.00
    6    2   13      1.16      0.00
    7    2   13      0.32      0.00
    8    2   13      4.03      0.00
    9    2   13     -1.11      0.00
   10    2   13     -0.98      0.00
   11    2   13      0.39      0.00
   12    2   13     -2.37      0.00
  -17    3   13     -2.53      0.00
  -16    3   13      1.10      0.00
  -15    3   13      3.04      0.00
  -14    3   13     -0.30      0.00
  -13    3   13     -3.83      0.00
  -12    3   13      3.77      0.00
  -11    3   13      4.03      0.00
  -10    3   13     -0.37      0.00
   -9    3   13     -2.01      0.00
   -8    3   13     -0.88      0.00
   -7    3   13      8.56      0.00
   -6    3   13     -7.00      0.00
   -5    3   13    -10.05      0.00
   -4    3   13     -1.57      0.00
   -3    3   13     -0.41      0.00
   -2    3   13      7.98      0.00
   -1    3   13      0.92      0.00
    0    3   13      1.90      0.00
    1    3   13      4.03      0.00
    2    3   13      0.92      0.00
    3    3   13     -4.30      0.00
    4    3   13     -1.54      0.00
    5    3   13      2.14      0.00
    6    3   13     -0.84      0.00
    7    3   13      1.56      0.00
    8    3   13     -0.14      0.00
    9    3   13      4.39      0.00
   10    3   13      1.17      0.00
   11    3   13     -1.86      0.00
   12    3   13      1.87      0.00
  -16    4   13     -1.34      0.00
  -15    4   13      0.40      0.00
  -14    4   13     -1.34      0.00
  -13    4   13      2.36      0.00
  -12    4   13     -0.56      0.00
  -11    4   13      1.63      0.00
  -10    4   13      2.54      0.00
   -9    4   13     -0.56      0.00
   -8    4   13      2.81      0.00
   -7    4   13     -0.38      0.00
   -6    4   13      0.51      0.00
   -5    4   13     -4.22      0.00
   -4    4   13    -10.98      0.00
   -3    4   13      0.40      0.00
   -2    4   13     -0.19      0.00
   -1    4   13      4.55      0.00
    0    4   13      6.45      0.00
    1    4   13      3.88      0.00
    2    4   13      0.02      0.00
    3    4   13      0.61      0.00
    4    4   13      0.50      0.00
    5    4   13     -1.77      0.00
    6    4   13      1.77      0.00
    7    4   13     -2.47      0.00
    8    4   13      2.96      0.00
    9    4   13      1.26      0.00
   10    4   13     -1.38      0.00
   11    4   13      1.20      0.00
   12    4   13     -0.51      0.00
  -16    5   13     -2.44      0.00
  -15    5   13      0.11      0.00
  -14    5   13      2.46      0.00
  -13    5   13     -4.09      0.00
  -12    5   13      0.06      0.00
  -11    5   13      3.80      0.00
  -10    5   13      2.11      0.00
   -9    5   13      0.00      0.00
   -8    5   13     -1.77      0.00
   -7    5   13      6.02      0.00
   -6    5   13      3.35      0.00
   -5    5   13     -9.13      0.00
   -4    5   13     -7.13      0.00
   -3    5   13     -7.45      0.00
   -2    5   13      3.53      0.00
   -1    5   13      2.03      0.00
    0    5   13     -0.23      0.00
    1    5   13      1.98      0.00
    2    5   13      7.25      0.00
    3    5   13     -0.28      0.00
    4    5   13     -1.77      0.00
    5    5   13      2.57      0.00
    6    5   13     -0.31      0.00
    7    5   13     -0.06      0.00
    8    5   13     -0.69      0.00
    9    5   13     -0.59      0.00
   10    5   13      1.64      0.00
   11    5   13     -1.95      0.00
  -15    6   13     -0.64      0.00
  -14    6   13     -1.98      0.00
  -13    6   13      1.07      0.00
  -12    6   13     -1.58      0.00
  -11    6   13     -0.33      0.00
  -10    6   13      3.51      0.00
   -9    6   13     -1.22      0.00
   -8    6   13      1.37      0.00
   -7    6   13      3.22      0.00
   -6    6   13      1.74      0.00
   -5    6   13      0.99      0.00
   -4    6   13     -9.24      0.00
   -3    6   13     -4.85      0.00
   -2    6   13     -4.04      0.00
   -1    6   13     -1.41      0.00
    0    6   13      0.97      0.00
    1    6   13      4.82      0.00
    2    6   13     -0.80      0.00
    3    6   13      1.98      0.00
    4    6   13      2.62      0.00
    5    6   13     -2.45      0.00
    6    6   13      0.46      0.00
    7    6   13     -1.02      0.00
    8    6   13     -0.75      0.00
    9    6   13      2.85      0.00
   10    6   13     -1.92      0.00
  -15    7   13     -2.12      0.00
  -14    7   13      1.56      0.00
  -13    7   13     -0.89      0.00
  -12    7   13     -2.87      0.00
  -11    7   13      1.59      0.00
  -10    7   13      1.88      0.00
   -9    7   13      2.34      0.00
   -8    7   13     -2.52      0.00
   -7    7   13      2.12      0.00
   -6    7   13      7.69      0.00
   -5    7   13     -0.31      0.00
   -4    7   13     -5.59      0.00
   -3    7   13     -7.57      0.00
   -2    7   13     -2.54      0.00
   -1    7   13      0.67      0.00
    0    7   13     -2.39      0.00
    1    7   13     -2.76      0.00
    2    7   13      4.62      0.00
    3    7   13      3.53      0.00
    4    7   13     -2.69      0.00
    5    7   13      0.76      0.00
    6    7   13     -0.78      0.00
    7    7   13     -0.10      0.00
    8    7   13     -1.13      0.00
    9    7   13     -2.31      0.00
   10    7   13      1.62      0.00
  -14    8   13      1.29      0.00
  -13    8   13     -0.36      0.00
  -12    8   13      0.66      0.00
  -11    8   13     -1.49      0.00
  -10    8   13      3.34      0.00
   -9    8   13      0.25      0.00
   -8    8   13     -0.50      0.00
   -7    8   13      1.72      0.00
   -6    8   13      4.02      0.00
   -5    8   13      3.85      0.00
   -4    8   13      0.89      0.00
   -3    8   13     -5.83      0.00
   -2    8   13     -4.31      0.00
   -1    8   13     -4.10      0.00
    0    8   13     -3.00      0.00
    1    8   13      2.30      0.00
    2    8   13     -1.19      0.00
    3    8   13      1.85      0.00
    4    8   13      3.39      0.00
    5    8   13      0.75      0.00
    6    8   13     -0.24      0.00
    7    8   13     -1.95      0.00
    8    8   13     -0.99      0.00
  -13    9   13      2.87      0.00
  -12    9   13     -0.47      0.00
  -11    9   13      0.10      0.00
  -10    9   13      2.21      0.00
   -9    9   13      2.23      0.00
   -8    9   13     -2.10      0.00
   -7    9   13      0.79      0.00
   -6    9   13      3.88      0.00
   -5    9   13      7.15      0.00
   -4    9   13      1.32      0.00
   -3    9   13     -2.96      0.00
   -2    9   13     -2.90      0.00
   -1    9   13     -2.23      0.00
    0    9   13      1.52      0.00
    1    9   13     -5.46      0.00
    2    9   13      0.43      0.00
    3    9   13      3.06      0.00
    4    9   13      4.39      0.00
    5    9   13      0.97      0.00
    6    9   13      1.44      0.00
    7    9   13      2.25      0.00
  -11   10   13      1.75      0.00
  -10   10   13      2.36      0.00
   -9   10   13      1.36      0.00
   -8   10   13      1.70      0.00
   -7   10   13     -1.21      0.00
   -6   10   13      2.10      0.00
   -5   10   13      4.61      0.00
   -4   10   13      5.01      0.00
   -3   10   13      2.02      0.00
   -2   10   13     -2.88      0.00
   -1   10   13     -0.19      0.00
    0   10   13     -3.26      0.00
    1   10   13      1.90      0.00
    2   10   13     -1.56      0.00
    3   10   13     -1.71      0.00
    4   10   13      1.58      0.00
    5   10   13      2.95      0.00
    6   10   13      3.07      0.00
  -10   11   13      2.41      0.00
   -9   11   13      5.31      0.00
   -8   11   13      0.51      0.00
   -7   11   13      0.14      0.00
   -6   11   13      2.91      0.00
   -5   11   13      2.66      0.00
   -4   11   13      5.58      0.00
   -3   11   13      0.51      0.00
   -2   11   13     -3.23      0.00
   -1   11   13     -1.97      0.00
    0   11   13      2.88      0.00
    1   11   13     -1.05      0.00
    2   11   13     -7.02      0.00
    3   11   13     -1.80      0.00
    4   11   13     -0.49      0.00
   -7   12   13      3.63      0.00
   -6   12   13     -1.92      0.00
   -5   12   13      3.59      0.00
   -4   12   13      3.68      0.00
   -3   12   13      0.22      0.00
   -2   12   13      0.20      0.00
   -1   12   13     -0.33      0.00
    0   12   13     -2.07      0.00
    1   12   13     -2.65      0.00
  -16    0   14     -3.76      0.00
  -14    0   14      3.97      0.00
  -12    0   14     -4.36      0.00
  -10    0   14      2.29      0.00
   -8    0   14     -4.60      0.00
   -6    0   14     10.30      0.00
   -4    0   14      3.03      0.00
   -2    0   14     -4.08      0.00
    0    0   14     -2.51      0.00
    2    0   14      4.19      0.00
    4    0   14     -3.43      0.00
    6    0   14     -0.93      0.00
    8    0   14     -0.49      0.00
   10    0   14      4.88      0.00
   12    0   14      1.00      0.00
  -17    1   14     -0.74      0.00
  -16    1   14      0.02      0.00
  -15    1   14     -0.91      0.00
  -14    1   14     -0.33      0.00
  -13    1   14      1.67      0.00
  -12    1   14      0.71      0.00
  -11    1   14     -4.50      0.00
  -10    1   14     -1.46      0.00
   -9    1   14      2.53      0.00
   -8    1   14      0.67      0.00
   -7    1   14     -3.79      0.00
   -6    1   14     -4.02      0.00
   -5    1   14     14.48      0.00
   -4    1   14      4.50      0.00
   -3    1   14     -4.85      0.00
   -2    1   14     -1.60      0.00
   -1    1   14     -3.51      0.00
    0    1   14     -1.52      0.00
    1    1   14      1.40      0.00
    2    1   14      0.35      0.00
    3    1   14      0.80      0.00
    4    1   14      2.40      0.00
    5    1   14     -3.46      0.00
    6    1   14     -0.67      0.00
    7    1   14      0.02      0.00
    8    1   14     -2.20      0.00
    9    1   14      1.08      0.00
   10    1   14     -1.04      0.00
   11    1   14      1.63      0.00
   12    1   14      2.07      0.00
  -17    2   14      1.20      0.00
  -16    2   14     -2.43      0.00
  -15    2   14     -3.20      0.00
  -14    2   14      2.29      0.00
  -13    2   14      1.58      0.00
  -12    2   14     -4.14      0.00
  -11    2   14     -2.55      0.00
  -10    2   14     -0.09      0.00
   -9    2   14      1.82      0.00
   -8    2   14     -1.91      0.00
   -7    2   14     -6.28      0.00
   -6    2   14      7.36      0.00
   -5    2   14      2.89      0.00
   -4    2   14      3.93      0.00
   -3    2   14      1.57      0.00
   -2    2   14     -4.64      0.00
   -1    2   14     -0.91      0.00
    0    2   14     -2.84      0.00
    1    2   14     -3.79      0.00
    2    2   14      0.40      0.00
    3    2   14      4.27      0.00
    4    2   14     -1.26      0.00
    5    2   14      0.79      0.00
    6    2   14     -1.13      0.00
    7    2   14     -0.02      0.00
    8    2   14     -0.61      0.00
    9    2   14     -5.06      0.00
   10    2   14      0.67      0.00
   11    2   14      1.10      0.00
  -16    3   14      0.99      0.00
  -15    3   14     -0.12      0.00
  -14    3   14     -2.46      0.00
  -13    3   14     -0.83      0.00
  -12    3   14      1.69      0.00
  -11    3   14     -3.48      0.00
  -10    3   14     -3.85      0.00
   -9    3   14      0.45      0.00
   -8    3   14      0.22      0.00
   -7    3   14      0.88      0.00
   -6    3   14     -7.82      0.00
   -5    3   14      7.91      0.00
   -4    3   14     10.07      0.00
   -3    3   14      0.68      0.00
   -2    3   14     -0.23      0.00
   -1    3   14     -5.96      0.00
    0    3   14     -3.92      0.00
    1    3   14     -2.30      0.00
    2    3   14     -1.97      0.00
    3    3   14     -1.19      0.00
    4    3   14      2.43      0.00
    5    3   14     -0.52      0.00
    6    3   14     -0.61      0.00
    7    3   14      1.49      0.00
    8    3   14     -2.60      0.00
    9    3   14      0.26      0.00
   10    3   14     -1.08      0.00
   11    3   14     -1.59      0.00
  -16    4   14      1.42      0.00
  -15    4   14     -1.28      0.00
  -14    4   14     -0.79      0.00
  -13    4   14      2.85      0.00
  -12    4   14     -2.40      0.00
  -11    4   14     -3.03      0.00
  -10    4   14     -1.95      0.00
   -9    4   14     -0.11      0.00
   -8    4   14      1.50      0.00
   -7    4   14     -7.63      0.00
   -6    4   14      1.95      0.00
   -5    4   14      4.30      0.00
   -4    4   14      6.44      0.00
   -3    4   14      7.99      0.00
   -2    4   14     -2.09      0.00
   -1    4   14      0.07      0.00
    0    4   14     -0.76      0.00
    1    4   14     -5.02      0.00
    2    4   14     -4.20      0.00
    3    4   14     -0.37      0.00
    4    4   14      0.35      0.00
    5    4   14     -1.79      0.00
    6    4   14      0.73      0.00
    7    4   14     -1.02      0.00
    8    4   14      2.91      0.00
    9    4   14     -2.17      0.00
   10    4   14     -0.13      0.00
   11    4   14      2.60      0.00
  -15    5   14      1.90      0.00
  -14    5   14      0.78      0.00
  -13    5   14     -2.10      0.00
  -12    5   14      3.19      0.00
  -11    5   14     -0.20      0.00
  -10    5   14     -3.55      0.00
   -9    5   14     -1.04      0.00
   -8    5   14     -0.92      0.00
   -7    5   14      0.78      0.00
   -6    5   14     -6.29      0.00
   -5    5   14     -0.95      0.00
   -4    5   14      9.85      0.00
   -3    5   14      6.67      0.00
   -2    5   14      6.38      0.00
   -1    5   14     -0.69      0.00
    0    5   14     -1.32      0.00
    1    5   14     -1.46      0.00
    2    5   14     -0.04      0.00
    3    5   14     -3.48      0.00
    4    5   14     -0.52      0.00
    5    5   14      1.61      0.00
    6    5   14     -2.20      0.00
    7    5   14      1.69      0.00
    8    5   14     -0.89      0.00
    9    5   14     -0.67      0.00
   10    5   14      1.84      0.00
  -15    6   14      1.68      0.00
  -14    6   14     -1.53      0.00
  -13    6   14      3.32      0.00
  -12    6   14      0.45      0.00
  -11    6   14     -0.22      0.00
  -10    6   14     -2.18      0.00
   -9    6   14     -1.88      0.00
   -8    6   14      3.12      0.00
   -7    6   14     -4.15      0.00
   -6    6   14     -5.70      0.00
   -5    6   14      0.56      0.00
   -4    6   14      2.08      0.00
   -3    6   14      8.81      0.00
   -2    6   14      1.08      0.00
   -1    6   14      2.59      0.00
    0    6   14      2.31      0.00
    1    6   14      1.75      0.00
    2    6   14     -4.43      0.00
    3    6   14      0.18      0.00
    4    6   14      0.87      0.00
    5    6   14     -1.57      0.00
    6    6   14      1.20      0.00
    7    6   14      0.34      0.00
    8    6   14      0.81      0.00
    9    6   14      1.68      0.00
   10    6   14     -2.66      0.00
  -14    7   14      1.96      0.00
  -13    7   14     -2.34      0.00
  -12    7   14      2.05      0.00
  -11    7   14      1.75      0.00
  -10    7   14     -3.09      0.00
   -9    7   14     -1.37      0.00
   -8    7   14     -0.98      0.00
   -7    7   14      0.37      0.00
   -6    7   14     -3.51      0.00
   -5    7   14     -7.87      0.00
   -4    7   14      1.40      0.00
   -3    7   14      4.37      0.00
   -2    7   14      6.22      0.00
   -1    7   14      2.21      0.00
    0    7   14      0.50      0.00
    1    7   14      0.16      0.00
    2    7   14      1.99      0.00
    3    7   14     -2.03      0.00
    4    7   14     -3.70      0.00
    5    7   14      2.33      0.00
    6    7   14      0.01      0.00
    7    7   14      1.53      0.00
    8    7   14      0.95      0.00
    9    7   14     -1.52      0.00
  -13    8   14     -1.33      0.00
  -12    8   14      1.20      0.00
  -11    8   14     -0.20      0.00
  -10    8   14     -1.09      0.00
   -9    8   14     -3.67      0.00
   -8    8   14      1.07      0.00
   -7    8   14     -0.53      0.00
   -6    8   14     -5.26      0.00
   -5    8   14     -4.09      0.00
   -4    8   14     -2.27      0.00
   -3    8   14      1.34      0.00
   -2    8   14      3.23      0.00
   -1    8   14      0.75      0.00
    0    8   14      2.82      0.00
    1    8   14      2.94      0.00
    2    8   14     -1.07      0.00
    3    8   14     -2.03      0.00
    4    8   14     -1.95      0.00
    5    8   14     -1.89      0.00
    6    8   14     -1.19      0.00
    7    8   14     -1.97      0.00
    8    8   14      0.78      0.00
  -12    9   14     -1.06      0.00
  -11    9   14      1.35      0.00
  -10    9   14     -1.07      0.00
   -9    9   14     -3.19      0.00
   -8    9   14     -1.87      0.00
   -7    9   14      0.84      0.00
   -6    9   14     -1.85      0.00
   -5    9   14     -4.73      0.00
   -4    9   14     -7.47      0.00
   -3    9   14     -0.48      0.00
   -2    9   14      2.49      0.00
   -1    9   14      1.80      0.00
    0    9   14      0.48      0.00
    1    9   14     -2.38      0.00
    2    9   14      4.20      0.00
    3    9   14      0.00      0.00
    4    9   14     -2.38      0.00
    5    9   14     -4.47      0.00
    6    9   14     -2.05      0.00
  -11   10   14      1.51      0.00
  -10   10   14     -3.21      0.00
   -9   10   14     -3.06      0.00
   -8   10   14     -0.58      0.00
   -7   10   14     -3.10      0.00
   -6   10   14     -0.06      0.00
   -5   10   14     -3.91      0.00
   -4   10   14     -3.32      0.00
   -3   10   14     -1.91      0.00
   -2   10   14      0.71      0.00
   -1   10   14      1.37      0.00
    0   10   14     -3.16      0.00
    1   10   14      3.10      0.00
    2   10   14      2.64      0.00
    3   10   14      2.82      0.00
    4   10   14     -0.97      0.00
    5   10   14      0.59      0.00
   -9   11   14     -1.82      0.00
   -8   11   14     -5.73      0.00
   -7   11   14      0.31      0.00
   -6   11   14     -1.06      0.00
   -5   11   14     -1.30      0.00
   -4   11   14     -3.44      0.00
   -3   11   14     -2.77      0.00
   -2   11   14      1.16      0.00
   -1   11   14      2.19      0.00
    0   11   14      2.86      0.00
    1   11   14     -2.74      0.00
    2   11   14      2.10      0.00
   -5   12   14      0.86      0.00
   -4   12   14     -3.38      0.00
   -3   12   14     -1.45      0.00
  -15    0   15      3.36      0.00
  -13    0   15     -3.20      0.00
  -11    0   15      6.49      0.00
   -9    0   15     -3.21      0.00
   -7    0   15      8.92      0.00
   -5    0   15    -14.16      0.00
   -3    0   15      1.89      0.00
   -1    0   15      4.76      0.00
    1    0   15      1.29      0.00
    3    0   15     -3.32      0.00
    5    0   15      3.04      0.00
    7    0   15      0.13      0.00
    9    0   15      1.53      0.00
   11    0   15     -2.36      0.00
  -16    1   15      3.76      0.00
  -15    1   15      0.59      0.00
  -14    1   15     -1.34      0.00
  -13    1   15     -0.53      0.00
  -12    1   15      2.46      0.00
  -11    1   15      0.78      0.00
  -10    1   15      2.04      0.00
   -9    1   15     -0.04      0.00
   -8    1   15      1.72      0.00
   -7    1   15      1.29      0.00
   -6    1   15     -0.88      0.00
   -5    1   15      1.37      0.00
   -4    1   15     -8.39      0.00
   -3    1   15     -2.67      0.00
   -2    1   15      3.96      0.00
   -1    1   15      0.41      0.00
    0    1   15      3.94      0.00
    1    1   15      2.34      0.00
    2    1   15     -1.82      0.00
    3    1   15     -1.10      0.00
    4    1   15     -0.03      0.00
    5    1   15     -0.66      0.00
    6    1   15      1.76      0.00
    7    1   15     -0.21      0.00
    8    1   15      1.39      0.00
    9    1   15      2.85      0.00
   10    1   15     -0.95      0.00
   11    1   15      0.33      0.00
  -16    2   15     -1.93      0.00
  -15    2   15      2.31      0.00
  -14    2   15      2.53      0.00
  -13    2   15     -1.47      0.00
  -12    2   15     -1.80      0.00
  -11    2   15      5.39      0.00
  -10    2   15      3.60      0.00
   -9    2   15     -1.23      0.00
   -8    2   15     -3.30      0.00
   -7    2   15      4.35      0.00
   -6    2   15      7.36      0.00
   -5    2   15     -9.76      0.00
   -4    2   15     -6.47      0.00
   -3    2   15     -1.28      0.00
   -2    2   15     -0.08      0.00
   -1    2   15      4.30      0.00
    0    2   15      1.97      0.00
    1    2   15      1.90      0.00
    2    2   15      2.68      0.00
    3    2   15      0.23      0.00
    4    2   15     -3.06      0.00
    5    2   15      2.34      0.00
    6    2   15     -0.18      0.00
    7    2   15      0.07      0.00
    8    2   15      0.61      0.00
    9    2   15      0.38      0.00
   10    2   15      3.04      0.00
   11    2   15      0.80      0.00
  -16    3   15     -1.05      0.00
  -15    3   15      1.19      0.00
  -14    3   15     -0.84      0.00
  -13    3   15     -0.18      0.00
  -12    3   15      2.55      0.00
  -11    3   15      0.91      0.00
  -10    3   15      2.53      0.00
   -9    3   15      1.02      0.00
   -8    3   15     -0.07      0.00
   -7    3   15      2.68      0.00
   -6    3   15     -2.57      0.00
   -5    3   15      1.81      0.00
   -4    3   15     -7.07      0.00
   -3    3   15     -8.15      0.00
   -2    3   15     -0.03      0.00
   -1    3   15     -0.62      0.00
    0    3   15      2.44      0.00
    1    3   15      4.19      0.00
    2    3   15      3.05      0.00
    3    3   15      0.39      0.00
    4    3   15      1.45      0.00
    5    3   15     -1.03      0.00
    6    3   15      2.24      0.00
    7    3   15     -0.64      0.00
    8    3   15     -1.79      0.00
    9    3   15      2.96      0.00
   10    3   15     -0.84      0.00
  -16    4   15     -4.75      0.00
  -15    4   15     -2.37      0.00
  -14    4   15      1.33      0.00
  -13    4   15      0.46      0.00
  -12    4   15     -3.57      0.00
  -11    4   15      1.54      0.00
  -10    4   15      4.12      0.00
   -9    4   15      1.54      0.00
   -8    4   15     -0.98      0.00
   -7    4   15     -1.72      0.00
   -6    4   15      9.45      0.00
   -5    4   15     -2.82      0.00
   -4    4   15     -8.00      0.00
   -3    4   15     -7.26      0.00
   -2    4   15     -6.72      0.00
   -1    4   15      0.73      0.00
    0    4   15      0.71      0.00
    1    4   15     -0.43      0.00
    2    4   15      2.43      0.00
    3    4   15      2.42      0.00
    4    4   15     -0.42      0.00
    5    4   15      0.68      0.00
    6    4   15      1.65      0.00
    7    4   15     -1.17      0.00
    8    4   15      1.84      0.00
    9    4   15     -1.83      0.00
   10    4   15     -0.18      0.00
  -15    5   15     -1.81      0.00
  -14    5   15     -0.82      0.00
  -13    5   15     -2.55      0.00
  -12    5   15      0.62      0.00
  -11    5   15     -1.09      0.00
  -10    5   15      0.99      0.00
   -9    5   15      1.75      0.00
   -8    5   15     -1.66      0.00
   -7    5   15      4.50      0.00
   -6    5   15      0.56      0.00
   -5    5   15      4.14      0.00
   -4    5   15     -1.06      0.00
   -3    5   15     -8.15      0.00
   -2    5   15     -3.84      0.00
   -1    5   15     -4.16      0.00
    0    5   15     -2.34      0.00
    1    5   15      0.27      0.00
    2    5   15      1.30      0.00
    3    5   15     -0.47      0.00
    4    5   15      0.85      0.00
    5    5   15      0.31      0.00
    6    5   15     -1.04      0.00
    7    5   15      1.54      0.00
    8    5   15     -2.43      0.00
    9    5   15      1.47      0.00
   10    5   15      1.13      0.00
  -14    6   15     -1.21      0.00
  -13    6   15      2.05      0.00
  -12    6   15     -3.95      0.00
  -11    6   15     -1.48      0.00
  -10    6   15      1.63      0.00
   -9    6   15      2.39      0.00
   -8    6   15      0.80      0.00
   -7    6   15     -2.99      0.00
   -6    6   15      6.92      0.00
   -5    6   15      6.99      0.00
   -4    6   15     -0.73      0.00
   -3    6   15     -3.14      0.00
   -2    6   15     -7.02      0.00
   -1    6   15      0.15      0.00
    0    6   15     -1.47      0.00
    1    6   15     -0.29      0.00
    2    6   15     -2.44      0.00
    3    6   15      3.09      0.00
    4    6   15      0.15      0.00
    5    6   15     -1.70      0.00
    6    6   15      0.57      0.00
    7    6   15     -1.83      0.00
    8    6   15     -0.23      0.00
    9    6   15      0.55      0.00
  -14    7   15      0.95      0.00
  -13    7   15     -1.37      0.00
  -12    7   15      1.08      0.00
  -11    7   15     -2.26      0.00
  -10    7   15      0.31      0.00
   -9    7   15      3.43      0.00
   -8    7   15     -0.81      0.00
   -7    7   15      1.68      0.00
   -6    7   15      2.82      0.00
   -5    7   15      3.36      0.00
   -4    7   15      5.77      0.00
   -3    7   15     -1.96      0.00
   -2    7   15     -1.43      0.00
   -1    7   15     -3.86      0.00
    0    7   15     -1.28      0.00
    1    7   15     -1.05      0.00
    2    7   15      1.19      0.00
    3    7   15     -0.05      0.00
    4    7   15      1.15      0.00
    5    7   15      2.69      0.00
    6    7   15     -0.69      0.00
    7    7   15      0.27      0.00
    8    7   15     -1.13      0.00
  -13    8   15      1.52      0.00
  -12    8   15     -1.01      0.00
  -11    8   15     -2.99      0.00
  -10    8   15      0.57      0.00
   -9    8   15      2.37      0.00
   -8    8   15      2.74      0.00
   -7    8   15     -1.15      0.00
   -6    8   15      1.36      0.00
   -5    8   15      7.07      0.00
   -4    8   15      4.92      0.00
   -3    8   15      0.41      0.00
   -2    8   15     -2.93      0.00
   -1    8   15     -1.45      0.00
    0    8   15      1.47      0.00
    1    8   15     -0.62      0.00
    2    8   15     -2.44      0.00
    3    8   15      0.15      0.00
    4    8   15      3.78      0.00
    5    8   15      1.94      0.00
    6    8   15      1.78      0.00
    7    8   15      0.86      0.00
  -11    9   15     -0.94      0.00
  -10    9   15     -1.17      0.00
   -9    9   15      1.74      0.00
   -8    9   15      2.46      0.00
   -7    9   15      1.92      0.00
   -6    9   15      1.02      0.00
   -5    9   15      1.48      0.00
   -4    9   15      3.50      0.00
   -3    9   15      4.93      0.00
   -2    9   15     -0.80      0.00
   -1    9   15     -0.46      0.00
    0    9   15     -0.15      0.00
    1    9   15     -0.13      0.00
    2    9   15     -0.41      0.00
    3    9   15     -3.06      0.00
    4    9   15      1.11      0.00
    5    9   15      0.12      0.00
  -10   10   15     -2.43      0.00
   -9   10   15      3.64      0.00
   -8   10   15      2.75      0.00
   -7   10   15      0.08      0.00
   -6   10   15      1.77      0.00
   -5   10   15     -0.40      0.00
   -4   10   15      5.15      0.00
   -3   10   15      1.82      0.00
   -2   10   15     -1.32      0.00
   -1   10   15     -2.77      0.00
    0   10   15     -0.22      0.00
    1   10   15      4.09      0.00
    2   10   15     -3.79      0.00
    3   10   15     -4.93      0.00
   -7   11   15      5.03      0.00
   -6   11   15     -1.06      0.00
   -5   11   15      1.68      0.00
   -4   11   15      0.11      0.00
   -3   11   15      2.15      0.00
   -2   11   15     -1.30      0.00
   -1   11   15     -1.75      0.00
    0   11   15      0.66      0.00
  -16    0   16     -2.38      0.00
  -14    0   16      0.04      0.00
  -12    0   16      0.83      0.00
  -10    0   16     -4.75      0.00
   -8    0   16      1.57      0.00
   -6    0   16     -6.62      0.00
   -4    0   16     11.58      0.00
   -2    0   16     -1.84      0.00
    0    0   16     -5.33      0.00
    2    0   16      0.29      0.00
    4    0   16      2.12      0.00
    6    0   16     -2.38      0.00
    8    0   16     -1.55      0.00
   10    0   16     -1.26      0.00
  -16    1   16      2.22      0.00
  -15    1   16     -3.78      0.00
  -14    1   16     -0.62      0.00
  -13    1   16      2.93      0.00
  -12    1   16      1.03      0.00
  -11    1   16     -5.16      0.00
  -10    1   16     -1.47      0.00
   -9    1   16      1.47      0.00
   -8    1   16      2.42      0.00
   -7    1   16     -6.61      0.00
   -6    1   16     -2.88      0.00
   -5    1   16      7.40      0.00
   -4    1   16      1.59      0.00
   -3    1   16      3.77      0.00
   -2    1   16      1.79      0.00
   -1    1   16     -3.88      0.00
    0    1   16      0.20      0.00
    1    1   16     -3.01      0.00
    2    1   16     -2.38      0.00
    3    1   16      2.24      0.00
    4    1   16      0.53      0.00
    5    1   16     -1.49      0.00
    6    1   16     -0.61      0.00
    7    1   16     -0.61      0.00
    8    1   16      0.77      0.00
    9    1   16     -2.29      0.00
   10    1   16     -1.99      0.00
  -16    2   16      0.03      0.00
  -15    2   16      1.30      0.00
  -14    2   16     -0.42      0.00
  -13    2   16     -0.57      0.00
  -12    2   16     -0.51      0.00
  -11    2   16      1.07      0.00
  -10    2   16     -4.43      0.00
   -9    2   16     -1.97      0.00
   -8    2   16      0.99      0.00
   -7    2   16      2.97      0.00
   -6    2   16     -2.61      0.00
   -5    2   16     -4.58      0.00
   -4    2   16      8.86      0.00
   -3    2   16      6.70      0.00
   -2    2   16      1.04      0.00
   -1    2   16      1.22      0.00
    0    2   16     -3.11      0.00
    1    2   16     -2.68      0.00
    2    2   16     -1.48      0.00
    3    2   16     -1.87      0.00
    4    2   16      0.19      0.00
    5    2   16      0.47      0.00
    6    2   16     -3.14      0.00
    7    2   16      0.91      0.00
    8    2   16     -0.32      0.00
    9    2   16     -1.21      0.00
   10    2   16      0.01      0.00
  -15    3   16      1.18      0.00
  -14    3   16     -1.39      0.00
  -13    3   16      1.29      0.00
  -12    3   16      2.70      0.00
  -11    3   16     -3.33      0.00
  -10    3   16     -2.84      0.00
   -9    3   16     -1.77      0.00
   -8    3   16      2.49      0.00
   -7    3   16     -1.41      0.00
   -6    3   16     -5.57      0.00
   -5    3   16      4.26      0.00
   -4    3   16      4.07      0.00
   -3    3   16      6.56      0.00
   -2    3   16      6.51      0.00
   -1    3   16     -0.30      0.00
    0    3   16      0.62      0.00
    1    3   16     -0.43      0.00
    2    3   16     -2.48      0.00
    3    3   16     -2.11      0.00
    4    3   16      0.63      0.00
    5    3   16     -2.14      0.00
    6    3   16     -0.01      0.00
    7    3   16     -1.94      0.00
    8    3   16      0.36      0.00
    9    3   16      1.30      0.00
   10    3   16     -1.03      0.00
  -15    4   16      2.81      0.00
  -14    4   16      2.29      0.00
  -13    4   16      0.64      0.00
  -12    4   16     -0.66      0.00
  -11    4   16      2.93      0.00
  -10    4   16     -1.08      0.00
   -9    4   16     -2.78      0.00
   -8    4   16     -0.59      0.00
   -7    4   16     -0.31      0.00
   -6    4   16      0.48      0.00
   -5    4   16     -7.68      0.00
   -4    4   16      1.31      0.00
   -3    4   16      7.82      0.00
   -2    4   16      5.25      0.00
   -1    4   16      5.10      0.00
    0    4   16      1.55      0.00
    1    4   16     -0.51      0.00
    2    4   16      0.32      0.00
    3    4   16     -0.69      0.00
    4    4   16     -0.98      0.00
    5    4   16      1.41      0.00
    6    4   16     -1.83      0.00
    7    4   16     -0.62      0.00
    8    4   16      1.70      0.00
    9    4   16     -2.53      0.00
  -15    5   16      2.57      0.00
  -14    5   16      0.56      0.00
  -13    5   16     -0.13      0.00
  -12    5   16      4.00      0.00
  -11    5   16      0.69      0.00
  -10    5   16     -0.69      0.00
   -9    5   16     -1.83      0.00
   -8    5   16     -0.15      0.00
   -7    5   16      2.81      0.00
   -6    5   16     -8.39      0.00
   -5    5   16     -3.43      0.00
   -4    5   16     -2.27      0.00
   -3    5   16      1.54      0.00
   -2    5   16      5.91      0.00
   -1    5   16      1.54      0.00
    0    5   16      0.83      0.00
    1    5   16      2.20      0.00
    2    5   16      0.17      0.00
    3    5   16     -0.71      0.00
    4    5   16      0.70      0.00
    5    5   16      0.04      0.00
    6    5   16      0.05      0.00
    7    5   16      1.93      0.00
    8    5   16     -1.59      0.00
    9    5   16      1.52      0.00
  -14    6   16      0.94      0.00
  -13    6   16      0.62      0.00
  -12    6   16     -1.53      0.00
  -11    6   16      3.45      0.00
  -10    6   16      0.66      0.00
   -9    6   16     -2.32      0.00
   -8    6   16      0.08      0.00
   -7    6   16     -1.55      0.00
   -6    6   16      1.49      0.00
   -5    6   16     -6.72      0.00
   -4    6   16     -6.95      0.00
   -3    6   16      0.43      0.00
   -2    6   16      1.80      0.00
   -1    6   16      4.53      0.00
    0    6   16     -0.12      0.00
    1    6   16      0.06      0.00
    2    6   16     -0.90      0.00
    3    6   16      1.47      0.00
    4    6   16     -2.49      0.00
    5    6   16     -0.01      0.00
    6    6   16      1.20      0.00
    7    6   16     -0.23      0.00
    8    6   16      2.71      0.00
  -13    7   16     -1.93      0.00
  -12    7   16      2.44      0.00
  -11    7   16      1.15      0.00
  -10    7   16      1.49      0.00
   -9    7   16     -2.14      0.00
   -8    7   16     -2.48      0.00
   -7    7   16      2.64      0.00
   -6    7   16     -2.53      0.00
   -5    7   16     -5.07      0.00
   -4    7   16     -2.87      0.00
   -3    7   16     -2.56      0.00
   -2    7   16      3.91      0.00
   -1    7   16     -0.95      0.00
    0    7   16      1.99      0.00
    1    7   16     -0.58      0.00
    2    7   16      1.70      0.00
    3    7   16     -1.32      0.00
    4    7   16     -1.44      0.00
    5    7   16     -0.95      0.00
    6    7   16     -1.82      0.00
    7    7   16     -0.03      0.00
  -12    8   16     -0.96      0.00
  -11    8   16      3.08      0.00
  -10    8   16      3.25      0.00
   -9    8   16     -1.45      0.00
   -8    8   16     -2.07      0.00
   -7    8   16     -1.63      0.00
   -6    8   16      0.63      0.00
   -5    8   16      0.20      0.00
   -4    8   16     -6.30      0.00
   -3    8   16     -4.09      0.00
   -2    8   16      0.08      0.00
   -1    8   16      3.43      0.00
    0    8   16      0.16      0.00
    1    8   16     -1.65      0.00
    2    8   16      1.02      0.00
    3    8   16      1.81      0.00
    4    8   16      0.14      0.00
    5    8   16     -2.61      0.00
    6    8   16     -1.78      0.00
  -11    9   16      3.46      0.00
  -10    9   16      1.30      0.00
   -9    9   16     -0.05      0.00
   -8    9   16     -1.66      0.00
   -7    9   16     -0.90      0.00
   -6    9   16     -0.19      0.00
   -5    9   16     -1.47      0.00
   -4    9   16     -2.88      0.00
   -3    9   16     -1.65      0.00
   -2    9   16     -0.25      0.00
   -1    9   16      1.92      0.00
    0    9   16     -1.35      0.00
    1    9   16     -1.09      0.00
    2    9   16      1.93      0.00
    3    9   16      3.59      0.00
    4    9   16      1.98      0.00
   -9   10   16      2.38      0.00
   -8   10   16     -2.47      0.00
   -7   10   16     -2.15      0.00
   -6   10   16     -0.30      0.00
   -5   10   16      0.71      0.00
   -4   10   16      0.75      0.00
   -3   10   16     -4.77      0.00
   -2   10   16      0.43      0.00
   -1   10   16      2.56      0.00
    0   10   16      2.08      0.00
    1   10   16     -0.80      0.00
   -5   11   16      1.86      0.00
   -4   11   16     -3.23      0.00
   -3   11   16     -1.16      0.00
  -15    0   17      2.20      0.00
  -13    0   17     -2.80      0.00
  -11    0   17      2.11      0.00
   -9    0   17     -0.19      0.00
   -7    0   17      2.67      0.00
   -5    0   17     -1.03      0.00
   -3    0   17     -7.41      0.00
   -1    0   17      1.58      0.00
    1    0   17      4.54      0.00
    3    0   17     -1.26      0.00
    5    0   17      0.75      0.00
    7    0   17      1.03      0.00
    9    0   17      2.14      0.00
  -15    1   17     -1.71      0.00
  -14    1   17      1.13      0.00
  -13    1   17      0.74      0.00
  -12    1   17     -2.54      0.00
  -11    1   17     -0.60      0.00
  -10    1   17      5.41      0.00
   -9    1   17      1.81      0.00
   -8    1   17     -3.88      0.00
   -7    1   17     -3.25      0.00
   -6    1   17      7.33      0.00
   -5    1   17      3.18      0.00
   -4    1   17     -9.20      0.00
   -3    1   17     -2.95      0.00
   -2    1   17     -2.72      0.00
   -1    1   17     -2.29      0.00
    0    1   17      4.09      0.00
    1    1   17      0.16      0.00
    2    1   17      1.90      0.00
    3    1   17      2.12      0.00
    4    1   17     -2.09      0.00
    5    1   17      0.66      0.00
    6    1   17      2.75      0.00
    7    1   17      0.22      0.00
    8    1   17      0.86      0.00
    9    1   17     -0.56      0.00
  -15    2   17      0.75      0.00
  -14    2   17     -0.21      0.00
  -13    2   17     -1.55      0.00
  -12    2   17     -0.53      0.00
  -11    2   17      2.69      0.00
  -10    2   17      1.11      0.00
   -9    2   17      2.46      0.00
   -8    2   17     -0.69      0.00
   -7    2   17      1.73      0.00
   -6    2   17      0.49      0.00
   -5    2   17     -1.95      0.00
   -4    2   17      0.69      0.00
   -3    2   17     -6.68      0.00
   -2    2   17     -5.58      0.00
   -1    2   17      0.18      0.00
    0    2   17     -1.86      0.00
    1    2   17      1.51      0.00
    2    2   17      2.93      0.00
    3    2   17      0.06      0.00
    4    2   17      1.46      0.00
    5    2   17     -0.07      0.00
    6    2   17      1.36      0.00
    7    2   17      2.75      0.00
    8    2   17     -1.70      0.00
    9    2   17      0.77      0.00
  -15    3   17     -3.69      0.00
  -14    3   17     -1.29      0.00
  -13    3   17      0.67      0.00
  -12    3   17     -0.63      0.00
  -11    3   17     -3.46      0.00
  -10    3   17      3.19      0.00
   -9    3   17      3.69      0.00
   -8    3   17      1.19      0.00
   -7    3   17     -3.48      0.00
   -6    3   17      2.61      0.00
   -5    3   17      7.53      0.00
   -4    3   17     -3.16      0.00
   -3    3   17     -5.18      0.00
   -2    3   17     -5.41      0.00
   -1    3   17     -5.15      0.00
    0    3   17     -0.19      0.00
    1    3   17     -0.07      0.00
    2    3   17     -0.37      0.00
    3    3   17      1.92      0.00
    4    3   17     -0.39      0.00
    5    3   17     -0.67      0.00
    6    3   17      2.85      0.00
    7    3   17     -0.83      0.00
    8    3   17      1.29      0.00
    9    3   17      0.27      0.00
  -14    4   17     -0.52      0.00
  -13    4   17     -1.63      0.00
  -12    4   17     -2.54      0.00
  -11    4   17      0.69      0.00
  -10    4   17     -1.09      0.00
   -9    4   17      1.86      0.00
   -8    4   17      0.28      0.00
   -7    4   17      0.58      0.00
   -6    4   17      4.18      0.00
   -5    4   17      1.56      0.00
   -4    4   17      5.31      0.00
   -3    4   17     -0.22      0.00
   -2    4   17     -5.74      0.00
   -1    4   17     -2.17      0.00
    0    4   17     -2.12      0.00
    1    4   17     -1.99      0.00
    2    4   17     -0.07      0.00
    3    4   17     -0.22      0.00
    4    4   17      0.09      0.00
    5    4   17      0.25      0.00
    6    4   17     -1.86      0.00
    7    4   17      1.32      0.00
    8    4   17      0.04      0.00
  -14    5   17     -1.66      0.00
  -13    5   17      0.17      0.00
  -12    5   17      0.95      0.00
  -11    5   17     -3.90      0.00
  -10    5   17     -0.87      0.00
   -9    5   17      1.82      0.00
   -8    5   17      1.08      0.00
   -7    5   17     -0.71      0.00
   -6    5   17     -2.46      0.00
   -5    5   17      8.89      0.00
   -4    5   17      5.97      0.00
   -3    5   17      1.28      0.00
   -2    5   17     -1.64      0.00
   -1    5   17     -3.76      0.00
    0    5   17     -1.06      0.00
    1    5   17      1.42      0.00
    2    5   17     -1.31      0.00
    3    5   17      0.12      0.00
    4    5   17      0.68      0.00
    5    5   17     -1.28      0.00
    6    5   17     -0.06      0.00
    7    5   17     -0.59      0.00
    8    5   17     -2.90      0.00
  -13    6   17      0.41      0.00
  -12    6   17     -1.42      0.00
  -11    6   17      0.26      0.00
  -10    6   17     -1.91      0.00
   -9    6   17      1.29      0.00
   -8    6   17      2.29      0.00
   -7    6   17     -3.45      0.00
   -6    6   17      2.61      0.00
   -5    6   17     -0.27      0.00
   -4    6   17      4.09      0.00
   -3    6   17      3.94      0.00
   -2    6   17     -1.89      0.00
   -1    6   17     -1.08      0.00
    0    6   17     -1.93      0.00
    1    6   17      0.00      0.00
    2    6   17     -0.22      0.00
    3    6   17      0.34      0.00
    4    6   17     -0.57      0.00
    5    6   17      1.66      0.00
    6    6   17      0.00      0.00
    7    6   17     -1.32      0.00
  -12    7   17      1.70      0.00
  -11    7   17     -3.76      0.00
  -10    7   17     -1.93      0.00
   -9    7   17      0.69      0.00
   -8    7   17      1.83      0.00
   -7    7   17      1.16      0.00
   -6    7   17     -4.40      0.00
   -5    7   17      0.68      0.00
   -4    7   17      5.74      0.00
   -3    7   17      2.15      0.00
   -2    7   17      0.33      0.00
   -1    7   17     -5.65      0.00
    0    7   17      1.34      0.00
    1    7   17     -1.05      0.00
    2    7   17      0.25      0.00
    3    7   17     -2.86      0.00
    4    7   17      0.98      0.00
    5    7   17      0.88      0.00
    6    7   17      1.08      0.00
  -11    8   17     -0.02      0.00
  -10    8   17     -3.18      0.00
   -9    8   17     -1.09      0.00
   -8    8   17      1.73      0.00
   -7    8   17      0.32      0.00
   -6    8   17      0.00      0.00
   -5    8   17      0.23      0.00
   -4    8   17     -0.60      0.00
   -3    8   17      4.60      0.00
   -2    8   17      0.05      0.00
   -1    8   17      1.09      0.00
    0    8   17     -2.95      0.00
    1    8   17      0.75      0.00
    2    8   17     -0.74      0.00
    3    8   17     -3.13      0.00
    4    8   17     -0.80      0.00
   -9    9   17     -0.93      0.00
   -8    9   17      1.23      0.00
   -7    9   17      1.02      0.00
   -6    9   17     -0.21      0.00
   -5    9   17     -3.27      0.00
   -4    9   17      1.99      0.00
   -3    9   17      4.82      0.00
   -2    9   17      0.77      0.00
   -1    9   17     -3.48      0.00
    0    9   17     -1.48      0.00
    1    9   17      2.14      0.00
    2    9   17     -0.02      0.00
   -7   10   17      1.43      0.00
   -6   10   17      0.89      0.00
   -5   10   17      0.44      0.00
   -4   10   17      0.38      0.00
   -3   10   17      0.85      0.00
   -2   10   17      1.88      0.00
  -14    0   18     -0.72      0.00
  -12    0   18      2.39      0.00
  -10    0   18     -5.30      0.00
   -8    0   18      4.50      0.00
   -6    0   18     -6.56      0.00
   -4    0   18      5.67      0.00
   -2    0   18      6.27      0.00
    0    0   18     -2.18      0.00
    2    0   18     -3.62      0.00
    4    0   18      1.23      0.00
    6    0   18     -2.79      0.00
    8    0   18     -0.29      0.00
  -15    1   18      0.17      0.00
  -14    1   18      0.50      0.00
  -13    1   18      0.64      0.00
  -12    1   18     -0.97      0.00
  -11    1   18     -0.49      0.00
  -10    1   18     -0.90      0.00
   -9    1   18     -3.77      0.00
   -8    1   18     -1.82      0.00
   -7    1   18      1.75      0.00
   -6    1   18      1.25      0.00
   -5    1   18     -2.99      0.00
   -4    1   18     -2.35      0.00
   -3    1   18      7.22      0.00
   -2    1   18      2.78      0.00
   -1    1   18      1.54      0.00
    0    1   18      2.64      0.00
    1    1   18     -3.65      0.00
    2    1   18     -0.60      0.00
    3    1   18     -1.04      0.00
    4    1   18     -0.98      0.00
    5    1   18      0.64      0.00
    6    1   18     -1.48      0.00
    7    1   18     -2.08      0.00
    8    1   18      0.37      0.00
  -14    2   18     -0.37      0.00
  -13    2   18     -0.76      0.00
  -12    2   18      2.02      0.00
  -11    2   18      1.20      0.00
  -10    2   18     -4.25      0.00
   -9    2   18     -3.77      0.00
   -8    2   18     -0.09      0.00
   -7    2   18      2.24      0.00
   -6    2   18     -4.56      0.00
   -5    2   18     -4.76      0.00
   -4    2   18      3.46      0.00
   -3    2   18      1.43      0.00
   -2    2   18      4.99      0.00
   -1    2   18      5.15      0.00
    0    2   18     -1.75      0.00
    1    2   18      1.67      0.00
    2    2   18     -0.72      0.00
    3    2   18     -2.83      0.00
    4    2   18      1.79      0.00
    5    2   18     -1.16      0.00
    6    2   18     -0.76      0.00
    7    2   18     -0.71      0.00
    8    2   18     -1.93      0.00
  -14    3   18      1.46      0.00
  -13    3   18      1.54      0.00
  -12    3   18      0.26      0.00
  -11    3   18     -0.39      0.00
  -10    3   18      2.57      0.00
   -9    3   18     -2.96      0.00
   -8    3   18     -2.58      0.00
   -7    3   18     -1.31      0.00
   -6    3   18      0.30      0.00
   -5    3   18     -1.84      0.00
   -4    3   18     -7.29      0.00
   -3    3   18      1.38      0.00
   -2    3   18      4.58      0.00
   -1    3   18      2.42      0.00
    0    3   18      3.67      0.00
    1    3   18      1.26      0.00
    2    3   18     -0.49      0.00
    3    3   18      1.08      0.00
    4    3   18     -2.38      0.00
    5    3   18      2.51      0.00
    6    3   18      0.35      0.00
    7    3   18     -2.59      0.00
    8    3   18      1.79      0.00
  -14    4   18      1.70      0.00
  -13    4   18     -0.53      0.00
  -12    4   18      0.65      0.00
  -11    4   18      3.82      0.00
  -10    4   18     -0.27      0.00
   -9    4   18     -0.80      0.00
   -8    4   18     -1.94      0.00
   -7    4   18      2.50      0.00
   -6    4   18     -0.30      0.00
   -5    4   18     -7.26      0.00
   -4    4   18     -3.10      0.00
   -3    4   18     -3.28      0.00
   -2    4   18      1.32      0.00
   -1    4   18      4.66      0.00
    0    4   18      0.80      0.00
    1    4   18     -0.07      0.00
    2    4   18      2.17      0.00
    3    4   18     -0.68      0.00
    4    4   18      1.21      0.00
    5    4   18      0.22      0.00
    6    4   18     -0.32      0.00
    7    4   18      2.70      0.00
  -13    5   18      1.15      0.00
  -12    5   18      0.47      0.00
  -11    5   18     -0.89      0.00
  -10    5   18      2.66      0.00
   -9    5   18     -0.97      0.00
   -8    5   18     -1.51      0.00
   -7    5   18      1.11      0.00
   -6    5   18      1.03      0.00
   -5    5   18      2.96      0.00
   -4    5   18     -5.76      0.00
   -3    5   18     -4.34      0.00
   -2    5   18      0.86      0.00
   -1    5   18      2.14      0.00
    0    5   18      1.76      0.00
    1    5   18      1.52      0.00
    2    5   18     -0.73      0.00
    3    5   18      1.94      0.00
    4    5   18     -0.62      0.00
    5    5   18      0.09      0.00
    6    5   18      1.86      0.00
    7    5   18      0.35      0.00
  -12    6   18     -0.36      0.00
  -11    6   18      2.46      0.00
  -10    6   18      0.76      0.00
   -9    6   18     -0.65      0.00
   -8    6   18     -1.82      0.00
   -7    6   18     -0.42      0.00
   -6    6   18      6.58      0.00
   -5    6   18     -1.44      0.00
   -4    6   18     -0.75      0.00
   -3    6   18     -2.26      0.00
   -2    6   18      0.58      0.00
   -1    6   18      3.35      0.00
    0    6   18      1.96      0.00
    1    6   18      0.04      0.00
    2    6   18      1.34      0.00
    3    6   18      1.81      0.00
    4    6   18      0.68      0.00
    5    6   18      0.71      0.00
    6    6   18     -0.90      0.00
  -11    7   18     -0.95      0.00
  -10    7   18      3.41      0.00
   -9    7   18      0.83      0.00
   -8    7   18     -3.14      0.00
   -7    7   18      0.92      0.00
   -6    7   18     -0.42      0.00
   -5    7   18      5.23      0.00
   -4    7   18      0.63      0.00
   -3    7   18     -4.70      0.00
   -2    7   18     -1.22      0.00
   -1    7   18      0.08      0.00
    0    7   18      4.62      0.00
    1    7   18     -0.86      0.00
    2    7   18      1.90      0.00
    3    7   18      1.48      0.00
    4    7   18      2.84      0.00
    5    7   18     -0.58      0.00
  -10    8   18      0.91      0.00
   -9    8   18      1.43      0.00
   -8    8   18     -0.61      0.00
   -7    8   18     -1.34      0.00
   -6    8   18      2.43      0.00
   -5    8   18      2.53      0.00
   -4    8   18     -2.57      0.00
   -3    8   18     -2.20      0.00
   -2    8   18     -3.41      0.00
   -1    8   18      3.66      0.00
    0    8   18     -2.36      0.00
    1    8   18      1.47      0.00
    2    8   18     -0.92      0.00
    3    8   18      2.76      0.00
   -8    9   18      0.75      0.00
   -7    9   18     -1.24      0.00
   -6    9   18     -0.29      0.00
   -5    9   18      0.25      0.00
   -4    9   18      3.70      0.00
   -3    9   18     -3.61      0.00
   -2    9   18     -3.07      0.00
   -1    9   18     -1.22      0.00
    0    9   18      3.94      0.00
  -13    0   19      0.29      0.00
  -11    0   19      0.62      0.00
   -9    0   19      6.98      0.00
   -7    0   19     -3.54      0.00
   -5    0   19      6.03      0.00
   -3    0   19     -5.83      0.00
   -1    0   19     -5.76      0.00
    1    0   19      2.00      0.00
    3    0   19      2.57      0.00
    5    0   19     -0.27      0.00
    7    0   19      2.39      0.00
  -14    1   19     -0.31      0.00
  -13    1   19     -0.10      0.00
  -12    1   19     -0.90      0.00
  -11    1   19      0.01      0.00
  -10    1   19      4.29      0.00
   -9    1   19      2.38      0.00
   -8    1   19      0.67      0.00
   -7    1   19      0.84      0.00
   -6    1   19      3.38      0.00
   -5    1   19      1.78      0.00
   -4    1   19     -0.91      0.00
   -3    1   19      1.70      0.00
   -2    1   19     -6.76      0.00
   -1    1   19     -2.07      0.00
    0    1   19     -0.05      0.00
    1    1   19     -2.43      0.00
    2    1   19      3.07      0.00
    3    1   19      0.53      0.00
    4    1   19      0.25      0.00
    5    1   19     -0.15      0.00
    6    1   19      0.90      0.00
    7    1   19      1.24      0.00
  -14    2   19     -1.52      0.00
  -13    2   19     -0.33      0.00
  -12    2   19      0.59      0.00
  -11    2   19     -1.24      0.00
  -10    2   19     -2.06      0.00
   -9    2   19      4.10      0.00
   -8    2   19      4.31      0.00
   -7    2   19     -1.03      0.00
   -6    2   19     -1.45      0.00
   -5    2   19      3.63      0.00
   -4    2   19      6.43      0.00
   -3    2   19     -2.67      0.00
   -2    2   19     -2.24      0.00
   -1    2   19     -3.10      0.00
    0    2   19     -5.22      0.00
    1    2   19      1.54      0.00
    2    2   19     -1.70      0.00
    3    2   19      1.18      0.00
    4    2   19      1.68      0.00
    5    2   19     -2.61      0.00
    6    2   19      1.17      0.00
    7    2   19      0.93      0.00
  -13    3   19     -0.39      0.00
  -12    3   19     -1.82      0.00
  -11    3   19     -2.46      0.00
  -10    3   19      0.55      0.00
   -9    3   19     -0.74      0.00
   -8    3   19      1.40      0.00
   -7    3   19     -0.57      0.00
   -6    3   19      1.29      0.00
   -5    3   19      3.97      0.00
   -4    3   19      0.69      0.00
   -3    3   19      4.71      0.00
   -2    3   19     -2.09      0.00
   -1    3   19     -5.53      0.00
    0    3   19      0.21      0.00
    1    3   19     -3.10      0.00
    2    3   19     -2.01      0.00
    3    3   19      0.97      0.00
    4    3   19     -1.90      0.00
    5    3   19      2.21      0.00
    6    3   19     -2.58      0.00
  -13    4   19     -1.60      0.00
  -12    4   19     -0.23      0.00
  -11    4   19      0.34      0.00
  -10    4   19     -4.45      0.00
   -9    4   19      1.01      0.00
   -8    4   19      1.38      0.00
   -7    4   19      0.03      0.00
   -6    4   19     -3.76      0.00
   -5    4   19     -2.53      0.00
   -4    4   19      6.65      0.00
   -3    4   19      2.35      0.00
   -2    4   19     -0.06      0.00
   -1    4   19     -1.91      0.00
    0    4   19     -4.02      0.00
    1    4   19     -1.45      0.00
    2    4   19     -0.12      0.00
    3    4   19     -3.13      0.00
    4    4   19      2.28      0.00
    5    4   19     -3.20      0.00
    6    4   19     -0.79      0.00
  -12    5   19     -1.06      0.00
  -11    5   19     -2.04      0.00
  -10    5   19      0.44      0.00
   -9    5   19     -0.99      0.00
   -8    5   19      2.74      0.00
   -7    5   19     -1.45      0.00
   -6    5   19     -4.06      0.00
   -5    5   19     -1.11      0.00
   -4    5   19     -3.11      0.00
   -3    5   19      2.85      0.00
   -2    5   19      0.19      0.00
   -1    5   19     -3.42      0.00
    0    5   19     -2.15      0.00
    1    5   19      0.10      0.00
    2    5   19     -2.87      0.00
    3    5   19     -0.67      0.00
    4    5   19     -3.40      0.00
    5    5   19      0.76      0.00
  -11    6   19      0.17      0.00
  -10    6   19     -2.89      0.00
   -9    6   19      0.41      0.00
   -8    6   19      2.60      0.00
   -7    6   19      0.51      0.00
   -6    6   19     -1.97      0.00
   -5    6   19     -8.19      0.00
   -4    6   19      0.10      0.00
   -3    6   19      1.85      0.00
   -2    6   19      2.19      0.00
   -1    6   19     -2.33      0.00
    0    6   19     -2.19      0.00
    1    6   19     -2.26      0.00
    2    6   19      0.33      0.00
    3    6   19     -3.21      0.00
    4    6   19     -1.23      0.00
  -10    7   19     -0.17      0.00
   -9    7   19     -1.51      0.00
   -8    7   19      0.39      0.00
   -7    7   19      2.96      0.00
   -6    7   19     -4.14      0.00
   -5    7   19     -0.09      0.00
   -4    7   19     -2.64      0.00
   -3    7   19      2.46      0.00
   -2    7   19      2.56      0.00
   -1    7   19      1.04      0.00
    0    7   19      0.19      0.00
    1    7   19     -0.93      0.00
    2    7   19      0.75      0.00
    3    7   19     -2.53      0.00
   -8    8   19      0.98      0.00
   -7    8   19      0.06      0.00
   -6    8   19      1.39      0.00
   -5    8   19     -4.37      0.00
   -4    8   19     -3.17      0.00
   -3    8   19      4.54      0.00
   -2    8   19      4.34      0.00
   -1    8   19      2.69      0.00
    0    8   19     -3.48      0.00
    1    8   19      3.10      0.00
   -5    9   19     -1.66      0.00
   -4    9   19      0.81      0.00
   -3    9   19      0.05      0.00
  -12    0   20      0.55      0.00
  -10    0   20     -3.36      0.00
   -8    0   20     -4.76      0.00
   -6    0   20     -2.05      0.00
   -4    0   20     -3.48      0.00
    0    0   20      4.21      0.00
    2    0   20     -1.30      0.00
    4    0   20     -1.08      0.00
    6    0   20     -0.92      0.00
  -13    1   20      0.71      0.00
  -12    1   20      0.54      0.00
  -11    1   20      1.18      0.00
  -10    1   20      1.96      0.00
   -9    1   20     -5.67      0.00
   -8    1   20     -2.17      0.00
   -7    1   20      1.51      0.00
   -6    1   20      0.84      0.00
   -5    1   20     -5.50      0.00
   -4    1   20     -3.28      0.00
   -3    1   20      2.08      0.00
   -2    1   20     -1.49      0.00
   -1    1   20      7.11      0.00
    0    1   20      1.40      0.00
    1    1   20      0.52      0.00
    2    1   20      1.79      0.00
    3    1   20     -2.63      0.00
    4    1   20     -0.05      0.00
    5    1   20      0.26      0.00
    6    1   20      0.19      0.00
  -13    2   20      0.97      0.00
  -12    2   20      1.46      0.00
  -11    2   20      1.37      0.00
  -10    2   20      0.64      0.00
   -9    2   20      1.97      0.00
   -8    2   20     -1.41      0.00
   -7    2   20     -1.38      0.00
   -6    2   20     -0.17      0.00
   -5    2   20     -0.65      0.00
   -4    2   20     -0.68      0.00
   -3    2   20     -5.45      0.00
   -2    2   20      4.53      0.00
   -1    2   20      2.49      0.00
    0    2   20      1.61      0.00
    1    2   20      5.12      0.00
    2    2   20     -0.44      0.00
    3    2   20      1.70      0.00
    4    2   20     -1.74      0.00
    5    2   20     -0.17      0.00
  -12    3   20      0.28      0.00
  -11    3   20      1.66      0.00
  -10    3   20      4.48      0.00
   -9    3   20     -0.52      0.00
   -8    3   20     -1.11      0.00
   -7    3   20      1.32      0.00
   -6    3   20      3.35      0.00
   -5    3   20      0.96      0.00
   -4    3   20     -5.58      0.00
   -3    3   20      0.14      0.00
   -2    3   20     -1.47      0.00
   -1    3   20      2.91      0.00
    0    3   20      5.95      0.00
    1    3   20     -0.58      0.00
    2    3   20      3.92      0.00
    3    3   20      1.04      0.00
    4    3   20     -0.82      0.00
    5    3   20      2.81      0.00
  -12    4   20      1.66      0.00
  -11    4   20      1.79      0.00
  -10    4   20     -0.75      0.00
   -9    4   20      3.08      0.00
   -8    4   20     -1.81      0.00
   -7    4   20      0.40      0.00
   -6    4   20      2.81      0.00
   -5    4   20      2.56      0.00
   -4    4   20      4.84      0.00
   -3    4   20     -4.62      0.00
   -2    4   20      0.31      0.00
   -1    4   20      3.24      0.00
    0    4   20      0.01      0.00
    1    4   20      2.54      0.00
    2    4   20      2.33      0.00
    3    4   20      1.31      0.00
    4    4   20      3.35      0.00
    5    4   20     -2.76      0.00
  -11    5   20     -0.11      0.00
  -10    5   20      3.29      0.00
   -9    5   20     -1.47      0.00
   -8    5   20     -0.97      0.00
   -7    5   20     -1.79      0.00
   -6    5   20      4.27      0.00
   -5    5   20      7.12      0.00
   -4    5   20      0.22      0.00
   -3    5   20      1.03      0.00
   -1    5   20      0.91      0.00
    0    5   20      3.22      0.00
    1    5   20      1.07      0.00
    2    5   20     -0.94      0.00
    3    5   20      3.78      0.00
    4    5   20     -0.58      0.00
  -10    6   20     -0.33      0.00
   -9    6   20      2.82      0.00
   -8    6   20     -2.65      0.00
   -7    6   20     -1.49      0.00
   -6    6   20      1.34      0.00
   -5    6   20      2.16      0.00
   -4    6   20      5.91      0.00
   -3    6   20     -2.09      0.00
   -1    6   20     -2.14      0.00
    0    6   20      0.90      0.00
    1    6   20     -1.30      0.00
    2    6   20      1.27      0.00
    3    6   20     -0.43      0.00
   -8    7   20     -0.56      0.00
   -7    7   20     -0.97      0.00
   -6    7   20     -0.96      0.00
   -5    7   20      5.87      0.00
   -4    7   20      0.29      0.00
   -3    7   20     -1.28      0.00
   -2    7   20     -6.04      0.00
   -1    7   20     -0.89      0.00
    0    7   20     -1.70      0.00
    1    7   20     -0.30      0.00
   -6    8   20      1.65      0.00
   -5    8   20     -0.92      0.00
   -4    8   20      3.76      0.00
   -3    8   20      0.19      0.00
  -11    0   21     -2.70      0.00
   -9    0   21      3.73      0.00
   -7    0   21      0.25      0.00
   -5    0   21      5.77      0.00
   -1    0   21     -6.22      0.00
    1    0   21     -3.19      0.00
    3    0   21      1.19      0.00
  -12    1   21     -1.71      0.00
  -11    1   21     -1.12      0.00
  -10    1   21     -1.56      0.00
   -9    1   21     -2.87      0.00
   -8    1   21      3.32      0.00
   -7    1   21     -0.01      0.00
   -6    1   21     -0.25      0.00
   -5    1   21     -2.10      0.00
   -4    1   21      4.17      0.00
   -3    1   21      2.57      0.00
   -2    1   21     -3.42      0.00
   -1    1   21      1.09      0.00
    0    1   21     -5.64      0.00
    1    1   21     -1.13      0.00
    2    1   21     -1.67      0.00
    3    1   21     -0.62      0.00
    4    1   21      1.87      0.00
  -12    2   21     -0.51      0.00
  -11    2   21     -2.41      0.00
  -10    2   21     -3.13      0.00
   -9    2   21     -0.03      0.00
   -8    2   21     -0.52      0.00
   -7    2   21     -1.60      0.00
   -6    2   21     -2.86      0.00
   -5    2   21      1.21      0.00
   -4    2   21      1.88      0.00
   -3    2   21     -0.69      0.00
   -2    2   21      3.73      0.00
   -1    2   21     -6.68      0.00
    0    2   21     -1.52      0.00
    1    2   21     -1.89      0.00
    2    2   21     -4.29      0.00
    3    2   21      0.36      0.00
    4    2   21     -1.26      0.00
  -11    3   21     -0.04      0.00
  -10    3   21     -1.13      0.00
   -9    3   21     -3.20      0.00
   -8    3   21      0.62      0.00
   -7    3   21      0.82      0.00
   -6    3   21     -2.31      0.00
   -5    3   21     -3.69      0.00
   -4    3   21     -3.17      0.00
   -3    3   21      5.17      0.00
   -2    3   21     -2.12      0.00
   -1    3   21      0.14      0.00
    0    3   21     -1.06      0.00
    1    3   21     -4.07      0.00
    2    3   21     -0.17      0.00
    3    3   21     -4.47      0.00
  -10    4   21     -2.11      0.00
   -9    4   21      1.05      0.00
   -8    4   21      0.46      0.00
   -7    4   21      0.53      0.00
   -6    4   21     -3.17      0.00
   -5    4   21     -5.28      0.00
   -4    4   21     -0.23      0.00
   -3    4   21     -3.19      0.00
   -2    4   21      3.94      0.00
   -1    4   21     -1.39      0.00
    0    4   21     -3.11      0.00
    1    4   21      2.31      0.00
    2    4   21     -1.58      0.00
    3    4   21     -1.23      0.00
   -9    5   21     -2.90      0.00
   -8    5   21      2.73      0.00
   -7    5   21      1.66      0.00
   -6    5   21     -0.78      0.00
   -5    5   21     -3.40      0.00
   -4    5   21     -7.33      0.00
   -3    5   21      2.47      0.00
   -2    5   21      0.80      0.00
   -1    5   21      1.58      0.00
    0    5   21      1.22      0.00
    1    5   21     -0.27      0.00
    2    5   21      0.29      0.00
   -8    6   21     -1.13      0.00
   -7    6   21      3.01      0.00
   -6    6   21     -0.68      0.00
   -5    6   21     -3.27      0.00
   -4    6   21     -0.45      0.00
   -3    6   21     -1.24      0.00
   -2    6   21      4.73      0.00
   -1    6   21      2.00      0.00
    0    6   21      1.11      0.00
   -5    7   21     -0.09      0.00
   -4    7   21     -5.27      0.00
   -3    7   21      0.55      0.00
  -10    0   22      3.68      0.00
   -8    0   22     -1.75      0.00
   -6    0   22      2.04      0.00
   -4    0   22     -4.83      0.00
   -2    0   22     -1.22      0.00
    0    0   22      3.80      0.00
    2    0   22      2.40      0.00
  -10    1   22      1.17      0.00
   -9    1   22      0.83      0.00
   -8    1   22      1.66      0.00
   -7    1   22      0.58      0.00
   -6    1   22      2.39      0.00
   -5    1   22     -1.90      0.00
   -4    1   22      2.42      0.00
   -2    1   22     -0.70      0.00
   -1    1   22      4.18      0.00
    0    1   22     -0.54      0.00
    1    1   22      3.74      0.00
    2    1   22      1.16      0.00
  -10    2   22      1.83      0.00
   -9    2   22      2.34      0.00
   -8    2   22     -0.90      0.00
   -7    2   22     -0.31      0.00
   -6    2   22      1.45      0.00
   -5    2   22      5.11      0.00
   -4    2   22     -1.05      0.00
   -3    2   22     -1.61      0.00
   -2    2   22      1.23      0.00
   -1    2   22     -2.52      0.00
    0    2   22      4.69      0.00
    1    2   22     -0.05      0.00
    2    2   22      2.89      0.00
   -9    3   22      0.17      0.00
   -8    3   22     -0.51      0.00
   -7    3   22     -0.11      0.00
   -6    3   22      2.13      0.00
   -5    3   22      1.56      0.00
   -4    3   22      2.38      0.00
   -2    3   22     -4.47      0.00
   -1    3   22      3.60      0.00
    0    3   22     -1.26      0.00
    1    3   22     -0.95      0.00
   -9    4   22      0.76      0.00
   -8    4   22     -1.37      0.00
   -7    4   22     -2.28      0.00
   -6    4   22      0.84      0.00
   -5    4   22      4.19      0.00
   -4    4   22      5.32      0.00
   -2    4   22      0.98      0.00
   -1    4   22     -3.36      0.00
    0    4   22     -0.16      0.00
    1    4   22      0.64      0.00
   -7    5   22     -1.95      0.00
   -6    5   22     -0.46      0.00
   -5    5   22      2.44      0.00
   -4    5   22      0.78      0.00
   -2    5   22     -4.67      0.00
   -1    5   22     -0.31      0.00
   -7    0   23     -1.08      0.00
   -5    0   23     -1.74      0.00
   -3    0   23      2.30      0.00
   -1    0   23     -1.01      0.00
   -8    1   23      0.58      0.00
   -7    1   23      0.33      0.00
   -6    1   23     -2.33      0.00
   -5    1   23     -2.97      0.00
   -4    1   23      1.66      0.00
   -3    1   23     -1.81      0.00
   -2    1   23      1.89      0.00
   -1    1   23     -0.61      0.00
    0    1   23     -2.15      0.00
   -8    2   23      0.15      0.00
   -7    2   23      0.75      0.00
   -6    2   23     -0.69      0.00
   -5    2   23      0.48      0.00
   -4    2   23     -4.32      0.00
   -2    2   23      0.61      0.00
   -1    2   23     -1.60      0.00
   -7    3   23      2.21      0.00
   -6    3   23     -0.18      0.00
   -5    3   23     -4.42      0.00
   -4    3   23     -0.97      0.00
   -2    3   23      0.30      0.00
    2    0    0      4.01      0.00
   18    3    0      0.44      0.00
   18    4    0     -0.12      0.00
   18    5    0      1.33      0.00
   17    6    0      1.51      0.00
   18    6    0     -1.05      0.00
   17    7    0     -1.75      0.00
   18    7    0      0.67      0.00
   16    8    0     -1.20      0.00
   17    8    0      1.72      0.00
   18    8    0     -0.03      0.00
   15    9    0      0.05      0.00
   16    9    0      1.21      0.00
   17    9    0     -0.26      0.00
   18    9    0      0.03      0.00
   14   10    0      1.23      0.00
   15   10    0     -0.07      0.00
   16   10    0      0.04      0.00
   17   10    0      0.93      0.00
   13   11    0     -1.05      0.00
   14   11    0     -0.14      0.00
   15   11    0      0.60      0.00
   16   11    0      0.67      0.00
   12   12    0     -3.11      0.00
   13   12    0      0.19      0.00
   14   12    0      0.58      0.00
   15   12    0     -0.11      0.00
   10   13    0     -0.47      0.00
   11   13    0     -1.00      0.00
   12   13    0      0.21      0.00
   13   13    0      0.05      0.00
   14   13    0     -1.14      0.00
    8   14    0      0.60      0.00
    9   14    0      0.23      0.00
   10   14    0      0.97      0.00
   11   14    0      0.34      0.00
   12   14    0     -0.84      0.00
   13   14    0     -0.25      0.00
    3   15    0      0.69      0.00
    4   15    0     -0.33      0.00
    5   15    0      2.34      0.00
    6   15    0      0.04      0.00
    7   15    0      1.40      0.00
    8   15    0     -1.43      0.00
    9   15    0      0.65      0.00
   10   15    0      0.70      0.00
   11   15    0     -0.78      0.00
   -5    0    1     26.08      0.00
   -1    0    1    -20.62      0.00
    1    0    1   -141.52      0.00
   -6    1    1     19.62      0.00
    0    1    1   -114.98      0.00
    6    1    1     13.85      0.00
   18    1    1      0.18      0.00
   -6    2    1     -9.68      0.00
   18    2    1     -0.53      0.00
   18    3    1      0.49      0.00
  -18    4    1      0.61      0.00
   18    4    1     -1.05      0.00
  -18    5    1      0.08      0.00
   18    5    1      0.33      0.00
  -18    6    1      0.75      0.00
  -17    6    1      1.36      0.00
   17    6    1      0.97      0.00
   18    6    1     -1.04      0.00
  -18    7    1     -0.18      0.00
  -17    7    1      1.47      0.00
   16    7    1     -0.05      0.00
   17    7    1     -1.48      0.00
   18    7    1      1.01      0.00
  -18    8    1     -0.43      0.00
  -17    8    1      1.09      0.00
  -16    8    1      1.69      0.00
   16    8    1     -1.43      0.00
   17    8    1      0.41      0.00
   18    8    1     -0.96      0.00
  -18    9    1     -0.31      0.00
  -17    9    1      0.75      0.00
  -16    9    1      0.95      0.00
  -15    9    1      0.13      0.00
   15    9    1     -0.77      0.00
   16    9    1     -0.27      0.00
   17    9    1     -1.43      0.00
   18    9    1     -0.12      0.00
  -17   10    1     -0.01      0.00
  -16   10    1      0.82      0.00
  -15   10    1     -0.22      0.00
  -14   10    1     -0.29      0.00
   14   10    1      0.41      0.00
   15   10    1     -1.30      0.00
   16   10    1     -0.40      0.00
   17   10    1     -0.19      0.00
  -17   11    1      0.75      0.00
  -16   11    1      0.45      0.00
  -15   11    1     -0.13      0.00
  -14   11    1     -1.03      0.00
  -13   11    1      0.46      0.00
   13   11    1      0.17      0.00
   14   11    1     -0.52      0.00
   15   11    1      0.14      0.00
   16   11    1     -0.09      0.00
  -15   12    1     -0.82      0.00
  -14   12    1     -1.48      0.00
  -13   12    1      0.02      0.00
  -12   12    1     -0.44      0.00
   12   12    1     -0.33      0.00
   13   12    1      1.89      0.00
   14   12    1     -0.12      0.00
   15   12    1     -0.27      0.00
  -14   13    1     -1.31      0.00
  -13   13    1     -1.32      0.00
  -12   13    1      1.61      0.00
  -11   13    1     -0.99      0.00
  -10   13    1      0.90      0.00
   10   13    1     -1.47      0.00
   11   13    1     -0.07      0.00
   12   13    1      1.65      0.00
   13   13    1     -0.64      0.00
   14   13    1     -0.28      0.00
  -13   14    1     -0.27      0.00
  -12   14    1      0.15      0.00
  -11   14    1      1.65      0.00
  -10   14    1      0.41      0.00
   -9   14    1     -0.43      0.00
   -8   14    1     -1.14      0.00
    7   14    1      1.55      0.00
    8   14    1     -0.19      0.00
    9   14    1     -0.14      0.00
   10   14    1     -0.24      0.00
   11   14    1     -0.12      0.00
   12   14    1     -0.36      0.00
   13   14    1     -0.22      0.00
  -11   15    1      0.25      0.00
  -10   15    1      0.19      0.00
   -9   15    1      1.15      0.00
   -8   15    1     -0.41      0.00
   -7   15    1     -2.35      0.00
   -6   15    1     -1.56      0.00
   -5   15    1     -0.01      0.00
   -4   15    1     -1.94      0.00
   -3   15    1     -0.17      0.00
    3   15    1      0.55      0.00
    4   15    1     -0.88      0.00
    5   15    1     -0.20      0.00
    6   15    1     -2.47      0.00
    7   15    1     -0.41      0.00
    8   15    1      0.04      0.00
    9   15    1      0.01      0.00
   10   15    1     -0.54      0.00
   11   15    1     -0.21      0.00
   18    0    2     -0.02      0.00
   -6    1    2     12.60      0.00
   18    1    2      0.48      0.00
   18    2    2     -0.01      0.00
   18    3    2      0.82      0.00
  -18    4    2      0.43      0.00
   18    4    2     -0.14      0.00
  -18    5    2     -0.39      0.00
   17    5    2     -0.37      0.00
   18    5    2      0.54      0.00
  -18    6    2      1.14      0.00
   17    6    2      0.50      0.00
   18    6    2     -0.66      0.00
  -18    7    2      0.58      0.00
  -17    7    2     -0.82      0.00
   16    7    2      1.15      0.00
   17    7    2      0.42      0.00
   18    7    2      1.36      0.00
  -18    8    2      0.72      0.00
  -17    8    2     -0.56      0.00
  -16    8    2     -1.52      0.00
   16    8    2      1.13      0.00
   17    8    2      1.57      0.00
   18    8    2     -0.17      0.00
  -18    9    2      0.63      0.00
  -17    9    2     -0.09      0.00
  -16    9    2     -0.73      0.00
  -15    9    2     -1.00      0.00
   15    9    2      0.81      0.00
   16    9    2      0.93      0.00
   17    9    2      0.21      0.00
   18    9    2      0.59      0.00
  -18   10    2      0.05      0.00
  -17   10    2     -0.38      0.00
  -16   10    2     -0.66      0.00
  -15   10    2      0.50      0.00
   14   10    2      0.55      0.00
   15   10    2     -0.29      0.00
   16   10    2      0.57      0.00
   17   10    2      0.47      0.00
  -17   11    2     -0.11      0.00
  -16   11    2     -0.90      0.00
  -15   11    2      0.35      0.00
  -14   11    2      1.16      0.00
  -13   11    2      0.88      0.00
   13   11    2     -0.55      0.00
   14   11    2     -1.11      0.00
   15   11    2      0.90      0.00
   16   11    2     -0.17      0.00
  -16   12    2     -0.36      0.00
  -15   12    2      0.58      0.00
  -14   12    2      1.81      0.00
  -13   12    2      1.38      0.00
  -12   12    2     -1.28      0.00
   11   12    2     -2.02      0.00
   12   12    2     -0.37      0.00
   13   12    2      0.15      0.00
   14   12    2     -0.36      0.00
   15   12    2      0.10      0.00
  -14   13    2      1.17      0.00
  -13   13    2      0.31      0.00
  -12   13    2      0.50      0.00
  -11   13    2     -2.77      0.00
  -10   13    2      1.32      0.00
    9   13    2     -0.30      0.00
   10   13    2     -0.22      0.00
   11   13    2      1.73      0.00
   12   13    2      0.80      0.00
   13   13    2     -0.98      0.00
   14   13    2      0.40      0.00
  -13   14    2      0.08      0.00
  -12   14    2     -1.48      0.00
  -11   14    2      0.00      0.00
  -10   14    2     -2.12      0.00
   -9   14    2     -1.01      0.00
   -8   14    2      0.21      0.00
    7   14    2      2.72      0.00
    8   14    2     -2.17      0.00
    9   14    2      1.40      0.00
   10   14    2      1.18      0.00
   11   14    2      0.09      0.00
   12   14    2     -0.53      0.00
  -11   15    2     -1.01      0.00
  -10   15    2     -0.54      0.00
   -9   15    2     -0.69      0.00
   -8   15    2     -0.85      0.00
   -7   15    2      0.28      0.00
   -6   15    2      1.48      0.00
   -5   15    2      0.61      0.00
   -4   15    2     -0.37      0.00
   -3   15    2      1.33      0.00
    3   15    2     -1.73      0.00
    4   15    2     -0.27      0.00
    5   15    2      0.98      0.00
    6   15    2      1.93      0.00
    7   15    2      0.86      0.00
    8   15    2      1.09      0.00
    9   15    2     -0.44      0.00
   10   15    2      0.37      0.00
   11   15    2      0.10      0.00
   18    1    3      0.13      0.00
   18    2    3     -0.23      0.00
   18    3    3     -0.41      0.00
  -18    4    3     -0.31      0.00
   17    4    3     -0.08      0.00
   18    4    3     -0.75      0.00
  -18    5    3     -1.41      0.00
   17    5    3     -0.28      0.00
   18    5    3      0.43      0.00
  -18    6    3     -0.37      0.00
   17    6    3     -0.32      0.00
   18    6    3     -0.57      0.00
  -18    7    3     -1.05      0.00
  -17    7    3      0.52      0.00
   16    7    3     -0.70      0.00
   17    7    3     -1.44      0.00
   18    7    3     -0.28      0.00
  -18    8    3     -0.49      0.00
  -17    8    3     -0.15      0.00
  -16    8    3      1.27      0.00
   15    8    3     -1.07      0.00
   16    8    3     -0.99      0.00
   17    8    3     -0.73      0.00
   18    8    3     -0.80      0.00
  -18    9    3     -0.60      0.00
  -17    9    3     -0.11      0.00
  -16    9    3      0.24      0.00
   14    9    3     -0.88      0.00
   15    9    3      0.37      0.00
   16    9    3     -0.28      0.00
   17    9    3     -0.50      0.00
  -18   10    3     -0.03      0.00
  -17   10    3      0.43      0.00
  -16   10    3      1.02      0.00
  -15   10    3      0.20      0.00
   14   10    3      1.21      0.00
   15   10    3     -0.17      0.00
   16   10    3      0.09      0.00
   17   10    3     -0.13      0.00
  -17   11    3      0.78      0.00
  -16   11    3      0.99      0.00
  -15   11    3     -0.18      0.00
  -14   11    3     -1.68      0.00
  -13   11    3     -0.05      0.00
   12   11    3      0.09      0.00
   13   11    3      1.13      0.00
   14   11    3     -0.55      0.00
   15   11    3      0.96      0.00
   16   11    3     -0.53      0.00
  -16   12    3      1.06      0.00
  -15   12    3      0.15      0.00
  -14   12    3     -1.39      0.00
  -13   12    3     -1.18      0.00
  -12   12    3      0.59      0.00
   11   12    3     -2.83      0.00
   12   12    3      0.67      0.00
   13   12    3     -0.54      0.00
   14   12    3      0.62      0.00
   15   12    3     -0.49      0.00
  -15   13    3      0.37      0.00
  -14   13    3     -0.11      0.00
  -13   13    3     -0.46      0.00
  -12   13    3      1.81      0.00
  -11   13    3      0.23      0.00
  -10   13    3      2.76      0.00
    9   13    3     -1.59      0.00
   10   13    3     -1.97      0.00
   11   13    3      0.50      0.00
   12   13    3     -1.14      0.00
   13   13    3     -0.73      0.00
  -13   14    3      0.47      0.00
  -12   14    3      0.13      0.00
  -11   14    3      2.34      0.00
  -10   14    3     -0.36      0.00
   -9   14    3      2.99      0.00
   -8   14    3      1.63      0.00
    7   14    3     -1.73      0.00
    8   14    3     -2.18      0.00
    9   14    3      1.02      0.00
   10   14    3     -0.38      0.00
   11   14    3     -1.41      0.00
   12   14    3     -0.29      0.00
  -11   15    3     -0.92      0.00
  -10   15    3      0.64      0.00
   -9   15    3      0.73      0.00
   -8   15    3      1.11      0.00
   -7   15    3     -0.42      0.00
   -6   15    3     -0.48      0.00
   -5   15    3     -0.99      0.00
   -4   15    3     -0.68      0.00
   -3   15    3      0.75      0.00
    2   15    3     -0.20      0.00
    3   15    3      0.76      0.00
    4   15    3      1.23      0.00
    5   15    3      0.87      0.00
    6   15    3     -1.73      0.00
    7   15    3     -2.11      0.00
    8   15    3      1.22      0.00
    9   15    3     -0.98      0.00
   10   15    3     -0.32      0.00
   18    0    4     -0.27      0.00
   18    1    4      0.28      0.00
   18    2    4     -0.15      0.00
   17    3    4      0.42      0.00
   18    3    4      0.35      0.00
   17    4    4     -0.56      0.00
   18    4    4     -0.17      0.00
  -18    5    4      0.63      0.00
   17    5    4     -0.14      0.00
   18    5    4      0.22      0.00
  -18    6    4      1.06      0.00
   16    6    4      0.15      0.00
   17    6    4      1.31      0.00
   18    6    4      0.56      0.00
  -18    7    4      0.24      0.00
  -17    7    4     -0.04      0.00
   16    7    4      2.33      0.00
   17    7    4      0.58      0.00
   18    7    4      0.73      0.00
  -18    8    4      0.77      0.00
  -17    8    4      0.64      0.00
  -16    8    4      0.17      0.00
   15    8    4     -0.09      0.00
   16    8    4     -0.24      0.00
   17    8    4      0.62      0.00
   18    8    4      0.13      0.00
  -18    9    4     -0.15      0.00
  -17    9    4      0.05      0.00
  -16    9    4     -0.81      0.00
   14    9    4     -1.81      0.00
   15    9    4      0.22      0.00
   16    9    4     -0.01      0.00
   17    9    4      0.13      0.00
  -18   10    4     -0.24      0.00
  -17   10    4     -0.79      0.00
  -16   10    4     -1.29      0.00
  -15   10    4     -0.01      0.00
   13   10    4     -0.26      0.00
   14   10    4      0.46      0.00
   15   10    4     -0.73      0.00
   16   10    4     -0.11      0.00
  -17   11    4     -0.58      0.00
  -16   11    4     -1.84      0.00
  -15   11    4     -0.62      0.00
  -14   11    4      1.44      0.00
  -13   11    4      1.51      0.00
   12   11    4      0.58      0.00
   13   11    4      0.22      0.00
   14   11    4     -0.92      0.00
   15   11    4      0.62      0.00
  -16   12    4     -0.70      0.00
  -15   12    4     -0.94      0.00
  -14   12    4      0.76      0.00
  -13   12    4     -0.05      0.00
  -12   12    4     -0.36      0.00
   10   12    4      1.43      0.00
   11   12    4      0.80      0.00
   12   12    4      1.74      0.00
   13   12    4      0.01      0.00
   14   12    4      1.45      0.00
  -15   13    4     -0.53      0.00
  -14   13    4      0.25      0.00
  -13   13    4     -0.19      0.00
  -12   13    4     -1.06      0.00
  -11   13    4     -1.64      0.00
  -10   13    4     -0.83      0.00
    9   13    4      0.28      0.00
   10   13    4      1.09      0.00
   11   13    4      2.17      0.00
   12   13    4      0.36      0.00
   13   13    4      1.18      0.00
  -13   14    4      0.42      0.00
  -12   14    4     -0.70      0.00
  -11   14    4      0.59      0.00
  -10   14    4     -1.08      0.00
   -9   14    4      0.09      0.00
   -8   14    4     -2.54      0.00
    6   14    4      3.52      0.00
    7   14    4      0.18      0.00
    8   14    4      0.29      0.00
    9   14    4      1.33      0.00
   10   14    4      0.24      0.00
   11   14    4     -0.19      0.00
   12   14    4      0.64      0.00
  -11   15    4     -0.48      0.00
  -10   15    4      1.51      0.00
   -9   15    4     -0.56      0.00
   -8   15    4     -0.93      0.00
   -7   15    4     -0.05      0.00
   -6   15    4      1.29      0.00
   -5   15    4      1.13      0.00
   -4   15    4      1.58      0.00
   -3   15    4      1.78      0.00
   -2   15    4      0.22      0.00
   -1   15    4     -2.45      0.00
    0   15    4     -1.69      0.00
    1   15    4      0.00      0.00
    2   15    4     -1.23      0.00
    3   15    4      0.76      0.00
    4   15    4     -0.60      0.00
    5   15    4     -1.03      0.00
    6   15    4     -1.09      0.00
    7   15    4      1.09      0.00
    8   15    4      0.75      0.00
    9   15    4     -1.34      0.00
   10   15    4      0.15      0.00
    5    0    5     -0.26      0.00
   17    0    5     -0.08      0.00
   17    1    5     -0.54      0.00
   18    1    5      0.66      0.00
   17    2    5      0.45      0.00
   18    2    5     -0.47      0.00
    0    3    5      4.77      0.00
   17    3    5      0.34      0.00
   18    3    5      0.21      0.00
    0    4    5      9.16      0.00
   17    4    5      0.43      0.00
   18    4    5      0.24      0.00
  -18    5    5     -0.12      0.00
   16    5    5     -1.31      0.00
   17    5    5     -0.12      0.00
   18    5    5      0.01      0.00
  -18    6    5      0.03      0.00
   16    6    5     -1.16      0.00
   17    6    5     -0.85      0.00
   18    6    5     -0.69      0.00
  -18    7    5     -0.93      0.00
  -17    7    5     -0.48      0.00
   15    7    5     -0.42      0.00
   16    7    5      0.27      0.00
   17    7    5     -1.14      0.00
   18    7    5     -0.29      0.00
  -18    8    5     -0.40      0.00
  -17    8    5     -0.34      0.00
  -16    8    5     -0.45      0.00
   15    8    5      0.50      0.00
   16    8    5     -0.87      0.00
   17    8    5      0.47      0.00
  -18    9    5      0.16      0.00
  -17    9    5      0.11      0.00
  -16    9    5      0.86      0.00
   14    9    5     -0.55      0.00
   15    9    5      0.84      0.00
   16    9    5      0.42      0.00
   17    9    5     -0.16      0.00
  -18   10    5      0.59      0.00
  -17   10    5      0.75      0.00
  -16   10    5      1.90      0.00
  -15   10    5      0.96      0.00
   13   10    5      0.40      0.00
   14   10    5      0.62      0.00
   15   10    5     -0.54      0.00
   16   10    5     -0.10      0.00
  -17   11    5     -0.04      0.00
  -16   11    5      1.01      0.00
  -15   11    5      1.31      0.00
  -14   11    5     -0.28      0.00
  -13   11    5     -0.67      0.00
   12   11    5      0.02      0.00
   13   11    5     -1.47      0.00
   14   11    5     -1.22      0.00
   15   11    5      0.00      0.00
  -16   12    5      0.86      0.00
  -15   12    5      0.51      0.00
  -14   12    5     -0.07      0.00
  -13   12    5     -0.95      0.00
  -12   12    5      2.50      0.00
   10   12    5     -2.39      0.00
   11   12    5     -1.29      0.00
   12   12    5     -2.17      0.00
   13   12    5     -1.22      0.00
   14   12    5      0.10      0.00
  -15   13    5      0.67      0.00
  -14   13    5     -0.31      0.00
  -13   13    5     -0.39      0.00
  -12   13    5      0.36      0.00
  -11   13    5      1.41      0.00
  -10   13    5     -1.05      0.00
    8   13    5     -2.29      0.00
    9   13    5     -0.63      0.00
   10   13    5      0.01      0.00
   11   13    5     -0.67      0.00
   12   13    5     -0.73      0.00
   13   13    5     -0.13      0.00
  -13   14    5     -0.30      0.00
  -12   14    5     -0.20      0.00
  -11   14    5      0.11      0.00
  -10   14    5     -1.13      0.00
   -9   14    5      0.30      0.00
   -8   14    5      0.60      0.00
   -7   14    5      0.25      0.00
    6   14    5      2.09      0.00
    7   14    5     -3.49      0.00
    8   14    5      1.32      0.00
    9   14    5      0.68      0.00
   10   14    5     -0.28      0.00
   11   14    5     -0.11      0.00
  -11   15    5     -0.61      0.00
  -10   15    5      0.21      0.00
   -9   15    5     -1.07      0.00
   -8   15    5      0.59      0.00
   -7   15    5      0.81      0.00
   -6   15    5     -0.82      0.00
   -5   15    5     -1.17      0.00
   -4   15    5     -1.64      0.00
   -3   15    5     -0.66      0.00
   -2   15    5     -2.09      0.00
   -1   15    5     -1.83      0.00
    0   15    5      2.22      0.00
    1   15    5      1.88      0.00
    2   15    5     -0.74      0.00
    3   15    5     -0.02      0.00
    4   15    5     -0.51      0.00
    5   15    5      0.88      0.00
    6   15    5     -0.38      0.00
    7   15    5      1.16      0.00
    8   15    5      0.33      0.00
    9   15    5     -0.09      0.00
   10   15    5      0.28      0.00
   18    0    6     -0.78      0.00
   17    1    6      0.44      0.00
   18    1    6      0.01      0.00
   17    2    6      0.25      0.00
   18    2    6     -0.42      0.00
    0    3    6     14.56      0.00
   17    3    6     -1.01      0.00
   18    3    6     -0.28      0.00
   16    4    6      0.26      0.00
   17    4    6     -0.38      0.00
   18    4    6     -0.42      0.00
  -18    5    6      0.84      0.00
   16    5    6      0.71      0.00
   17    5    6      1.03      0.00
   18    5    6      0.52      0.00
  -18    6    6      0.46      0.00
   16    6    6      2.25      0.00
   17    6    6      0.78      0.00
   18    6    6      0.31      0.00
  -18    7    6      0.15      0.00
  -17    7    6      1.40      0.00
   15    7    6      1.22      0.00
   16    7    6      0.18      0.00
   17    7    6      0.03      0.00
   18    7    6      0.16      0.00
  -18    8    6      0.26      0.00
  -17    8    6      0.64      0.00
  -16    8    6     -0.62      0.00
   14    8    6     -1.01      0.00
   15    8    6     -0.14      0.00
   16    8    6     -0.57      0.00
   17    8    6      0.58      0.00
  -18    9    6     -0.37      0.00
  -17    9    6     -0.73      0.00
  -16    9    6     -1.13      0.00
   13    9    6     -2.26      0.00
   14    9    6      0.63      0.00
   15    9    6      0.40      0.00
   16    9    6      0.43      0.00
  -18   10    6     -0.08      0.00
  -17   10    6      0.40      0.00
  -16   10    6     -1.33      0.00
  -15   10    6     -1.89      0.00
   12   10    6     -0.35      0.00
   13   10    6      1.46      0.00
   14   10    6      0.84      0.00
   15   10    6     -0.12      0.00
   16   10    6      0.19      0.00
  -17   11    6      0.29      0.00
  -16   11    6     -0.19      0.00
  -15   11    6     -1.00      0.00
  -14   11    6      1.18      0.00
  -13   11    6     -0.32      0.00
   11   11    6      2.72      0.00
   12   11    6      1.74      0.00
   13   11    6     -0.12      0.00
   14   11    6      0.71      0.00
   15   11    6      0.75      0.00
  -16   12    6      0.10      0.00
  -15   12    6     -1.23      0.00
  -14   12    6      0.50      0.00
  -13   12    6      0.62      0.00
  -12   12    6     -0.44      0.00
   10   12    6      1.33      0.00
   11   12    6      0.77      0.00
   12   12    6      0.08      0.00
   13   12    6      1.41      0.00
   14   12    6      0.84      0.00
  -15   13    6     -0.03      0.00
  -14   13    6     -0.18      0.00
  -13   13    6      1.11      0.00
  -12   13    6     -0.69      0.00
  -11   13    6      0.19      0.00
  -10   13    6     -0.78      0.00
    8   13    6     -2.29      0.00
    9   13    6      0.47      0.00
   10   13    6     -0.05      0.00
   11   13    6     -0.28      0.00
   12   13    6      0.77      0.00
  -13   14    6      0.53      0.00
  -12   14    6     -0.06      0.00
  -11   14    6     -0.67      0.00
  -10   14    6      1.29      0.00
   -9   14    6      0.67      0.00
   -8   14    6     -0.94      0.00
   -7   14    6     -1.34      0.00
    5   14    6     -0.55      0.00
    6   14    6      0.27      0.00
    7   14    6     -2.37      0.00
    8   14    6      1.70      0.00
    9   14    6     -0.93      0.00
   10   14    6     -0.27      0.00
   11   14    6      0.06      0.00
  -11   15    6     -0.80      0.00
  -10   15    6      0.03      0.00
   -9   15    6     -0.24      0.00
   -8   15    6     -0.09      0.00
   -7   15    6     -0.43      0.00
   -6   15    6     -1.12      0.00
   -5   15    6      0.83      0.00
   -4   15    6      0.98      0.00
   -3   15    6      1.25      0.00
   -2   15    6     -0.83      0.00
   -1   15    6      1.06      0.00
    0   15    6      2.05      0.00
    1   15    6     -1.58      0.00
    2   15    6      0.09      0.00
    3   15    6      0.87      0.00
    4   15    6      0.96      0.00
    5   15    6     -0.54      0.00
    6   15    6     -1.38      0.00
    7   15    6      1.75      0.00
    8   15    6     -1.18      0.00
    9   15    6     -0.33      0.00
   17    0    7     -1.81      0.00
   17    1    7      0.09      0.00
   18    1    7      0.13      0.00
   16    2    7      0.42      0.00
   17    2    7     -0.05      0.00
   18    2    7      0.09      0.00
   16    3    7      0.27      0.00
   17    3    7      0.07      0.00
   18    3    7      0.45      0.00
   16    4    7     -1.98      0.00
   17    4    7     -0.47      0.00
   18    4    7      0.13      0.00
  -18    5    7      0.36      0.00
   16    5    7     -1.73      0.00
   17    5    7     -1.19      0.00
   18    5    7     -0.34      0.00
  -18    6    7     -0.97      0.00
   15    6    7     -1.39      0.00
   16    6    7     -0.02      0.00
   17    6    7     -1.03      0.00
   18    6    7     -0.30      0.00
  -18    7    7     -1.00      0.00
  -17    7    7     -0.41      0.00
   15    7    7      1.74      0.00
   16    7    7     -1.30      0.00
   17    7    7      0.20      0.00
  -18    8    7      0.73      0.00
  -17    8    7     -0.69      0.00
  -16    8    7     -0.24      0.00
   14    8    7     -0.49      0.00
   15    8    7     -0.40      0.00
   16    8    7      0.22      0.00
   17    8    7      0.04      0.00
  -18    9    7      0.24      0.00
  -17    9    7     -0.18      0.00
  -16    9    7      1.25      0.00
  -15    9    7      2.45      0.00
   13    9    7     -1.90      0.00
   14    9    7      1.34      0.00
   15    9    7     -0.01      0.00
   16    9    7     -0.08      0.00
  -18   10    7      0.06      0.00
  -17   10    7     -0.31      0.00
  -16   10    7     -0.14      0.00
  -15   10    7     -0.02      0.00
  -14   10    7      0.43      0.00
   12   10    7     -0.28      0.00
   13   10    7      1.45      0.00
   14   10    7     -0.92      0.00
   15   10    7     -0.87      0.00
  -17   11    7     -1.03      0.00
  -16   11    7      0.25      0.00
  -15   11    7      0.97      0.00
  -14   11    7     -0.02      0.00
  -13   11    7     -2.47      0.00
   10   11    7     -2.32      0.00
   11   11    7      0.17      0.00
   12   11    7     -1.27      0.00
   13   11    7     -1.68      0.00
   14   11    7     -0.33      0.00
  -16   12    7     -0.48      0.00
  -15   12    7      0.75      0.00
  -14   12    7      0.11      0.00
  -13   12    7     -0.63      0.00
  -12   12    7      0.22      0.00
    9   12    7      0.00      0.00
   10   12    7      0.41      0.00
   11   12    7     -1.44      0.00
   12   12    7     -0.62      0.00
   13   12    7      0.78      0.00
  -14   13    7     -0.06      0.00
  -13   13    7     -0.16      0.00
  -12   13    7      0.24      0.00
  -11   13    7      1.40      0.00
  -10   13    7     -1.28      0.00
    7   13    7      0.57      0.00
    8   13    7     -0.82      0.00
    9   13    7      1.20      0.00
   10   13    7     -0.41      0.00
   11   13    7      0.81      0.00
   12   13    7      0.40      0.00
  -13   14    7     -0.15      0.00
  -12   14    7      0.90      0.00
  -11   14    7      1.15      0.00
  -10   14    7      1.53      0.00
   -9   14    7     -1.49      0.00
   -8   14    7      0.00      0.00
   -7   14    7      1.56      0.00
    4   14    7     -1.93      0.00
    5   14    7      1.19      0.00
    6   14    7      0.84      0.00
    7   14    7     -1.61      0.00
    8   14    7      1.97      0.00
    9   14    7     -0.68      0.00
   10   14    7      0.28      0.00
  -11   15    7      1.34      0.00
  -10   15    7      0.80      0.00
   -9   15    7      0.77      0.00
   -8   15    7      0.55      0.00
   -7   15    7      1.17      0.00
   -6   15    7      0.86      0.00
   -5   15    7      2.19      0.00
   -4   15    7     -1.41      0.00
   -3   15    7     -0.49      0.00
   -2   15    7     -0.56      0.00
   -1   15    7     -0.36      0.00
    0   15    7      0.28      0.00
    1   15    7     -1.32      0.00
    2   15    7      1.89      0.00
    3   15    7     -1.37      0.00
    4   15    7     -0.87      0.00
    5   15    7     -0.44      0.00
    6   15    7     -0.07      0.00
    7   15    7      1.19      0.00
    8   15    7     -1.29      0.00
    9   15    7      0.60      0.00
   16    0    8      2.50      0.00
   18    0    8      0.71      0.00
   16    1    8     -1.44      0.00
   17    1    8      2.00      0.00
   18    1    8      0.10      0.00
   16    2    8      1.40      0.00
   17    2    8     -0.71      0.00
   18    2    8      0.09      0.00
   16    3    8      0.61      0.00
   17    3    8      0.33      0.00
   18    3    8     -0.32      0.00
  -18    4    8      0.21      0.00
    0    4    8    -11.28      0.00
   16    4    8      0.59      0.00
   17    4    8      1.42      0.00
   18    4    8      0.48      0.00
  -18    5    8      0.23      0.00
   15    5    8     -1.28      0.00
   16    5    8      2.03      0.00
   17    5    8      0.93      0.00
   18    5    8      0.30      0.00
  -18    6    8      0.15      0.00
   15    6    8     -0.41      0.00
   16    6    8      0.29      0.00
   17    6    8      0.20      0.00
  -18    7    8      0.18      0.00
  -17    7    8      1.69      0.00
    5    7    8     -0.64      0.00
   14    7    8     -1.47      0.00
   15    7    8      0.06      0.00
   16    7    8     -1.23      0.00
   17    7    8      0.46      0.00
  -18    8    8      0.31      0.00
  -17    8    8     -0.56      0.00
  -16    8    8     -0.80      0.00
   13    8    8     -0.85      0.00
   14    8    8     -1.24      0.00
   15    8    8     -1.22      0.00
   16    8    8      0.87      0.00
  -18    9    8     -0.62      0.00
  -17    9    8      0.70      0.00
  -16    9    8      0.52      0.00
  -15    9    8     -0.27      0.00
   12    9    8     -0.75      0.00
   13    9    8     -2.14      0.00
   14    9    8      1.13      0.00
   15    9    8      0.12      0.00
  -18   10    8     -0.03      0.00
  -17   10    8      0.48      0.00
  -16   10    8      0.19      0.00
  -15   10    8     -1.93      0.00
  -14   10    8      2.80      0.00
   11   10    8      1.46      0.00
   12   10    8      0.94      0.00
   13   10    8      1.77      0.00
   14   10    8     -0.84      0.00
   15   10    8      0.15      0.00
  -17   11    8     -0.04      0.00
  -16   11    8      0.71      0.00
  -15   11    8     -0.48      0.00
  -14   11    8     -0.93      0.00
  -13   11    8      1.02      0.00
   10   11    8      1.42      0.00
   11   11    8      1.91      0.00
   12   11    8      0.13      0.00
   13   11    8     -0.81      0.00
   14   11    8      0.37      0.00
  -16   12    8     -0.44      0.00
  -15   12    8     -0.85      0.00
  -14   12    8     -0.90      0.00
  -13   12    8      1.06      0.00
  -12   12    8     -1.16      0.00
  -11   12    8     -0.77      0.00
    8   12    8     -1.17      0.00
    9   12    8     -0.30      0.00
   10   12    8     -0.22      0.00
   11   12    8     -1.39      0.00
   12   12    8      0.52      0.00
   13   12    8      0.69      0.00
  -14   13    8     -0.93      0.00
  -13   13    8      0.04      0.00
  -12   13    8     -0.63      0.00
  -11   13    8     -2.93      0.00
  -10   13    8     -0.71      0.00
   -9   13    8      1.48      0.00
    6   13    8      0.37      0.00
    7   13    8     -0.45      0.00
    8   13    8     -0.55      0.00
    9   13    8     -0.21      0.00
   10   13    8     -0.38      0.00
   11   13    8      0.89      0.00
  -13   14    8     -0.01      0.00
  -12   14    8     -0.65      0.00
  -11   14    8     -2.03      0.00
  -10   14    8     -1.59      0.00
   -9   14    8     -1.40      0.00
   -8   14    8      0.10      0.00
   -7   14    8     -0.66      0.00
   -6   14    8     -2.58      0.00
    3   14    8      2.05      0.00
    4   14    8      1.11      0.00
    5   14    8      0.93      0.00
    6   14    8     -0.97      0.00
    7   14    8     -0.39      0.00
    8   14    8      0.72      0.00
    9   14    8     -0.70      0.00
   10   14    8      0.64      0.00
  -11   15    8     -0.69      0.00
  -10   15    8     -1.50      0.00
   -9   15    8     -0.22      0.00
   -8   15    8     -0.66      0.00
   -7   15    8     -0.50      0.00
   -6   15    8     -2.07      0.00
   -5   15    8     -1.06      0.00
   -4   15    8     -2.15      0.00
   -3   15    8      1.88      0.00
   -2   15    8     -0.58      0.00
   -1   15    8      0.29      0.00
    0   15    8      2.61      0.00
    1   15    8     -1.05      0.00
    2   15    8      0.91      0.00
    3   15    8     -1.58      0.00
    4   15    8      1.21      0.00
    5   15    8      0.20      0.00
    6   15    8     -0.38      0.00
    7   15    8      1.03      0.00
    8   15    8     -0.90      0.00
   17    0    9     -1.84      0.00
   16    1    9     -0.93      0.00
   17    1    9      1.26      0.00
   18    1    9     -0.99      0.00
   16    2    9      2.35      0.00
   17    2    9     -1.19      0.00
   18    2    9      0.59      0.00
   15    3    9      3.56      0.00
   16    3    9     -1.40      0.00
   17    3    9     -0.07      0.00
   18    3    9     -0.44      0.00
  -18    4    9      0.53      0.00
   15    4    9      0.04      0.00
   16    4    9     -1.04      0.00
   17    4    9     -0.91      0.00
   18    4    9     -0.19      0.00
  -18    5    9     -0.88      0.00
   15    5    9      0.52      0.00
   16    5    9      1.06      0.00
   17    5    9     -0.83      0.00
  -18    6    9     -1.07      0.00
  -17    6    9     -1.69      0.00
   14    6    9      1.25      0.00
   15    6    9      2.73      0.00
   16    6    9     -0.33      0.00
   17    6    9      0.36      0.00
  -18    7    9      0.18      0.00
  -17    7    9     -0.47      0.00
   14    7    9      1.26      0.00
   15    7    9      0.89      0.00
   16    7    9      0.13      0.00
  -18    8    9      0.60      0.00
  -17    8    9     -1.25      0.00
  -16    8    9     -0.68      0.00
   13    8    9     -0.37      0.00
   14    8    9      0.60      0.00
   15    8    9      0.08      0.00
   16    8    9      0.75      0.00
  -18    9    9     -0.20      0.00
  -17    9    9      0.29      0.00
  -16    9    9      0.22      0.00
  -15    9    9     -0.21      0.00
   12    9    9     -1.22      0.00
   13    9    9     -0.17      0.00
   14    9    9      1.06      0.00
   15    9    9      0.08      0.00
  -17   10    9     -0.53      0.00
  -16   10    9     -0.86      0.00
  -15   10    9      0.12      0.00
  -14   10    9      2.52      0.00
   10   10    9     -1.58      0.00
   11   10    9     -0.88      0.00
   12   10    9     -0.50      0.00
   13   10    9      0.68      0.00
   14   10    9     -1.08      0.00
  -16   11    9      0.02      0.00
  -15   11    9      1.71      0.00
  -14   11    9     -0.51      0.00
  -13   11    9      0.24      0.00
    9   11    9      1.09      0.00
   10   11    9      1.50      0.00
   11   11    9     -0.24      0.00
   12   11    9     -0.98      0.00
   13   11    9     -0.80      0.00
  -15   12    9      0.54      0.00
  -14   12    9      1.64      0.00
  -13   12    9     -0.02      0.00
  -12   12    9     -0.09      0.00
  -11   12    9      3.05      0.00
    7   12    9      1.57      0.00
    8   12    9      0.35      0.00
    9   12    9      1.41      0.00
   10   12    9     -0.31      0.00
   11   12    9     -0.21      0.00
   12   12    9      0.37      0.00
  -14   13    9      0.38      0.00
  -13   13    9      0.08      0.00
  -12   13    9      0.76      0.00
  -11   13    9      1.47      0.00
  -10   13    9      3.75      0.00
   -9   13    9     -0.12      0.00
    5   13    9     -1.18      0.00
    6   13    9      2.14      0.00
    7   13    9     -0.53      0.00
    8   13    9      0.61      0.00
    9   13    9      0.11      0.00
   10   13    9      0.15      0.00
   11   13    9      0.62      0.00
  -12   14    9     -0.27      0.00
  -11   14    9      1.84      0.00
  -10   14    9      1.30      0.00
   -9   14    9      1.26      0.00
   -8   14    9      0.23      0.00
   -7   14    9      1.19      0.00
   -6   14    9      1.80      0.00
   -5   14    9      3.83      0.00
   -4   14    9      2.59      0.00
    0   14    9     -0.73      0.00
    1   14    9     -0.77      0.00
    2   14    9     -1.34      0.00
    3   14    9      1.06      0.00
    4   14    9     -1.81      0.00
    5   14    9     -0.24      0.00
    6   14    9     -0.23      0.00
    7   14    9      0.35      0.00
    8   14    9      0.52      0.00
    9   14    9      0.28      0.00
  -10   15    9      0.55      0.00
   -9   15    9      0.69      0.00
   -8   15    9     -0.14      0.00
   -7   15    9     -0.27      0.00
   -6   15    9      0.98      0.00
   -5   15    9      2.74      0.00
   -4   15    9     -0.31      0.00
   -3   15    9      0.70      0.00
   -2   15    9     -1.12      0.00
   -1   15    9      0.91      0.00
    0   15    9     -0.12      0.00
    1   15    9     -2.48      0.00
    2   15    9      1.37      0.00
    3   15    9     -0.77      0.00
    4   15    9      0.35      0.00
    5   15    9     -0.52      0.00
    6   15    9      0.25      0.00
    7   15    9      0.28      0.00
   16    0   10     -1.94      0.00
   18    0   10      0.80      0.00
   15    1   10     -2.11      0.00
   16    1   10     -1.47      0.00
   17    1   10      0.15      0.00
   18    1   10     -0.60      0.00
   15    2   10     -3.69      0.00
   16    2   10      0.74      0.00
   17    2   10     -1.40      0.00
   18    2   10      0.63      0.00
  -18    3   10      0.93      0.00
   15    3   10      1.53      0.00
   16    3   10     -1.73      0.00
   17    3   10      1.39      0.00
  -18    4   10     -0.61      0.00
   14    4   10      1.13      0.00
   15    4   10     -3.82      0.00
   16    4   10      0.53      0.00
   17    4   10      0.14      0.00
  -18    5   10      0.60      0.00
   14    5   10     -2.86      0.00
   15    5   10     -1.33      0.00
   16    5   10     -0.19      0.00
   17    5   10     -0.17      0.00
  -18    6   10      0.68      0.00
  -17    6   10      0.89      0.00
   14    6   10     -0.99      0.00
   15    6   10     -0.47      0.00
   16    6   10     -1.67      0.00
  -18    7   10      0.32      0.00
  -17    7   10      1.28      0.00
   13    7   10      0.63      0.00
   14    7   10     -0.40      0.00
   15    7   10     -1.71      0.00
   16    7   10      0.34      0.00
  -18    8   10     -0.18      0.00
  -17    8   10     -0.64      0.00
  -16    8   10      0.91      0.00
   12    8   10      0.95      0.00
   13    8   10     -1.39      0.00
   14    8   10     -0.18      0.00
   15    8   10     -0.17      0.00
  -18    9   10     -0.06      0.00
  -17    9   10      1.20      0.00
  -16    9   10      1.30      0.00
  -15    9   10     -1.90      0.00
   11    9   10      0.84      0.00
   12    9   10     -0.62      0.00
   13    9   10      0.81      0.00
   14    9   10      0.35      0.00
   15    9   10      0.09      0.00
  -17   10   10     -0.31      0.00
  -16   10   10     -0.02      0.00
  -15   10   10      0.01      0.00
  -14   10   10     -0.30      0.00
    9   10   10     -1.92      0.00
   10   10   10     -0.44      0.00
   11   10   10      0.75      0.00
   12   10   10      0.95      0.00
   13   10   10      0.30      0.00
   14   10   10     -0.75      0.00
  -16   11   10      0.69      0.00
  -15   11   10     -0.37      0.00
  -14   11   10     -3.23      0.00
  -13   11   10      1.54      0.00
  -12   11   10     -0.63      0.00
    8   11   10     -0.50      0.00
    9   11   10     -0.89      0.00
   10   11   10     -0.51      0.00
   11   11   10     -1.09      0.00
   12   11   10     -0.33      0.00
   13   11   10     -0.26      0.00
  -15   12   10     -0.08      0.00
  -14   12   10     -0.47      0.00
  -13   12   10     -1.04      0.00
  -12   12   10      0.35      0.00
  -11   12   10     -2.02      0.00
    6   12   10     -2.94      0.00
    7   12   10      0.86      0.00
    8   12   10     -0.79      0.00
    9   12   10     -0.98      0.00
   10   12   10     -1.18      0.00
   11   12   10     -0.22      0.00
   12   12   10      0.56      0.00
  -14   13   10     -0.66      0.00
  -13   13   10      0.18      0.00
  -12   13   10      0.21      0.00
  -11   13   10     -1.97      0.00
  -10   13   10     -1.50      0.00
   -9   13   10     -2.32      0.00
   -8   13   10     -0.02      0.00
    4   13   10      2.81      0.00
    5   13   10     -0.57      0.00
    6   13   10      1.06      0.00
    7   13   10     -1.31      0.00
    8   13   10     -0.60      0.00
    9   13   10     -0.42      0.00
   10   13   10      0.15      0.00
  -12   14   10      0.56      0.00
  -11   14   10      0.30      0.00
  -10   14   10     -2.26      0.00
   -9   14   10     -0.34      0.00
   -8   14   10     -0.55      0.00
   -7   14   10      0.45      0.00
   -6   14   10     -2.10      0.00
   -5   14   10     -2.78      0.00
   -4   14   10     -2.83      0.00
   -3   14   10     -0.16      0.00
   -2   14   10      1.39      0.00
   -1   14   10     -2.10      0.00
    0   14   10      3.21      0.00
    1   14   10      1.28      0.00
    2   14   10     -0.33      0.00
    3   14   10      1.11      0.00
    4   14   10     -0.32      0.00
    5   14   10      1.40      0.00
    6   14   10     -0.93      0.00
    7   14   10      0.00      0.00
    8   14   10     -0.10      0.00
    9   14   10     -0.76      0.00
  -10   15   10      0.35      0.00
   -9   15   10     -0.57      0.00
   -8   15   10     -0.02      0.00
   -7   15   10      0.63      0.00
   -6   15   10      0.86      0.00
   -5   15   10     -2.19      0.00
   -4   15   10     -2.15      0.00
   -3   15   10      1.50      0.00
   -2   15   10     -0.35      0.00
   -1   15   10      0.56      0.00
    0   15   10     -0.29      0.00
    1   15   10      0.20      0.00
    2   15   10      0.92      0.00
    3   15   10     -1.36      0.00
    4   15   10      0.78      0.00
    5   15   10      0.01      0.00
    6   15   10      0.09      0.00
   15    0   11      3.56      0.00
   17    0   11      1.52      0.00
   15    1   11      0.53      0.00
   16    1   11      2.03      0.00
   17    1   11      0.43      0.00
  -18    2   11     -0.36      0.00
   14    2   11      0.51      0.00
   15    2   11      1.29      0.00
   16    2   11      0.82      0.00
   17    2   11     -0.27      0.00
  -18    3   11      1.52      0.00
   14    3   11      0.21      0.00
   15    3   11      3.28      0.00
   16    3   11     -1.27      0.00
   17    3   11      0.54      0.00
  -18    4   11     -2.26      0.00
   14    4   11      2.72      0.00
   15    4   11     -1.36      0.00
   16    4   11      1.87      0.00
   17    4   11     -0.67      0.00
  -18    5   11     -0.82      0.00
  -17    5   11     -1.08      0.00
   13    5   11     -0.16      0.00
   14    5   11     -1.25      0.00
   15    5   11      2.96      0.00
   16    5   11      0.30      0.00
  -18    6   11     -0.24      0.00
  -17    6   11     -2.35      0.00
   13    6   11     -0.13      0.00
   14    6   11      0.78      0.00
   15    6   11      0.90      0.00
   16    6   11     -0.06      0.00
  -18    7   11      0.54      0.00
  -17    7   11     -0.04      0.00
  -16    7   11     -2.01      0.00
   -1    7   11      1.84      0.00
   12    7   11      1.08      0.00
   13    7   11      0.11      0.00
   14    7   11      0.06      0.00
   15    7   11     -0.28      0.00
  -18    8   11     -0.33      0.00
  -17    8   11     -1.47      0.00
  -16    8   11     -0.12      0.00
  -15    8   11     -0.15      0.00
   12    8   11      0.79      0.00
   13    8   11     -0.68      0.00
   14    8   11      0.12      0.00
   15    8   11      0.52      0.00
  -18    9   11     -0.35      0.00
  -17    9   11      0.55      0.00
  -16    9   11     -1.69      0.00
  -15    9   11     -1.14      0.00
   10    9   11      0.09      0.00
   11    9   11      0.12      0.00
   12    9   11     -0.47      0.00
   13    9   11      0.85      0.00
   14    9   11     -0.03      0.00
  -17   10   11     -0.72      0.00
  -16   10   11     -1.10      0.00
  -15   10   11      1.44      0.00
  -14   10   11      1.27      0.00
  -13   10   11      0.50      0.00
    9   10   11      1.86      0.00
   10   10   11      1.71      0.00
   11   10   11      1.00      0.00
   12   10   11      0.26      0.00
   13   10   11     -0.33      0.00
  -16   11   11     -0.38      0.00
  -15   11   11     -0.60      0.00
  -14   11   11      1.13      0.00
  -13   11   11      2.25      0.00
  -12   11   11     -1.05      0.00
    7   11   11     -0.89      0.00
    8   11   11      2.12      0.00
    9   11   11      1.63      0.00
   10   11   11      0.89      0.00
   11   11   11      0.16      0.00
   12   11   11     -0.12      0.00
  -15   12   11     -0.22      0.00
  -14   12   11      1.38      0.00
  -13   12   11      0.15      0.00
  -12   12   11      0.81      0.00
  -11   12   11      0.88      0.00
  -10   12   11      3.12      0.00
    5   12   11     -0.02      0.00
    6   12   11     -0.24      0.00
    7   12   11      2.12      0.00
    8   12   11      0.24      0.00
    9   12   11      0.15      0.00
   10   12   11      0.28      0.00
   11   12   11      0.82      0.00
  -13   13   11      0.49      0.00
  -12   13   11     -0.67      0.00
  -11   13   11      0.77      0.00
  -10   13   11      2.52      0.00
   -9   13   11      1.40      0.00
   -8   13   11      1.04      0.00
   -7   13   11      0.78      0.00
    3   13   11     -2.43      0.00
    4   13   11      0.37      0.00
    5   13   11     -2.00      0.00
    6   13   11      1.35      0.00
    7   13   11     -0.59      0.00
    8   13   11      0.71      0.00
    9   13   11      1.07      0.00
   10   13   11      0.22      0.00
  -12   14   11     -0.38      0.00
  -11   14   11     -0.11      0.00
  -10   14   11      0.00      0.00
   -9   14   11      1.94      0.00
   -8   14   11      0.57      0.00
   -7   14   11     -1.15      0.00
   -6   14   11      0.53      0.00
   -5   14   11      2.80      0.00
   -4   14   11      2.30      0.00
   -3   14   11      0.43      0.00
   -2   14   11     -0.96      0.00
   -1   14   11     -0.10      0.00
    0   14   11      2.40      0.00
    1   14   11     -3.22      0.00
    2   14   11     -1.05      0.00
    3   14   11      1.18      0.00
    4   14   11     -1.37      0.00
    5   14   11      0.28      0.00
    6   14   11     -0.88      0.00
    7   14   11      0.68      0.00
    8   14   11      0.42      0.00
   -9   15   11     -0.31      0.00
   -8   15   11      0.70      0.00
   -7   15   11     -0.12      0.00
   -6   15   11     -1.26      0.00
   -5   15   11     -0.40      0.00
   -4   15   11      1.89      0.00
   -3   15   11      0.20      0.00
   -2   15   11     -0.88      0.00
   -1   15   11      1.55      0.00
    0   15   11     -0.87      0.00
    1   15   11     -0.03      0.00
    2   15   11     -0.53      0.00
    3   15   11     -0.27      0.00
    4   15   11      0.74      0.00
    5   15   11     -0.79      0.00
    6   15   11      0.33      0.00
  -18    0   12      0.69      0.00
   14    0   12     -4.15      0.00
   16    0   12     -1.59      0.00
  -18    1   12     -0.13      0.00
   14    1   12      0.65      0.00
   15    1   12     -2.45      0.00
   16    1   12      0.52      0.00
   17    1   12     -0.93      0.00
  -18    2   12      0.26      0.00
   14    2   12     -2.70      0.00
   15    2   12      0.17      0.00
   16    2   12     -0.36      0.00
   17    2   12      0.31      0.00
  -18    3   12      1.57      0.00
   14    3   12      1.38      0.00
   15    3   12     -0.17      0.00
   16    3   12     -0.78      0.00
  -18    4   12     -0.15      0.00
   13    4   12      1.38      0.00
   14    4   12      0.49      0.00
   15    4   12     -2.90      0.00
   16    4   12      0.61      0.00
  -18    5   12      1.43      0.00
  -17    5   12      1.76      0.00
   13    5   12     -0.13      0.00
   14    5   12     -1.08      0.00
   15    5   12      1.08      0.00
   16    5   12     -1.28      0.00
  -18    6   12     -0.12      0.00
  -17    6   12      0.53      0.00
    0    6   12     -1.81      0.00
   12    6   12     -1.56      0.00
   13    6   12      0.93      0.00
   14    6   12      1.06      0.00
   15    6   12     -1.14      0.00
  -18    7   12      0.22      0.00
  -17    7   12      0.74      0.00
  -16    7   12      0.79      0.00
   12    7   12      0.02      0.00
   13    7   12     -0.68      0.00
   14    7   12     -0.11      0.00
   15    7   12     -0.44      0.00
  -18    8   12      0.09      0.00
  -17    8   12      0.01      0.00
  -16    8   12      3.06      0.00
  -15    8   12      0.12      0.00
   11    8   12     -0.89      0.00
   12    8   12     -1.03      0.00
   13    8   12     -0.70      0.00
   14    8   12      0.14      0.00
  -18    9   12      0.15      0.00
  -17    9   12      1.38      0.00
  -16    9   12     -0.34      0.00
  -15    9   12      1.20      0.00
  -14    9   12     -1.57      0.00
    9    9   12     -3.18      0.00
   10    9   12     -0.95      0.00
   11    9   12     -0.16      0.00
   12    9   12     -0.25      0.00
   13    9   12      0.44      0.00
  -17   10   12     -0.67      0.00
  -16   10   12      1.36      0.00
  -15   10   12      1.18      0.00
  -14   10   12     -2.25      0.00
  -13   10   12     -1.26      0.00
    8   10   12     -4.09      0.00
    9   10   12      0.72      0.00
   10   10   12     -0.71      0.00
   11   10   12     -0.65      0.00
   12   10   12     -0.34      0.00
  -16   11   12      0.43      0.00
  -15   11   12      0.08      0.00
  -14   11   12     -0.74      0.00
  -13   11   12     -1.38      0.00
  -12   11   12     -0.97      0.00
  -11   11   12     -0.90      0.00
    6   11   12     -2.28      0.00
    7   11   12     -2.40      0.00
    8   11   12      1.42      0.00
    9   11   12     -1.31      0.00
   10   11   12     -1.22      0.00
   11   11   12     -1.17      0.00
  -15   12   12      0.77      0.00
  -14   12   12     -0.26      0.00
  -13   12   12     -1.23      0.00
  -12   12   12      0.32      0.00
  -11   12   12     -1.93      0.00
  -10   12   12     -2.11      0.00
   -9   12   12     -3.05      0.00
    4   12   12      1.56      0.00
    5   12   12     -0.08      0.00
    6   12   12      0.17      0.00
    7   12   12      0.75      0.00
    8   12   12     -1.85      0.00
    9   12   12     -0.65      0.00
   10   12   12     -0.11      0.00
  -13   13   12     -0.45      0.00
  -12   13   12      0.16      0.00
  -11   13   12      0.45      0.00
  -10   13   12     -1.77      0.00
   -9   13   12     -2.60      0.00
   -8   13   12     -0.70      0.00
   -7   13   12     -0.75      0.00
   -6   13   12     -1.43      0.00
   -5   13   12     -1.21      0.00
    0   13   12     -0.80      0.00
    1   13   12      5.32      0.00
    2   13   12     -0.52      0.00
    3   13   12      1.88      0.00
    4   13   12      1.50      0.00
    5   13   12      0.91      0.00
    6   13   12      1.01      0.00
    7   13   12     -1.28      0.00
    8   13   12      0.14      0.00
    9   13   12     -0.34      0.00
  -11   14   12     -0.02      0.00
  -10   14   12     -0.27      0.00
   -9   14   12     -0.34      0.00
   -8   14   12     -1.66      0.00
   -7   14   12     -0.73      0.00
   -6   14   12      3.06      0.00
   -5   14   12     -1.98      0.00
   -4   14   12     -1.67      0.00
   -3   14   12     -0.45      0.00
   -2   14   12     -0.29      0.00
   -1   14   12      0.17      0.00
    0   14   12      1.02      0.00
    1   14   12     -2.20      0.00
    2   14   12      2.32      0.00
    3   14   12      0.72      0.00
    4   14   12     -0.83      0.00
    5   14   12      1.11      0.00
    6   14   12     -0.56      0.00
    7   14   12      0.65      0.00
   -9   15   12     -0.78      0.00
   -8   15   12     -0.57      0.00
   -7   15   12      0.11      0.00
   -6   15   12     -0.11      0.00
   -5   15   12      1.12      0.00
   -4   15   12     -0.30      0.00
   -3   15   12      0.07      0.00
   -2   15   12      1.17      0.00
   -1   15   12      0.28      0.00
    0   15   12     -2.22      0.00
    1   15   12      1.11      0.00
    2   15   12      0.05      0.00
    3   15   12      0.32      0.00
    4   15   12      0.48      0.00
   13    0   13      1.10      0.00
   15    0   13      1.71      0.00
  -18    1   13     -1.11      0.00
   13    1   13     -1.93      0.00
   14    1   13      2.26      0.00
   15    1   13     -0.43      0.00
   16    1   13      0.14      0.00
  -18    2   13      0.15      0.00
   13    2   13     -0.09      0.00
   14    2   13     -2.68      0.00
   15    2   13      1.40      0.00
   16    2   13     -0.48      0.00
  -18    3   13     -1.01      0.00
   13    3   13     -2.74      0.00
   14    3   13      1.77      0.00
   15    3   13      0.04      0.00
   16    3   13      0.09      0.00
  -18    4   13     -2.07      0.00
  -17    4   13     -0.26      0.00
   13    4   13      1.44      0.00
   14    4   13     -1.29      0.00
   15    4   13     -0.09      0.00
  -18    5   13      0.39      0.00
  -17    5   13     -2.70      0.00
   12    5   13      0.71      0.00
   13    5   13     -1.47      0.00
   14    5   13     -0.82      0.00
   15    5   13      1.39      0.00
  -18    6   13      0.08      0.00
  -17    6   13     -0.96      0.00
  -16    6   13     -1.09      0.00
   11    6   13      0.88      0.00
   12    6   13     -0.55      0.00
   13    6   13      0.97      0.00
   14    6   13     -0.03      0.00
   15    6   13     -0.56      0.00
  -18    7   13     -0.05      0.00
  -17    7   13     -0.47      0.00
  -16    7   13     -2.17      0.00
   11    7   13      0.41      0.00
   12    7   13      2.15      0.00
   13    7   13     -0.08      0.00
   14    7   13     -0.09      0.00
  -18    8   13     -0.41      0.00
  -17    8   13     -0.06      0.00
  -16    8   13     -0.49      0.00
  -15    8   13     -2.06      0.00
    9    8   13      1.70      0.00
   10    8   13     -0.33      0.00
   11    8   13     -0.27      0.00
   12    8   13      0.19      0.00
   13    8   13      0.55      0.00
  -17    9   13      0.92      0.00
  -16    9   13     -2.15      0.00
  -15    9   13      0.26      0.00
  -14    9   13     -0.51      0.00
    8    9   13      1.85      0.00
    9    9   13     -1.96      0.00
   10    9   13      0.41      0.00
   11    9   13      1.22      0.00
   12    9   13      0.32      0.00
   13    9   13      0.49      0.00
  -17   10   13     -0.34      0.00
  -16   10   13      1.08      0.00
  -15   10   13     -1.57      0.00
  -14   10   13      0.54      0.00
  -13   10   13      1.62      0.00
  -12   10   13     -0.02      0.00
    7   10   13      1.33      0.00
    8   10   13     -1.17      0.00
    9   10   13      3.13      0.00
   10   10   13      1.22      0.00
   11   10   13      0.60      0.00
   12   10   13      0.07      0.00
  -15   11   13     -0.87      0.00
  -14   11   13     -0.02      0.00
  -13   11   13      0.62      0.00
  -12   11   13      0.69      0.00
  -11   11   13      0.67      0.00
    5   11   13      0.20      0.00
    6   11   13     -0.83      0.00
    7   11   13      0.48      0.00
    8   11   13      2.96      0.00
    9   11   13     -0.74      0.00
   10   11   13      0.11      0.00
   11   11   13      0.36      0.00
  -14   12   13     -0.19      0.00
  -13   12   13      0.06      0.00
  -12   12   13     -0.16      0.00
  -11   12   13     -0.50      0.00
  -10   12   13      3.13      0.00
   -9   12   13      1.62      0.00
   -8   12   13      2.28      0.00
    2   12   13      0.79      0.00
    3   12   13     -5.68      0.00
    4   12   13     -1.99      0.00
    5   12   13     -2.16      0.00
    6   12   13      0.14      0.00
    7   12   13      0.75      0.00
    8   12   13     -0.93      0.00
    9   12   13      1.01      0.00
  -13   13   13     -0.05      0.00
  -12   13   13     -0.30      0.00
  -11   13   13     -0.28      0.00
  -10   13   13     -0.65      0.00
   -9   13   13      1.69      0.00
   -8   13   13      2.98      0.00
   -7   13   13     -1.39      0.00
   -6   13   13      0.62      0.00
   -5   13   13      1.32      0.00
   -4   13   13      1.56      0.00
   -3   13   13      2.43      0.00
   -2   13   13     -1.52      0.00
   -1   13   13     -2.06      0.00
    0   13   13      1.64      0.00
    1   13   13      2.91      0.00
    2   13   13     -4.94      0.00
    3   13   13     -0.05      0.00
    4   13   13     -0.75      0.00
    5   13   13     -0.18      0.00
    6   13   13     -0.48      0.00
    7   13   13     -0.60      0.00
    8   13   13      1.23      0.00
  -11   14   13     -0.29      0.00
  -10   14   13      0.30      0.00
   -9   14   13      0.25      0.00
   -8   14   13      0.17      0.00
   -7   14   13      1.38      0.00
   -6   14   13      0.08      0.00
   -5   14   13     -2.78      0.00
   -4   14   13      1.99      0.00
   -3   14   13     -1.00      0.00
   -2   14   13     -1.42      0.00
   -1   14   13      1.71      0.00
    0   14   13      1.20      0.00
    1   14   13     -1.70      0.00
    2   14   13      1.63      0.00
    3   14   13     -0.93      0.00
    4   14   13     -0.21      0.00
    5   14   13     -0.17      0.00
    6   14   13     -0.45      0.00
   -8   15   13      0.78      0.00
   -7   15   13      1.22      0.00
   -6   15   13     -1.33      0.00
   -5   15   13      0.69      0.00
   -4   15   13     -0.60      0.00
   -3   15   13      0.07      0.00
   -2   15   13     -0.71      0.00
   -1   15   13     -0.95      0.00
    0   15   13     -0.54      0.00
    1   15   13      1.76      0.00
    2   15   13     -1.05      0.00
    3   15   13     -0.24      0.00
  -18    0   14      0.69      0.00
   14    0   14     -1.30      0.00
  -18    1   14     -0.50      0.00
   13    1   14      1.10      0.00
   14    1   14      1.74      0.00
   15    1   14     -1.06      0.00
  -18    2   14      1.71      0.00
   12    2   14     -0.86      0.00
   13    2   14      2.27      0.00
   14    2   14     -0.94      0.00
   15    2   14      0.72      0.00
  -18    3   14      0.68      0.00
  -17    3   14      1.11      0.00
   12    3   14      0.74      0.00
   13    3   14     -1.32      0.00
   14    3   14      2.56      0.00
   15    3   14     -1.17      0.00
  -18    4   14      0.25      0.00
  -17    4   14      4.32      0.00
   12    4   14     -0.96      0.00
   13    4   14      2.11      0.00
   14    4   14     -0.94      0.00
   15    4   14      0.14      0.00
  -18    5   14      0.86      0.00
  -17    5   14      0.18      0.00
  -16    5   14      2.80      0.00
   11    5   14     -0.06      0.00
   12    5   14      1.10      0.00
   13    5   14     -0.81      0.00
   14    5   14      1.27      0.00
  -18    6   14     -0.16      0.00
  -17    6   14      0.61      0.00
  -16    6   14      2.88      0.00
   11    6   14      0.62      0.00
   12    6   14     -1.56      0.00
   13    6   14      0.39      0.00
   14    6   14     -0.04      0.00
  -18    7   14     -0.09      0.00
  -17    7   14     -0.04      0.00
  -16    7   14      0.90      0.00
  -15    7   14      1.24      0.00
   10    7   14      2.23      0.00
   11    7   14     -0.90      0.00
   12    7   14      0.01      0.00
   13    7   14     -1.64      0.00
  -18    8   14     -0.38      0.00
  -17    8   14     -0.19      0.00
  -16    8   14      0.14      0.00
  -15    8   14      1.67      0.00
  -14    8   14     -0.37      0.00
    9    8   14      2.05      0.00
   10    8   14     -0.91      0.00
   11    8   14     -0.31      0.00
   12    8   14     -0.69      0.00
   13    8   14      0.06      0.00
  -17    9   14     -0.76      0.00
  -16    9   14     -1.25      0.00
  -15    9   14      1.92      0.00
  -14    9   14     -0.91      0.00
  -13    9   14      0.51      0.00
    7    9   14     -0.29      0.00
    8    9   14     -1.82      0.00
    9    9   14     -2.59      0.00
   10    9   14     -0.47      0.00
   11    9   14      0.30      0.00
   12    9   14     -0.29      0.00
  -16   10   14      0.66      0.00
  -15   10   14     -0.37      0.00
  -14   10   14      1.84      0.00
  -13   10   14     -0.82      0.00
  -12   10   14      0.19      0.00
    6   10   14     -0.44      0.00
    7   10   14     -3.11      0.00
    8   10   14     -1.69      0.00
    9   10   14      0.94      0.00
   10   10   14     -0.58      0.00
   11   10   14     -1.27      0.00
  -15   11   14      0.86      0.00
  -14   11   14      0.42      0.00
  -13   11   14      0.43      0.00
  -12   11   14      1.41      0.00
  -11   11   14     -0.54      0.00
  -10   11   14     -0.22      0.00
    3   11   14      6.35      0.00
    4   11   14      3.61      0.00
    5   11   14      0.60      0.00
    6   11   14     -0.45      0.00
    7   11   14      0.59      0.00
    8   11   14      0.50      0.00
    9   11   14     -1.67      0.00
   10   11   14     -0.34      0.00
  -14   12   14      0.95      0.00
  -13   12   14      0.20      0.00
  -12   12   14      0.88      0.00
  -11   12   14      1.55      0.00
  -10   12   14      0.78      0.00
   -9   12   14     -3.49      0.00
   -8   12   14      0.16      0.00
   -7   12   14     -1.35      0.00
   -6   12   14     -2.44      0.00
   -2   12   14      2.70      0.00
   -1   12   14      1.69      0.00
    0   12   14     -2.94      0.00
    1   12   14     -0.27      0.00
    2   12   14      3.39      0.00
    3   12   14      1.26      0.00
    4   12   14      1.19      0.00
    5   12   14      1.00      0.00
    6   12   14      1.27      0.00
    7   12   14     -0.15      0.00
    8   12   14     -1.32      0.00
    9   12   14      0.20      0.00
  -12   13   14      0.67      0.00
  -11   13   14      1.09      0.00
  -10   13   14     -0.07      0.00
   -9   13   14      1.70      0.00
   -8   13   14     -0.95      0.00
   -7   13   14     -3.16      0.00
   -6   13   14      2.87      0.00
   -5   13   14     -0.72      0.00
   -4   13   14     -0.58      0.00
   -3   13   14      0.11      0.00
   -2   13   14     -0.33      0.00
   -1   13   14     -0.69      0.00
    0   13   14      1.60      0.00
    1   13   14     -1.13      0.00
    2   13   14     -3.20      0.00
    3   13   14      2.11      0.00
    4   13   14     -0.01      0.00
    5   13   14      0.26      0.00
    6   13   14     -0.37      0.00
    7   13   14     -0.26      0.00
  -10   14   14      0.90      0.00
   -9   14   14     -0.02      0.00
   -8   14   14     -0.88      0.00
   -7   14   14      0.51      0.00
   -6   14   14     -1.01      0.00
   -5   14   14      0.33      0.00
   -4   14   14      0.58      0.00
   -3   14   14     -0.77      0.00
   -2   14   14      1.70      0.00
   -1   14   14      2.33      0.00
    0   14   14     -1.84      0.00
    1   14   14     -2.11      0.00
    2   14   14      1.64      0.00
    3   14   14     -0.64      0.00
    4   14   14     -0.02      0.00
    5   14   14      0.02      0.00
   -7   15   14     -1.15      0.00
   -6   15   14     -1.02      0.00
   -5   15   14      1.11      0.00
   -4   15   14     -1.22      0.00
   -3   15   14      0.61      0.00
   -2   15   14      0.77      0.00
   -1   15   14     -0.30      0.00
    0   15   14      0.18      0.00
    1   15   14      0.44      0.00
  -17    0   15      0.38      0.00
   13    0   15     -2.70      0.00
   15    0   15      0.50      0.00
  -18    1   15     -0.83      0.00
  -17    1   15     -0.96      0.00
   12    1   15     -0.78      0.00
   13    1   15     -1.48      0.00
   14    1   15     -0.44      0.00
   15    1   15     -0.64      0.00
  -18    2   15      0.18      0.00
  -17    2   15     -1.58      0.00
   12    2   15     -0.30      0.00
   13    2   15     -0.21      0.00
   14    2   15     -1.72      0.00
   15    2   15      0.88      0.00
  -18    3   15     -1.93      0.00
  -17    3   15     -3.16      0.00
   11    3   15     -1.21      0.00
   12    3   15      1.22      0.00
   13    3   15     -1.18      0.00
   14    3   15      0.89      0.00
  -18    4   15     -0.24      0.00
  -17    4   15     -0.91      0.00
   11    4   15     -0.28      0.00
   12    4   15     -1.90      0.00
   13    4   15      0.86      0.00
   14    4   15     -2.20      0.00
  -18    5   15      1.12      0.00
  -17    5   15     -2.64      0.00
  -16    5   15     -1.83      0.00
   11    5   15     -1.32      0.00
   12    5   15      0.73      0.00
   13    5   15     -0.94      0.00
   14    5   15      0.55      0.00
  -18    6   15     -0.13      0.00
  -17    6   15      0.78      0.00
  -16    6   15     -1.07      0.00
  -15    6   15     -2.94      0.00
   10    6   15     -1.59      0.00
   11    6   15      1.22      0.00
   12    6   15      0.27      0.00
   13    6   15      1.47      0.00
  -18    7   15     -0.07      0.00
  -17    7   15      0.79      0.00
  -16    7   15     -0.52      0.00
  -15    7   15     -1.44      0.00
    9    7   15     -2.31      0.00
   10    7   15      1.79      0.00
   11    7   15     -1.02      0.00
   12    7   15      0.95      0.00
   13    7   15     -0.23      0.00
  -17    8   15      1.11      0.00
  -16    8   15      0.59      0.00
  -15    8   15      0.07      0.00
  -14    8   15     -1.73      0.00
    8    8   15      1.95      0.00
    9    8   15      2.00      0.00
   10    8   15     -1.72      0.00
   11    8   15      0.31      0.00
   12    8   15     -0.38      0.00
  -17    9   15      0.23      0.00
  -16    9   15      1.03      0.00
  -15    9   15     -0.28      0.00
  -14    9   15     -1.44      0.00
  -13    9   15      0.64      0.00
  -12    9   15     -1.84      0.00
    6    9   15      2.62      0.00
    7    9   15      3.32      0.00
    8    9   15      0.60      0.00
    9    9   15     -0.08      0.00
   10    9   15      1.51      0.00
   11    9   15      0.98      0.00
  -16   10   15      1.37      0.00
  -15   10   15     -0.81      0.00
  -14   10   15      0.19      0.00
  -13   10   15     -1.87      0.00
  -12   10   15     -0.37      0.00
  -11   10   15     -1.75      0.00
    4   10   15     -3.49      0.00
    5   10   15      1.21      0.00
    6   10   15     -0.34      0.00
    7   10   15     -1.14      0.00
    8   10   15      1.68      0.00
    9   10   15      1.38      0.00
   10   10   15     -0.09      0.00
  -15   11   15      0.58      0.00
  -14   11   15     -1.15      0.00
  -13   11   15     -0.02      0.00
  -12   11   15     -0.91      0.00
  -11   11   15     -3.19      0.00
  -10   11   15      1.40      0.00
   -9   11   15     -0.53      0.00
   -8   11   15     -0.10      0.00
    1   11   15     -0.80      0.00
    2   11   15     -0.24      0.00
    3   11   15     -2.58      0.00
    4   11   15     -2.05      0.00
    5   11   15     -2.29      0.00
    6   11   15     -1.42      0.00
    7   11   15      1.48      0.00
    8   11   15     -0.01      0.00
    9   11   15     -0.56      0.00
  -13   12   15     -0.76      0.00
  -12   12   15     -1.00      0.00
  -11   12   15     -0.62      0.00
  -10   12   15     -2.55      0.00
   -9   12   15     -1.62      0.00
   -8   12   15      3.40      0.00
   -7   12   15     -1.31      0.00
   -6   12   15      1.34      0.00
   -5   12   15     -0.29      0.00
   -4   12   15      1.09      0.00
   -3   12   15      1.89      0.00
   -2   12   15      0.73      0.00
   -1   12   15     -2.79      0.00
    0   12   15     -2.24      0.00
    1   12   15      4.30      0.00
    2   12   15      2.22      0.00
    3   12   15     -2.02      0.00
    4   12   15     -1.06      0.00
    5   12   15      0.54      0.00
    6   12   15      0.63      0.00
    7   12   15     -0.35      0.00
    8   12   15      0.31      0.00
  -11   13   15     -0.94      0.00
  -10   13   15     -1.28      0.00
   -9   13   15      0.67      0.00
   -8   13   15     -2.13      0.00
   -7   13   15      0.76      0.00
   -6   13   15      2.10      0.00
   -5   13   15     -1.63      0.00
   -4   13   15      1.44      0.00
   -3   13   15      0.40      0.00
   -2   13   15     -2.16      0.00
   -1   13   15     -0.92      0.00
    0   13   15      2.33      0.00
    1   13   15      0.27      0.00
    2   13   15      0.31      0.00
    3   13   15      1.39      0.00
    4   13   15      0.47      0.00
    5   13   15      0.02      0.00
    6   13   15     -0.15      0.00
   -9   14   15     -1.70      0.00
   -8   14   15     -0.03      0.00
   -7   14   15      1.96      0.00
   -6   14   15     -0.73      0.00
   -5   14   15      0.91      0.00
   -4   14   15      0.07      0.00
   -3   14   15      0.26      0.00
   -2   14   15     -0.10      0.00
   -1   14   15     -0.03      0.00
    0   14   15     -2.09      0.00
    1   14   15      0.83      0.00
    2   14   15      1.65      0.00
    3   14   15     -1.18      0.00
    4   14   15     -0.28      0.00
   -4   15   15      0.33      0.00
   -3   15   15      1.03      0.00
   -2   15   15     -0.44      0.00
   -1   15   15     -1.15      0.00
  -18    0   16      0.33      0.00
   12    0   16      1.19      0.00
   14    0   16      1.87      0.00
  -18    1   16      0.47      0.00
  -17    1   16      1.56      0.00
   11    1   16     -0.54      0.00
   12    1   16     -0.59      0.00
   13    1   16      1.63      0.00
   14    1   16      0.59      0.00
  -18    2   16      1.59      0.00
  -17    2   16      2.36      0.00
   11    2   16     -0.83      0.00
   12    2   16     -1.14      0.00
   13    2   16     -0.03      0.00
   14    2   16      0.13      0.00
  -18    3   16     -1.18      0.00
  -17    3   16      2.93      0.00
  -16    3   16      4.89      0.00
   11    3   16      0.53      0.00
   12    3   16      0.97      0.00
   13    3   16     -0.11      0.00
   14    3   16      1.15      0.00
  -18    4   16      0.16      0.00
  -17    4   16      1.53      0.00
  -16    4   16      1.85      0.00
   10    4   16      0.72      0.00
   11    4   16      1.43      0.00
   12    4   16     -0.22      0.00
   13    4   16      1.20      0.00
  -18    5   16     -0.32      0.00
  -17    5   16     -1.97      0.00
  -16    5   16      3.30      0.00
   10    5   16     -0.52      0.00
   11    5   16     -0.86      0.00
   12    5   16      0.64      0.00
   13    5   16     -1.19      0.00
  -18    6   16     -0.84      0.00
  -17    6   16      0.31      0.00
  -16    6   16     -0.57      0.00
  -15    6   16      0.98      0.00
    9    6   16      0.24      0.00
   10    6   16     -0.67      0.00
   11    6   16      0.87      0.00
   12    6   16     -0.65      0.00
   13    6   16      0.04      0.00
  -18    7   16     -0.02      0.00
  -17    7   16     -0.79      0.00
  -16    7   16     -1.20      0.00
  -15    7   16      0.98      0.00
  -14    7   16      1.09      0.00
    8    7   16     -0.95      0.00
    9    7   16     -0.49      0.00
   10    7   16      2.17      0.00
   11    7   16     -0.35      0.00
   12    7   16      0.56      0.00
  -17    8   16     -0.39      0.00
  -16    8   16     -1.24      0.00
  -15    8   16      0.62      0.00
  -14    8   16     -0.07      0.00
  -13    8   16      1.28      0.00
    7    8   16     -2.41      0.00
    8    8   16     -0.84      0.00
    9    8   16     -0.18      0.00
   10    8   16     -2.19      0.00
   11    8   16      0.64      0.00
  -16    9   16     -0.53      0.00
  -15    9   16     -0.90      0.00
  -14    9   16      1.24      0.00
  -13    9   16      0.63      0.00
  -12    9   16      0.39      0.00
    5    9   16     -1.15      0.00
    6    9   16      0.92      0.00
    7    9   16     -0.77      0.00
    8    9   16     -2.13      0.00
    9    9   16     -1.47      0.00
   10    9   16      1.03      0.00
  -15   10   16     -0.59      0.00
  -14   10   16      0.71      0.00
  -13   10   16     -0.85      0.00
  -12   10   16      1.56      0.00
  -11   10   16      0.21      0.00
  -10   10   16      1.92      0.00
    2   10   16     -1.73      0.00
    3   10   16      4.14      0.00
    4   10   16      2.04      0.00
    5   10   16      3.62      0.00
    6   10   16     -0.38      0.00
    7   10   16     -0.59      0.00
    8   10   16      0.78      0.00
    9   10   16      0.44      0.00
  -14   11   16     -0.55      0.00
  -13   11   16      0.66      0.00
  -12   11   16     -0.24      0.00
  -11   11   16      0.92      0.00
  -10   11   16      3.83      0.00
   -9   11   16     -1.72      0.00
   -8   11   16      0.65      0.00
   -7   11   16      0.61      0.00
   -6   11   16     -3.26      0.00
   -2   11   16     -0.37      0.00
   -1   11   16      3.97      0.00
    0   11   16      1.44      0.00
    1   11   16     -3.61      0.00
    2   11   16     -1.14      0.00
    3   11   16      1.70      0.00
    4   11   16      1.74      0.00
    5   11   16     -0.76      0.00
    6   11   16      0.19      0.00
    7   11   16      1.05      0.00
    8   11   16     -1.23      0.00
  -12   12   16      0.16      0.00
  -11   12   16      1.61      0.00
  -10   12   16     -0.88      0.00
   -9   12   16      2.62      0.00
   -8   12   16      2.11      0.00
   -7   12   16     -3.21      0.00
   -6   12   16      1.16      0.00
   -5   12   16     -2.37      0.00
   -4   12   16      1.00      0.00
   -3   12   16     -2.17      0.00
   -2   12   16      0.48      0.00
   -1   12   16     -0.55      0.00
    0   12   16      1.10      0.00
    1   12   16      0.30      0.00
    2   12   16     -2.79      0.00
    3   12   16     -1.76      0.00
    4   12   16     -0.19      0.00
    5   12   16      0.01      0.00
    6   12   16      0.22      0.00
    7   12   16     -1.15      0.00
  -10   13   16      1.08      0.00
   -9   13   16      1.42      0.00
   -8   13   16     -1.39      0.00
   -7   13   16      1.36      0.00
   -6   13   16     -1.44      0.00
   -5   13   16     -0.01      0.00
   -4   13   16     -0.72      0.00
   -3   13   16     -1.38      0.00
   -2   13   16     -1.20      0.00
   -1   13   16      2.23      0.00
    0   13   16      1.67      0.00
    1   13   16     -2.01      0.00
    2   13   16     -1.21      0.00
    3   13   16      0.63      0.00
    4   13   16      0.31      0.00
    5   13   16     -0.16      0.00
   -8   14   16      1.68      0.00
   -7   14   16     -0.30      0.00
   -6   14   16     -1.66      0.00
   -5   14   16      0.14      0.00
   -4   14   16     -1.18      0.00
   -3   14   16     -0.62      0.00
   -2   14   16      0.72      0.00
   -1   14   16      0.23      0.00
    0   14   16     -0.85      0.00
    1   14   16      1.02      0.00
    2   14   16      0.25      0.00
  -17    0   17     -2.77      0.00
   11    0   17      1.78      0.00
   13    0   17     -1.31      0.00
  -18    1   17     -0.49      0.00
  -17    1   17     -1.57      0.00
  -16    1   17     -0.83      0.00
   10    1   17      1.65      0.00
   11    1   17      0.97      0.00
   12    1   17      1.17      0.00
   13    1   17      0.69      0.00
  -18    2   17      0.01      0.00
  -17    2   17     -2.48      0.00
  -16    2   17     -4.39      0.00
   10    2   17      0.21      0.00
   11    2   17      0.41      0.00
   12    2   17      0.15      0.00
   13    2   17     -0.03      0.00
  -18    3   17     -0.35      0.00
  -17    3   17      0.06      0.00
  -16    3   17     -2.16      0.00
   10    3   17     -0.85      0.00
   11    3   17     -0.89      0.00
   12    3   17     -0.26      0.00
   13    3   17     -0.54      0.00
  -18    4   17      2.35      0.00
  -17    4   17     -0.05      0.00
  -16    4   17     -2.36      0.00
  -15    4   17     -2.20      0.00
    9    4   17     -1.08      0.00
   10    4   17      1.19      0.00
   11    4   17     -0.25      0.00
   12    4   17     -1.04      0.00
   13    4   17      0.05      0.00
  -18    5   17      0.51      0.00
  -17    5   17      0.69      0.00
  -16    5   17      1.65      0.00
  -15    5   17     -1.94      0.00
    9    5   17      1.46      0.00
   10    5   17     -0.48      0.00
   11    5   17     -0.43      0.00
   12    5   17      0.61      0.00
  -18    6   17     -0.29      0.00
  -17    6   17      2.12      0.00
  -16    6   17     -0.36      0.00
  -15    6   17     -0.35      0.00
  -14    6   17     -0.54      0.00
    8    6   17      0.91      0.00
    9    6   17     -1.76      0.00
   10    6   17     -0.70      0.00
   11    6   17      0.08      0.00
   12    6   17     -0.81      0.00
  -17    7   17      0.18      0.00
  -16    7   17      1.22      0.00
  -15    7   17      0.19      0.00
  -14    7   17     -1.14      0.00
  -13    7   17     -0.45      0.00
    7    7   17      1.81      0.00
    8    7   17     -0.18      0.00
    9    7   17      0.95      0.00
   10    7   17      0.85      0.00
   11    7   17     -1.05      0.00
  -17    8   17     -0.04      0.00
  -16    8   17      0.97      0.00
  -15    8   17      0.52      0.00
  -14    8   17     -1.59      0.00
  -13    8   17      0.02      0.00
  -12    8   17     -1.68      0.00
    5    8   17     -0.62      0.00
    6    8   17      0.98      0.00
    7    8   17      0.85      0.00
    8    8   17      2.15      0.00
    9    8   17      1.00      0.00
   10    8   17     -0.91      0.00
  -16    9   17      0.79      0.00
  -15    9   17     -0.14      0.00
  -14    9   17      0.44      0.00
  -13    9   17     -0.48      0.00
  -12    9   17      1.01      0.00
  -11    9   17     -0.37      0.00
  -10    9   17     -3.56      0.00
    3    9   17     -2.64      0.00
    4    9   17     -3.59      0.00
    5    9   17     -1.63      0.00
    6    9   17      0.10      0.00
    7    9   17     -0.26      0.00
    8    9   17     -0.39      0.00
    9    9   17     -0.11      0.00
   10    9   17      0.82      0.00
  -15   10   17      0.68      0.00
  -14   10   17     -0.02      0.00
  -13   10   17     -0.06      0.00
  -12   10   17      1.30      0.00
  -11   10   17     -1.53      0.00
  -10   10   17      0.45      0.00
   -9   10   17     -1.15      0.00
   -8   10   17     -1.82      0.00
   -1   10   17     -2.37      0.00
    0   10   17     -1.80      0.00
    1   10   17      1.02      0.00
    2   10   17      0.95      0.00
    3   10   17     -0.88      0.00
    4   10   17     -2.52      0.00
    5   10   17      0.96      0.00
    6   10   17     -2.52      0.00
    7   10   17      0.15      0.00
    8   10   17      0.44      0.00
  -13   11   17      1.01      0.00
  -12   11   17     -0.42      0.00
  -11   11   17      0.97      0.00
  -10   11   17     -0.66      0.00
   -9   11   17     -3.54      0.00
   -8   11   17      1.02      0.00
   -7   11   17     -0.12      0.00
   -6   11   17      0.96      0.00
   -5   11   17      1.22      0.00
   -4   11   17     -1.48      0.00
   -3   11   17      4.42      0.00
   -2   11   17      1.75      0.00
   -1   11   17     -0.77      0.00
    0   11   17     -3.40      0.00
    1   11   17      0.12      0.00
    2   11   17      3.97      0.00
    3   11   17      0.95      0.00
    4   11   17      0.32      0.00
    5   11   17     -1.17      0.00
    6   11   17      0.90      0.00
    7   11   17      0.47      0.00
  -12   12   17      0.78      0.00
  -11   12   17      0.05      0.00
  -10   12   17     -1.99      0.00
   -9   12   17      1.44      0.00
   -8   12   17     -1.72      0.00
   -7   12   17     -1.36      0.00
   -6   12   17      2.46      0.00
   -5   12   17     -1.33      0.00
   -4   12   17      3.08      0.00
   -3   12   17      0.78      0.00
   -2   12   17      2.05      0.00
   -1   12   17     -1.97      0.00
    0   12   17     -0.29      0.00
    1   12   17      0.63      0.00
    2   12   17      1.37      0.00
    3   12   17      0.23      0.00
    4   12   17      0.29      0.00
    5   12   17      0.36      0.00
   -9   13   17     -1.15      0.00
   -8   13   17     -1.39      0.00
   -7   13   17      1.39      0.00
   -6   13   17     -0.74      0.00
   -5   13   17      1.92      0.00
   -4   13   17     -1.08      0.00
   -3   13   17      1.52      0.00
   -2   13   17     -0.04      0.00
   -1   13   17      1.66      0.00
    0   13   17     -1.22      0.00
    1   13   17     -1.35      0.00
    2   13   17      0.63      0.00
    3   13   17      0.35      0.00
   -5   14   17     -0.24      0.00
   -4   14   17      0.38      0.00
   -3   14   17      0.89      0.00
   -2   14   17      0.81      0.00
   -1   14   17     -0.99      0.00
  -18    0   18      0.58      0.00
  -16    0   18      3.09      0.00
   10    0   18     -1.11      0.00
   12    0   18     -1.81      0.00
  -18    1   18      0.21      0.00
  -17    1   18      2.35      0.00
  -16    1   18      1.87      0.00
    9    1   18     -0.66      0.00
   10    1   18      0.36      0.00
   11    1   18     -1.32      0.00
   12    1   18     -0.50      0.00
   13    1   18     -0.19      0.00
  -18    2   18     -1.12      0.00
  -17    2   18      0.33      0.00
  -16    2   18      1.57      0.00
  -15    2   18      3.38      0.00
    9    2   18      1.22      0.00
   10    2   18     -0.13      0.00
   11    2   18      0.89      0.00
   12    2   18     -0.45      0.00
  -18    3   18     -1.23      0.00
  -17    3   18     -0.14      0.00
  -16    3   18      1.57      0.00
  -15    3   18      0.85      0.00
    9    3   18     -1.03      0.00
   10    3   18      0.31      0.00
   11    3   18      0.35      0.00
   12    3   18      1.15      0.00
  -18    4   18     -0.15      0.00
  -17    4   18     -2.98      0.00
  -16    4   18     -0.50      0.00
  -15    4   18      1.54      0.00
    8    4   18     -0.36      0.00
    9    4   18     -0.17      0.00
   10    4   18      0.20      0.00
   11    4   18      0.02      0.00
   12    4   18      0.12      0.00
  -18    5   18     -0.82      0.00
  -17    5   18     -1.05      0.00
  -16    5   18     -0.55      0.00
  -15    5   18     -0.14      0.00
  -14    5   18      0.56      0.00
    8    5   18      0.57      0.00
    9    5   18      1.81      0.00
   10    5   18     -0.51      0.00
   11    5   18      0.11      0.00
  -17    6   18     -0.05      0.00
  -16    6   18     -2.42      0.00
  -15    6   18      0.55      0.00
  -14    6   18      1.18      0.00
  -13    6   18      0.23      0.00
    7    6   18     -0.38      0.00
    8    6   18      1.52      0.00
    9    6   18     -1.30      0.00
   10    6   18      0.42      0.00
   11    6   18      0.67      0.00
  -17    7   18     -0.59      0.00
  -16    7   18     -0.56      0.00
  -15    7   18     -0.43      0.00
  -14    7   18      1.23      0.00
  -13    7   18      1.52      0.00
  -12    7   18      0.74      0.00
    6    7   18     -0.04      0.00
    7    7   18     -0.64      0.00
    8    7   18     -1.80      0.00
    9    7   18     -0.07      0.00
   10    7   18     -0.05      0.00
  -16    8   18     -0.55      0.00
  -15    8   18     -0.55      0.00
  -14    8   18      0.43      0.00
  -13    8   18      0.67      0.00
  -12    8   18     -1.04      0.00
  -11    8   18      1.95      0.00
    4    8   18      2.91      0.00
    5    8   18      0.76      0.00
    6    8   18      0.68      0.00
    7    8   18     -0.49      0.00
    8    8   18      0.46      0.00
    9    8   18     -0.84      0.00
   10    8   18     -0.44      0.00
  -15    9   18     -0.89      0.00
  -14    9   18      0.71      0.00
  -13    9   18     -0.05      0.00
  -12    9   18      0.07      0.00
  -11    9   18     -2.09      0.00
  -10    9   18      0.20      0.00
   -9    9   18      2.38      0.00
    1    9   18     -0.85      0.00
    2    9   18     -1.66      0.00
    3    9   18      1.84      0.00
    4    9   18      0.46      0.00
    5    9   18      1.87      0.00
    6    9   18      0.98      0.00
    7    9   18      0.66      0.00
    8    9   18     -0.32      0.00
    9    9   18      0.53      0.00
  -14   10   18     -0.54      0.00
  -13   10   18     -0.11      0.00
  -12   10   18     -0.56      0.00
  -11   10   18     -1.29      0.00
  -10   10   18      1.89      0.00
   -9   10   18      0.33      0.00
   -8   10   18      0.25      0.00
   -7   10   18      0.98      0.00
   -6   10   18     -1.64      0.00
   -5   10   18      1.72      0.00
   -4   10   18     -0.70      0.00
   -3   10   18     -3.81      0.00
   -2   10   18     -2.51      0.00
   -1   10   18      1.62      0.00
    0   10   18      2.09      0.00
    1   10   18     -0.15      0.00
    2   10   18     -2.90      0.00
    3   10   18     -1.03      0.00
    4   10   18      0.61      0.00
    5   10   18      0.76      0.00
    6   10   18     -0.99      0.00
    7   10   18      0.66      0.00
  -12   11   18     -0.60      0.00
  -11   11   18      1.21      0.00
  -10   11   18     -1.08      0.00
   -9   11   18      0.54      0.00
   -8   11   18      2.73      0.00
   -7   11   18     -0.48      0.00
   -6   11   18      0.07      0.00
   -5   11   18     -1.52      0.00
   -4   11   18     -0.56      0.00
   -3   11   18     -0.67      0.00
   -2   11   18     -3.35      0.00
   -1   11   18     -0.87      0.00
    0   11   18      1.35      0.00
    1   11   18      0.42      0.00
    2   11   18     -1.22      0.00
    3   11   18     -1.79      0.00
    4   11   18     -0.10      0.00
    5   11   18     -1.75      0.00
    6   11   18      0.87      0.00
  -11   12   18     -0.57      0.00
  -10   12   18     -0.06      0.00
   -9   12   18      2.00      0.00
   -8   12   18     -0.76      0.00
   -7   12   18      1.18      0.00
   -6   12   18      0.01      0.00
   -5   12   18     -0.86      0.00
   -4   12   18      1.94      0.00
   -3   12   18     -2.55      0.00
   -2   12   18     -1.81      0.00
   -1   12   18     -1.37      0.00
    0   12   18      1.86      0.00
    1   12   18      0.73      0.00
    2   12   18     -0.98      0.00
    3   12   18     -0.84      0.00
    4   12   18      0.28      0.00
   -8   13   18      0.70      0.00
   -7   13   18      0.88      0.00
   -6   13   18     -0.51      0.00
   -5   13   18      1.29      0.00
   -4   13   18     -1.50      0.00
   -3   13   18      0.38      0.00
   -2   13   18     -0.84      0.00
   -1   13   18      0.82      0.00
    0   13   18     -0.90      0.00
    1   13   18      0.53      0.00
  -17    0   19     -1.75      0.00
  -15    0   19     -2.01      0.00
    9    0   19     -0.01      0.00
   11    0   19      0.99      0.00
  -18    1   19      0.71      0.00
  -17    1   19      0.55      0.00
  -16    1   19     -2.36      0.00
  -15    1   19     -0.82      0.00
    8    1   19      1.05      0.00
    9    1   19     -0.04      0.00
   10    1   19     -0.34      0.00
   11    1   19     -0.29      0.00
   12    1   19      0.93      0.00
  -18    2   19      0.22      0.00
  -17    2   19      0.86      0.00
  -16    2   19     -0.60      0.00
  -15    2   19     -0.44      0.00
    8    2   19     -0.24      0.00
    9    2   19      0.84      0.00
   10    2   19     -0.61      0.00
   11    2   19     -0.15      0.00
   12    2   19     -0.70      0.00
  -18    3   19      1.58      0.00
  -17    3   19      1.57      0.00
  -16    3   19      1.06      0.00
  -15    3   19     -1.64      0.00
  -14    3   19     -0.40      0.00
    7    3   19     -0.99      0.00
    8    3   19      1.53      0.00
    9    3   19     -0.92      0.00
   10    3   19      0.63      0.00
   11    3   19     -0.62      0.00
  -18    4   19      0.31      0.00
  -17    4   19      0.84      0.00
  -16    4   19      1.59      0.00
  -15    4   19      0.40      0.00
  -14    4   19     -0.87      0.00
    7    4   19      0.44      0.00
    8    4   19     -2.71      0.00
    9    4   19      0.40      0.00
   10    4   19      0.07      0.00
   11    4   19      0.33      0.00
  -17    5   19      1.50      0.00
  -16    5   19      1.38      0.00
  -15    5   19      0.19      0.00
  -14    5   19     -1.10      0.00
  -13    5   19     -0.55      0.00
    6    5   19     -0.49      0.00
    7    5   19     -1.99      0.00
    8    5   19     -0.58      0.00
    9    5   19      0.06      0.00
   10    5   19     -0.34      0.00
   11    5   19      0.20      0.00
  -17    6   19      0.44      0.00
  -16    6   19      0.34      0.00
  -15    6   19      1.10      0.00
  -14    6   19     -1.21      0.00
  -13    6   19     -1.91      0.00
  -12    6   19     -0.58      0.00
    5    6   19     -1.22      0.00
    6    6   19     -0.52      0.00
    7    6   19      0.35      0.00
    8    6   19      0.76      0.00
    9    6   19     -0.59      0.00
   10    6   19      0.56      0.00
  -16    7   19      1.31      0.00
  -15    7   19      0.39      0.00
  -14    7   19     -0.29      0.00
  -13    7   19     -0.99      0.00
  -12    7   19     -1.24      0.00
  -11    7   19     -1.33      0.00
    4    7   19     -1.60      0.00
    5    7   19     -1.59      0.00
    6    7   19      0.54      0.00
    7    7   19      0.31      0.00
    8    7   19     -0.30      0.00
    9    7   19      1.05      0.00
  -15    8   19      0.76      0.00
  -14    8   19     -0.40      0.00
  -13    8   19     -1.08      0.00
  -12    8   19      0.22      0.00
  -11    8   19      2.19      0.00
  -10    8   19     -1.87      0.00
   -9    8   19     -1.95      0.00
    2    8   19     -0.42      0.00
    3    8   19      0.88      0.00
    4    8   19     -1.71      0.00
    5    8   19     -0.71      0.00
    6    8   19     -0.94      0.00
    7    8   19     -0.41      0.00
    8    8   19      0.15      0.00
    9    8   19     -0.61      0.00
  -14    9   19      0.45      0.00
  -13    9   19     -0.15      0.00
  -12    9   19      0.22      0.00
  -11    9   19     -0.67      0.00
  -10    9   19      1.00      0.00
   -9    9   19     -0.64      0.00
   -8    9   19     -1.26      0.00
   -7    9   19     -0.17      0.00
   -6    9   19      0.00      0.00
   -2    9   19      3.93      0.00
   -1    9   19     -0.98      0.00
    0    9   19      1.83      0.00
    1    9   19     -1.72      0.00
    2    9   19      3.04      0.00
    3    9   19      0.90      0.00
    4    9   19     -1.20      0.00
    5    9   19      0.92      0.00
    6    9   19     -0.73      0.00
    7    9   19      0.12      0.00
  -13   10   19     -0.30      0.00
  -12   10   19     -0.59      0.00
  -11   10   19      0.41      0.00
  -10   10   19      0.72      0.00
   -9   10   19     -1.95      0.00
   -8   10   19     -1.26      0.00
   -7   10   19      0.22      0.00
   -6   10   19     -0.09      0.00
   -5   10   19      1.52      0.00
   -4   10   19     -3.49      0.00
   -3   10   19      1.85      0.00
   -2   10   19      4.06      0.00
   -1   10   19      2.64      0.00
    0   10   19     -3.05      0.00
    1   10   19      0.18      0.00
    2   10   19      1.21      0.00
    3   10   19      1.60      0.00
    4   10   19      1.63      0.00
    5   10   19      0.48      0.00
    6   10   19      0.20      0.00
  -11   11   19      0.04      0.00
  -10   11   19     -1.65      0.00
   -9   11   19      0.18      0.00
   -8   11   19     -0.24      0.00
   -7   11   19     -1.96      0.00
   -6   11   19      0.73      0.00
   -5   11   19     -1.53      0.00
   -4   11   19      0.00      0.00
   -3   11   19      1.41      0.00
   -2   11   19      2.45      0.00
   -1   11   19      0.87      0.00
    0   11   19      0.16      0.00
    1   11   19     -1.43      0.00
    2   11   19      1.60      0.00
    3   11   19      0.67      0.00
    4   11   19      0.48      0.00
    5   11   19     -0.34      0.00
   -9   12   19      0.13      0.00
   -8   12   19     -1.20      0.00
   -7   12   19      0.14      0.00
   -6   12   19     -1.42      0.00
   -5   12   19      0.29      0.00
   -4   12   19     -0.37      0.00
   -3   12   19     -1.21      0.00
   -2   12   19      1.20      0.00
   -1   12   19      1.36      0.00
    0   12   19      0.30      0.00
    1   12   19     -0.92      0.00
    2   12   19     -0.44      0.00
   -5   13   19     -0.08      0.00
   -4   13   19     -1.75      0.00
   -3   13   19      0.81      0.00
   -2   13   19      0.21      0.00
  -18    0   20     -1.00      0.00
  -16    0   20      1.21      0.00
  -14    0   20      1.91      0.00
   -2    0   20      6.20      0.00
    8    0   20     -1.73      0.00
   10    0   20      0.30      0.00
  -18    1   20     -0.45      0.00
  -17    1   20     -0.49      0.00
  -16    1   20     -0.93      0.00
  -15    1   20      1.32      0.00
  -14    1   20     -0.12      0.00
    7    1   20     -1.29      0.00
    8    1   20     -0.47      0.00
    9    1   20     -0.55      0.00
   10    1   20     -0.07      0.00
   11    1   20      0.08      0.00
  -18    2   20     -1.02      0.00
  -17    2   20     -0.99      0.00
  -16    2   20     -0.50      0.00
  -15    2   20     -0.01      0.00
  -14    2   20      0.60      0.00
    6    2   20      1.98      0.00
    7    2   20     -0.58      0.00
    8    2   20     -0.56      0.00
    9    2   20     -0.18      0.00
   10    2   20      0.15      0.00
   11    2   20      0.24      0.00
  -18    3   20      0.68      0.00
  -17    3   20     -1.88      0.00
  -16    3   20     -0.70      0.00
  -15    3   20     -0.99      0.00
  -14    3   20      1.08      0.00
  -13    3   20      0.98      0.00
    6    3   20     -1.26      0.00
    7    3   20      1.47      0.00
    8    3   20      1.39      0.00
    9    3   20     -0.67      0.00
   10    3   20     -0.04      0.00
  -17    4   20     -0.52      0.00
  -16    4   20     -1.43      0.00
  -15    4   20     -0.18      0.00
  -14    4   20      0.39      0.00
  -13    4   20      1.08      0.00
    6    4   20      3.45      0.00
    7    4   20      1.43      0.00
    8    4   20     -0.11      0.00
    9    4   20      1.13      0.00
   10    4   20     -0.59      0.00
  -17    5   20      0.39      0.00
  -16    5   20     -0.95      0.00
  -15    5   20     -0.74      0.00
  -14    5   20      0.35      0.00
  -13    5   20      1.43      0.00
  -12    5   20      1.15      0.00
   -2    5   20     -2.08      0.00
    5    5   20      3.79      0.00
    6    5   20     -0.69      0.00
    7    5   20     -0.11      0.00
    8    5   20      1.28      0.00
    9    5   20      0.03      0.00
   10    5   20     -0.11      0.00
  -16    6   20     -0.87      0.00
  -15    6   20     -0.41      0.00
  -14    6   20     -0.19      0.00
  -13    6   20      1.17      0.00
  -12    6   20      1.67      0.00
  -11    6   20      1.21      0.00
   -2    6   20     -2.35      0.00
    4    6   20      3.43      0.00
    5    6   20     -1.26      0.00
    6    6   20      0.51      0.00
    7    6   20     -0.35      0.00
    8    6   20      0.24      0.00
    9    6   20     -0.74      0.00
  -15    7   20     -1.29      0.00
  -14    7   20      0.32      0.00
  -13    7   20      0.34      0.00
  -12    7   20     -0.17      0.00
  -11    7   20     -0.12      0.00
  -10    7   20      2.27      0.00
   -9    7   20      0.67      0.00
    2    7   20     -2.06      0.00
    3    7   20     -0.54      0.00
    4    7   20      0.28      0.00
    5    7   20      0.74      0.00
    6    7   20      0.15      0.00
    7    7   20     -0.16      0.00
    8    7   20     -0.44      0.00
  -15    8   20     -0.57      0.00
  -14    8   20     -0.98      0.00
  -13    8   20      0.24      0.00
  -12    8   20      1.02      0.00
  -11    8   20      0.27      0.00
  -10    8   20     -1.65      0.00
   -9    8   20      1.82      0.00
   -8    8   20      2.00      0.00
   -7    8   20     -1.95      0.00
   -2    8   20     -2.72      0.00
   -1    8   20     -3.31      0.00
    0    8   20     -1.40      0.00
    1    8   20      0.60      0.00
    2    8   20     -3.35      0.00
    3    8   20      0.26      0.00
    4    8   20     -1.00      0.00
    5    8   20      0.21      0.00
    6    8   20     -0.35      0.00
    7    8   20      0.30      0.00
  -13    9   20      0.41      0.00
  -12    9   20      0.21      0.00
  -11    9   20     -0.84      0.00
  -10    9   20      1.17      0.00
   -9    9   20      1.09      0.00
   -8    9   20      0.12      0.00
   -7    9   20      0.56      0.00
   -6    9   20     -1.27      0.00
   -5    9   20      1.80      0.00
   -4    9   20      3.84      0.00
   -3    9   20     -1.78      0.00
   -2    9   20     -2.83      0.00
   -1    9   20     -2.10      0.00
    0    9   20      2.59      0.00
    1    9   20     -1.74      0.00
    2    9   20      0.17      0.00
    3    9   20     -2.72      0.00
    4    9   20     -0.87      0.00
    5    9   20     -0.46      0.00
    6    9   20     -0.37      0.00
  -12   10   20      0.78      0.00
  -11   10   20      1.50      0.00
  -10   10   20     -0.02      0.00
   -9   10   20     -0.11      0.00
   -8   10   20      1.14      0.00
   -7   10   20      0.85      0.00
   -6   10   20     -0.05      0.00
   -5   10   20      0.74      0.00
   -4   10   20     -0.42      0.00
   -3   10   20      2.00      0.00
   -2   10   20     -2.50      0.00
   -1   10   20     -1.19      0.00
    0   10   20     -1.64      0.00
    1   10   20      2.21      0.00
    2   10   20     -1.72      0.00
    3   10   20     -0.55      0.00
    4   10   20     -0.05      0.00
    5   10   20     -1.25      0.00
  -10   11   20     -0.23      0.00
   -9   11   20      0.94      0.00
   -8   11   20      0.19      0.00
   -7   11   20     -0.01      0.00
   -6   11   20      1.31      0.00
   -5   11   20     -0.86      0.00
   -4   11   20      3.06      0.00
   -3   11   20      0.51      0.00
   -2   11   20     -1.63      0.00
   -1   11   20     -2.47      0.00
    0   11   20      0.93      0.00
    1   11   20     -0.23      0.00
    2   11   20      1.23      0.00
    3   11   20     -0.94      0.00
   -7   12   20      0.46      0.00
   -6   12   20     -0.27      0.00
   -5   12   20      1.50      0.00
   -4   12   20      0.42      0.00
   -3   12   20      0.21      0.00
   -2   12   20     -0.13      0.00
   -1   12   20     -0.06      0.00
    0   12   20     -0.96      0.00
  -17    0   21      1.08      0.00
  -15    0   21      0.31      0.00
  -13    0   21     -2.26      0.00
   -3    0   21      2.52      0.00
    5    0   21      0.01      0.00
    7    0   21      1.31      0.00
    9    0   21      1.35      0.00
  -17    1   21      0.50      0.00
  -16    1   21      0.50      0.00
  -15    1   21      1.14      0.00
  -14    1   21     -1.33      0.00
  -13    1   21      0.25      0.00
    5    1   21     -0.36      0.00
    6    1   21     -0.18      0.00
    7    1   21     -0.10      0.00
    8    1   21      1.13      0.00
    9    1   21      0.08      0.00
   10    1   21      0.05      0.00
  -17    2   21      0.76      0.00
  -16    2   21      0.96      0.00
  -15    2   21      0.11      0.00
  -14    2   21      0.70      0.00
  -13    2   21     -1.13      0.00
    5    2   21      0.89      0.00
    6    2   21     -0.32      0.00
    7    2   21     -0.90      0.00
    8    2   21     -0.42      0.00
    9    2   21      0.38      0.00
   10    2   21      0.37      0.00
  -17    3   21     -0.25      0.00
  -16    3   21      1.29      0.00
  -15    3   21      0.15      0.00
  -14    3   21     -0.25      0.00
  -13    3   21     -0.81      0.00
  -12    3   21     -1.74      0.00
    4    3   21      1.03      0.00
    5    3   21      0.23      0.00
    6    3   21     -2.67      0.00
    7    3   21      0.03      0.00
    8    3   21     -0.62      0.00
    9    3   21     -0.48      0.00
  -17    4   21      0.44      0.00
  -16    4   21     -0.08      0.00
  -15    4   21      0.99      0.00
  -14    4   21     -0.06      0.00
  -13    4   21     -1.01      0.00
  -12    4   21     -0.50      0.00
  -11    4   21     -0.68      0.00
    4    4   21     -1.13      0.00
    5    4   21     -2.45      0.00
    6    4   21      2.01      0.00
    7    4   21     -1.44      0.00
    8    4   21     -1.29      0.00
    9    4   21      0.05      0.00
  -16    5   21      0.08      0.00
  -15    5   21      0.34      0.00
  -14    5   21      0.03      0.00
  -13    5   21     -0.34      0.00
  -12    5   21     -0.88      0.00
  -11    5   21     -1.07      0.00
  -10    5   21      1.12      0.00
    3    5   21      0.33      0.00
    4    5   21     -2.44      0.00
    5    5   21      2.78      0.00
    6    5   21     -1.89      0.00
    7    5   21      0.52      0.00
    8    5   21      0.30      0.00
    9    5   21     -0.20      0.00
  -15    6   21      0.61      0.00
  -14    6   21      0.43      0.00
  -13    6   21      0.53      0.00
  -12    6   21     -0.25      0.00
  -11    6   21     -0.11      0.00
  -10    6   21     -2.05      0.00
   -9    6   21      0.74      0.00
    1    6   21      0.34      0.00
    2    6   21      3.49      0.00
    3    6   21     -0.37      0.00
    4    6   21      1.78      0.00
    5    6   21     -2.19      0.00
    6    6   21      2.07      0.00
    7    6   21      0.33      0.00
    8    6   21      0.52      0.00
  -15    7   21      0.19      0.00
  -14    7   21      1.20      0.00
  -13    7   21     -0.22      0.00
  -12    7   21     -0.40      0.00
  -11    7   21      0.42      0.00
  -10    7   21      1.02      0.00
   -9    7   21     -3.51      0.00
   -8    7   21      0.31      0.00
   -7    7   21      1.03      0.00
   -6    7   21      0.84      0.00
   -2    7   21      1.67      0.00
   -1    7   21      4.97      0.00
    0    7   21     -0.12      0.00
    1    7   21      2.41      0.00
    2    7   21      0.34      0.00
    3    7   21      2.23      0.00
    4    7   21     -0.37      0.00
    5    7   21      1.79      0.00
    6    7   21     -0.56      0.00
    7    7   21      0.65      0.00
  -14    8   21     -0.04      0.00
  -13    8   21      0.74      0.00
  -12    8   21      0.34      0.00
  -11    8   21     -0.17      0.00
  -10    8   21     -1.38      0.00
   -9    8   21      0.24      0.00
   -8    8   21     -0.80      0.00
   -7    8   21     -0.27      0.00
   -6    8   21      1.50      0.00
   -5    8   21     -3.36      0.00
   -4    8   21     -0.85      0.00
   -3    8   21     -1.87      0.00
   -2    8   21      2.67      0.00
   -1    8   21     -0.84      0.00
    0    8   21      1.38      0.00
    1    8   21     -0.39      0.00
    2    8   21      1.07      0.00
    3    8   21      2.15      0.00
    4    8   21      0.37      0.00
    5    8   21      0.44      0.00
    6    8   21     -0.12      0.00
  -12    9   21     -1.00      0.00
  -11    9   21     -1.15      0.00
  -10    9   21      1.37      0.00
   -9    9   21     -1.02      0.00
   -8    9   21     -1.41      0.00
   -7    9   21      0.95      0.00
   -6    9   21     -0.43      0.00
   -5    9   21      1.81      0.00
   -4    9   21     -2.79      0.00
   -3    9   21     -2.79      0.00
   -2    9   21      0.89      0.00
   -1    9   21      2.28      0.00
    0    9   21      0.05      0.00
    1    9   21     -1.27      0.00
    2    9   21      1.26      0.00
    3    9   21     -0.57      0.00
    4    9   21      1.00      0.00
    5    9   21      0.55      0.00
  -11   10   21     -0.13      0.00
  -10   10   21     -1.12      0.00
   -9   10   21     -0.20      0.00
   -8   10   21      0.41      0.00
   -7   10   21     -0.22      0.00
   -6   10   21      0.39      0.00
   -5   10   21     -0.52      0.00
   -4   10   21     -2.53      0.00
   -3   10   21      0.12      0.00
   -2   10   21      0.68      0.00
   -1   10   21      1.51      0.00
    0   10   21     -0.48      0.00
    1   10   21      0.32      0.00
    2   10   21     -1.07      0.00
    3   10   21      0.88      0.00
   -8   11   21      0.02      0.00
   -7   11   21      0.12      0.00
   -6   11   21     -0.10      0.00
   -5   11   21     -0.80      0.00
   -4   11   21      0.33      0.00
   -3   11   21     -2.37      0.00
   -2   11   21      0.37      0.00
   -1   11   21      0.62      0.00
    0   11   21      1.52      0.00
    1   11   21     -1.21      0.00
  -16    0   22     -1.08      0.00
  -14    0   22     -0.71      0.00
  -12    0   22      2.03      0.00
    4    0   22     -1.29      0.00
    6    0   22      0.09      0.00
    8    0   22     -0.92      0.00
  -17    1   22     -0.21      0.00
  -16    1   22     -0.07      0.00
  -15    1   22     -1.09      0.00
  -14    1   22     -1.21      0.00
  -13    1   22      1.35      0.00
  -12    1   22     -0.50      0.00
  -11    1   22      2.57      0.00
   -3    1   22     -3.11      0.00
    3    1   22      1.21      0.00
    4    1   22     -0.29      0.00
    5    1   22     -0.67      0.00
    6    1   22      0.34      0.00
    7    1   22      0.01      0.00
    8    1   22      0.43      0.00
    9    1   22     -0.79      0.00
  -16    2   22     -0.20      0.00
  -15    2   22     -0.62      0.00
  -14    2   22      0.68      0.00
  -13    2   22     -0.57      0.00
  -12    2   22      1.15      0.00
  -11    2   22     -0.63      0.00
    3    2   22      2.43      0.00
    4    2   22     -0.94      0.00
    5    2   22      0.64      0.00
    6    2   22      0.43      0.00
    7    2   22      0.21      0.00
    8    2   22      0.27      0.00
    9    2   22      0.42      0.00
  -16    3   22     -0.03      0.00
  -15    3   22     -0.40      0.00
  -14    3   22     -0.33      0.00
  -13    3   22      0.95      0.00
  -12    3   22     -0.12      0.00
  -11    3   22      1.37      0.00
  -10    3   22     -0.55      0.00
   -3    3   22      1.83      0.00
    2    3   22      1.79      0.00
    3    3   22      0.12      0.00
    4    3   22      3.06      0.00
    5    3   22     -1.48      0.00
    6    3   22     -0.32      0.00
    7    3   22      1.21      0.00
    8    3   22      0.66      0.00
  -16    4   22     -0.34      0.00
  -15    4   22      0.46      0.00
  -14    4   22     -0.02      0.00
  -13    4   22     -0.40      0.00
  -12    4   22      1.05      0.00
  -11    4   22     -1.08      0.00
  -10    4   22     -0.12      0.00
   -3    4   22     -1.77      0.00
    2    4   22     -2.61      0.00
    3    4   22      2.14      0.00
    4    4   22     -1.30      0.00
    5    4   22     -0.32      0.00
    6    4   22      1.05      0.00
    7    4   22     -0.98      0.00
    8    4   22     -0.02      0.00
  -15    5   22     -0.05      0.00
  -14    5   22     -0.63      0.00
  -13    5   22     -0.11      0.00
  -12    5   22     -0.52      0.00
  -11    5   22     -0.04      0.00
  -10    5   22      0.51      0.00
   -9    5   22     -0.61      0.00
   -8    5   22      0.28      0.00
   -3    5   22      3.58      0.00
    0    5   22      0.00      0.00
    1    5   22     -2.24      0.00
    2    5   22     -1.42      0.00
    3    5   22     -1.22      0.00
    4    5   22      0.19      0.00
    5    5   22      0.53      0.00
    6    5   22     -2.54      0.00
    7    5   22     -0.30      0.00
  -15    6   22     -0.01      0.00
  -14    6   22     -0.08      0.00
  -13    6   22     -0.56      0.00
  -12    6   22     -0.69      0.00
  -11    6   22     -0.31      0.00
  -10    6   22     -0.61      0.00
   -9    6   22      2.76      0.00
   -8    6   22     -1.06      0.00
   -7    6   22     -1.29      0.00
   -6    6   22     -1.51      0.00
   -5    6   22      0.61      0.00
   -4    6   22      4.24      0.00
   -3    6   22     -1.06      0.00
   -2    6   22     -0.67      0.00
   -1    6   22     -3.56      0.00
    0    6   22     -1.00      0.00
    1    6   22     -0.40      0.00
    2    6   22     -0.31      0.00
    3    6   22     -2.05      0.00
    4    6   22      0.21      0.00
    5    6   22     -2.20      0.00
    6    6   22      0.90      0.00
    7    6   22     -0.76      0.00
  -14    7   22     -0.23      0.00
  -13    7   22     -1.01      0.00
  -12    7   22     -0.39      0.00
  -11    7   22      0.48      0.00
  -10    7   22      0.44      0.00
   -9    7   22     -0.70      0.00
   -8    7   22      2.54      0.00
   -7    7   22     -1.46      0.00
   -6    7   22     -0.25      0.00
   -5    7   22      0.59      0.00
   -4    7   22      0.51      0.00
   -3    7   22      3.08      0.00
   -2    7   22     -1.34      0.00
   -1    7   22      0.41      0.00
    0    7   22     -1.32      0.00
    1    7   22      1.24      0.00
    2    7   22     -2.23      0.00
    3    7   22     -0.09      0.00
    4    7   22     -1.32      0.00
    5    7   22      1.25      0.00
    6    7   22     -0.81      0.00
  -13    8   22      0.44      0.00
  -12    8   22      0.49      0.00
  -11    8   22     -0.31      0.00
  -10    8   22     -0.84      0.00
   -9    8   22      2.10      0.00
   -8    8   22     -0.09      0.00
   -7    8   22     -0.45      0.00
   -6    8   22     -1.18      0.00
   -5    8   22     -1.10      0.00
   -4    8   22      3.99      0.00
   -3    8   22      1.45      0.00
   -2    8   22      1.14      0.00
   -1    8   22     -2.36      0.00
    0    8   22      2.00      0.00
    1    8   22     -0.77      0.00
    2    8   22      1.09      0.00
    3    8   22     -0.41      0.00
    4    8   22     -0.17      0.00
    5    8   22     -0.80      0.00
  -11    9   22      0.62      0.00
  -10    9   22      1.28      0.00
   -9    9   22     -1.13      0.00
   -8    9   22      0.24      0.00
   -7    9   22     -0.03      0.00
   -6    9   22     -1.14      0.00
   -5    9   22      1.06      0.00
   -4    9   22     -0.54      0.00
   -3    9   22      1.84      0.00
   -2    9   22     -0.51      0.00
   -1    9   22      0.78      0.00
    0    9   22     -1.07      0.00
    1    9   22      0.94      0.00
    2    9   22      0.18      0.00
    3    9   22     -0.52      0.00
   -9   10   22      0.52      0.00
   -8   10   22      0.22      0.00
   -7   10   22     -0.66      0.00
   -6   10   22      0.18      0.00
   -5   10   22     -1.22      0.00
   -4   10   22      1.06      0.00
   -3   10   22      2.22      0.00
   -2   10   22     -0.40      0.00
   -1   10   22     -1.48      0.00
    0   10   22     -0.17      0.00
    1   10   22      0.10      0.00
   -4   11   22      0.67      0.00
   -3   11   22     -0.16      0.00
  -15    0   23      1.63      0.00
  -13    0   23      0.67      0.00
  -11    0   23     -1.23      0.00
   -9    0   23     -2.03      0.00
    1    0   23     -1.68      0.00
    3    0   23     -0.79      0.00
    5    0   23      0.69      0.00
    7    0   23      0.04      0.00
  -16    1   23      0.10      0.00
  -15    1   23     -0.43      0.00
  -14    1   23      1.08      0.00
  -13    1   23      0.72      0.00
  -12    1   23     -0.46      0.00
  -11    1   23      0.95      0.00
  -10    1   23     -1.78      0.00
   -9    1   23     -0.49      0.00
    1    1   23     -0.01      0.00
    2    1   23     -2.56      0.00
    3    1   23     -1.01      0.00
    4    1   23      0.08      0.00
    5    1   23      0.20      0.00
    6    1   23     -0.12      0.00
    7    1   23     -0.17      0.00
  -16    2   23      0.18      0.00
  -15    2   23      0.14      0.00
  -14    2   23      0.39      0.00
  -13    2   23     -0.95      0.00
  -12    2   23      0.29      0.00
  -11    2   23     -0.56      0.00
  -10    2   23      1.15      0.00
   -9    2   23     -0.01      0.00
   -3    2   23      1.55      0.00
    0    2   23      2.02      0.00
    1    2   23     -1.30      0.00
    2    2   23      0.51      0.00
    3    2   23     -2.49      0.00
    4    2   23     -0.47      0.00
    5    2   23      0.75      0.00
    6    2   23      0.04      0.00
    7    2   23     -0.59      0.00
  -15    3   23     -0.05      0.00
  -14    3   23     -0.31      0.00
  -13    3   23      0.23      0.00
  -12    3   23     -0.55      0.00
  -11    3   23      1.21      0.00
  -10    3   23     -0.24      0.00
   -9    3   23      0.70      0.00
   -8    3   23      0.78      0.00
   -3    3   23     -0.99      0.00
   -1    3   23      3.12      0.00
    0    3   23     -2.31      0.00
    1    3   23      2.47      0.00
    2    3   23      0.33      0.00
    3    3   23     -0.71      0.00
    4    3   23      0.70      0.00
    5    3   23     -0.61      0.00
    6    3   23      0.29      0.00
    7    3   23      0.75      0.00
  -15    4   23      0.06      0.00
  -14    4   23     -0.07      0.00
  -13    4   23     -0.17      0.00
  -12    4   23      0.89      0.00
  -11    4   23     -0.59      0.00
  -10    4   23      1.61      0.00
   -9    4   23     -0.32      0.00
   -8    4   23      0.96      0.00
   -7    4   23      0.93      0.00
   -6    4   23      0.36      0.00
   -5    4   23     -0.46      0.00
   -4    4   23     -3.14      0.00
   -3    4   23     -2.03      0.00
   -2    4   23      2.49      0.00
   -1    4   23     -1.48      0.00
    0    4   23      1.44      0.00
    1    4   23      1.18      0.00
    2    4   23      0.71      0.00
    3    4   23      1.42      0.00
    4    4   23     -2.11      0.00
    5    4   23      1.93      0.00
    6    4   23      1.16      0.00
    7    4   23      0.00      0.00
  -14    5   23     -0.38      0.00
  -13    5   23      0.97      0.00
  -12    5   23      0.15      0.00
  -11    5   23      0.97      0.00
  -10    5   23     -0.11      0.00
   -9    5   23     -0.46      0.00
   -8    5   23      0.04      0.00
   -7    5   23      2.07      0.00
   -6    5   23      0.78      0.00
   -5    5   23     -0.66      0.00
   -4    5   23     -2.27      0.00
   -3    5   23      0.30      0.00
   -2    5   23     -0.34      0.00
   -1    5   23      3.52      0.00
    0    5   23     -0.67      0.00
    1    5   23     -1.12      0.00
    2    5   23      1.23      0.00
    3    5   23     -0.02      0.00
    4    5   23      1.40      0.00
    5    5   23      0.08      0.00
    6    5   23     -0.15      0.00
  -13    6   23     -0.05      0.00
  -12    6   23      0.37      0.00
  -11    6   23      0.08      0.00
  -10    6   23      0.02      0.00
   -9    6   23     -0.34      0.00
   -8    6   23     -1.55      0.00
   -7    6   23      0.76      0.00
   -6    6   23      1.71      0.00
   -5    6   23      0.03      0.00
   -4    6   23      0.00      0.00
   -3    6   23     -2.92      0.00
   -2    6   23      1.52      0.00
   -1    6   23     -0.48      0.00
    0    6   23      0.21      0.00
    1    6   23     -0.24      0.00
    2    6   23      0.54      0.00
    3    6   23      0.25      0.00
    4    6   23     -0.20      0.00
    5    6   23     -0.51      0.00
  -12    7   23      0.23      0.00
  -11    7   23      0.40      0.00
  -10    7   23     -0.25      0.00
   -9    7   23     -1.41      0.00
   -8    7   23      0.21      0.00
   -7    7   23      0.24      0.00
   -6    7   23      1.16      0.00
   -5    7   23     -0.02      0.00
   -4    7   23     -2.15      0.00
   -3    7   23     -0.96      0.00
   -2    7   23     -1.25      0.00
   -1    7   23      0.91      0.00
    0    7   23     -0.85      0.00
    1    7   23     -0.19      0.00
    2    7   23     -1.53      0.00
    3    7   23      0.93      0.00
    4    7   23     -0.29      0.00
  -11    8   23     -1.29      0.00
  -10    8   23      0.21      0.00
   -9    8   23      1.00      0.00
   -8    8   23     -1.37      0.00
   -7    8   23      0.71      0.00
   -6    8   23      0.34      0.00
   -5    8   23      0.62      0.00
   -4    8   23      0.63      0.00
   -3    8   23     -2.32      0.00
   -2    8   23     -0.11      0.00
   -1    8   23     -1.06      0.00
    0    8   23      0.88      0.00
    1    8   23     -1.34      0.00
    2    8   23      0.83      0.00
    3    8   23     -0.61      0.00
   -9    9   23     -0.92      0.00
   -8    9   23      0.34      0.00
   -7    9   23      0.19      0.00
   -6    9   23      0.70      0.00
   -5    9   23      1.00      0.00
   -4    9   23     -1.65      0.00
   -3    9   23     -0.16      0.00
   -2    9   23     -0.27      0.00
   -1    9   23      1.73      0.00
    0    9   23     -0.93      0.00
    1    9   23      0.69      0.00
   -6   10   23      0.10      0.00
   -5   10   23     -0.46      0.00
   -4   10   23      1.01      0.00
   -3   10   23     -0.82      0.00
   -2   10   23     -0.04      0.00
    0    0    0      0.00      0.00
# SQUEEZE RESULTS (Version =  30715)
# Note: Data are Listed for all Voids in the P1 Unit Cell
# i.e. Centre of Gravity, Solvent Accessible Volume,
# Recovered number of Electrons in the Void and
# Details about the Squeezed Material
loop_
  _platon_squeeze_void_nr
  _platon_squeeze_void_average_x
  _platon_squeeze_void_average_y
  _platon_squeeze_void_average_z
  _platon_squeeze_void_volume
  _platon_squeeze_void_count_electrons
  _platon_squeeze_void_content
   1  0.000  0.000  0.500       332        88 ' '
   2  0.500  0.500  0.000       332        88 ' '
# Missing Reflections Below sin(th)/lambda = 0.25
loop_
  _platon_missing_refln_index_h
  _platon_missing_refln_index_k
  _platon_missing_refln_index_l
  _platon_missing_refln_theta
    2    0    0     2.491
   -5    0    1     6.087
   -1    0    1     1.396
    1    0    1     1.750
   -6    1    1     7.480
    0    1    1     1.782
    6    1    1     7.919
   -6    2    1     7.917
   -6    1    2     7.447
    5    0    5     8.785
    0    3    5     6.638
    0    4    5     7.731
    0    3    6     7.395
    0    4    8     9.882
_platon_squeeze_void_probe_radius                  1.20
_platon_squeeze_details
)
TITL mo_gs27a_0m_a.res in P2(1)/n
CELL   16.8011   13.6677   21.3950     90.00    103.24     90.00
SPGR P21/n
# Solvent Accessible Volume =     679.9
# Electrons Found in S.A.V. =     175.3
# Note: Atoms in Void as Cxxx and Qxxx all others
C101 0.247 0.923 0.383 !       5.73 eA-3
C102 0.123 0.938 0.403 !       5.64 eA-3
C103 0.075 0.970 0.449 !       4.83 eA-3
C104 0.199 0.956 0.412 !       4.17 eA-3
C105 0.420 0.378 0.137 !       3.47 eA-3
C106 0.063 0.839 0.398 !       1.04 eA-3
Q107 0.140 0.901 0.461 !       0.80 eA-3
C108 0.410 0.282 0.123 !       0.79 eA-3
C109 0.201 0.422 0.054 !       0.75 eA-3
C110 0.120 0.800 0.338 !       0.74 eA-3
C111 0.464 0.280 0.126 !       0.70 eA-3
Q112 0.307 0.410 0.381 !       0.68 eA-3
C113 0.089 0.909 0.490 !       0.68 eA-3
Q114 0.312 0.330 0.377 !       0.66 eA-3
Q115 0.483 0.312 0.203 !       0.62 eA-3
Q116 0.425 0.205 0.110 !       0.61 eA-3
Q117 0.327 0.278 0.094 !       0.60 eA-3
Q118 0.172 0.738 0.452 !       0.60 eA-3
C119 0.512 0.311 0.125 !       0.58 eA-3
Q120 0.206 0.901 0.478 !       0.56 eA-3
Q121 0.514 0.475 0.095 !       0.56 eA-3
Q122 0.141 0.826 0.437 !       0.55 eA-3
C123 0.996 0.876 0.417 !       0.54 eA-3
C124 0.200 0.858 0.413 !       0.53 eA-3
C125 0.544 0.464 0.056 !       0.52 eA-3
Q126 0.079 0.247 0.398 !       0.52 eA-3
Q127 0.203 0.999 0.346 !       0.52 eA-3
Q128 0.361 0.339 0.187 !       0.51 eA-3
Q129 0.083 0.074 0.500 !       0.51 eA-3
C130 0.156 0.977 0.454 !       0.51 eA-3
Q131 0.668 0.595 0.165 !       0.51 eA-3
Q132 0.870 0.877 0.355 !       0.51 eA-3
)
;
_shelx_fab_checksum              73704
loop_
_space_group_symop_operation_xyz
'x, y, z'
'-x+1/2, y+1/2, -z+1/2'
'-x, -y, -z'
'x-1/2, -y-1/2, z-1/2'
loop_
_atom_site_label
_atom_site_type_symbol
_atom_site_fract_x
_atom_site_fract_y
_atom_site_fract_z
_atom_site_U_iso_or_equiv
_atom_site_adp_type
_atom_site_occupancy
_atom_site_site_symmetry_order
_atom_site_calc_flag
_atom_site_refinement_flags_posn
_atom_site_refinement_flags_adp
Co1 Co 0.34259(3) 0.36830(4) 0.41474(3) 0.0199(2) Uani 1 1 d . .
N1 N 0.3964(2) 0.4819(3) 0.37647(18) 0.0350(10) Uani 1 1 d . .
N2 N 0.2340(2) 0.4461(3) 0.39073(18) 0.0334(10) Uani 1 1 d . .
N3 N 0.2928(2) 0.2836(3) 0.47636(18) 0.0351(10) Uani 1 1 d . .
N4 N 0.1840(2) 0.7695(3) 0.16531(19) 0.0366(10) Uani 1 1 d . .
N5 N 0.4562(2) 0.3249(3) 0.46641(18) 0.0349(10) Uani 1 1 d . .
N6 N 0.5106(3) -0.0371(4) 0.6659(2) 0.0574(13) Uani 1 1 d . .
C1 C 0.2420(3) 0.6402(4) 0.2673(2) 0.0339(12) Uani 1 1 d . .
C2 C 0.3577(3) 0.5518(4) 0.3350(2) 0.0362(12) Uani 1 1 d . .
C3 C 0.4789(3) 0.4863(4) 0.3752(2) 0.0374(12) Uani 1 1 d . .
C4 C 0.0137(3) 0.2517(3) 0.4168(2) 0.0342(12) Uani 1 1 d . .
C5 C 0.2161(3) 0.5212(4) 0.3475(2) 0.0331(12) Uani 1 1 d . .
C6 C 0.3320(3) 0.2131(4) 0.5182(2) 0.0346(12) Uani 1 1 d . .
C7 C 0.1602(3) 0.4176(4) 0.4035(2) 0.0387(12) Uani 1 1 d . .
C8 C 0.5300(3) 0.3563(4) 0.4553(2) 0.0366(12) Uani 1 1 d . .
C9 C 0.2736(3) 0.5699(3) 0.3198(2) 0.0335(12) Uani 1 1 d . .
C10 C 0.2108(3) 0.2782(4) 0.4774(2) 0.0408(13) Uani 1 1 d . .
C11 C -0.0650(3) 0.2321(3) 0.4263(2) 0.0356(12) Uani 1 1 d . .
C12 C 0.4746(3) 0.2519(4) 0.5114(2) 0.0360(12) Uani 1 1 d . .
C13 C 0.4164(3) 0.6029(4) 0.3062(2) 0.0424(13) Uani 1 1 d . .
H13 H 0.4051 0.6539 0.2753 0.051 Uiso 1 1 calc R U
C14 C 0.1300(3) 0.5414(4) 0.3329(2) 0.0413(13) Uani 1 1 d . .
H14 H 0.1022 0.5901 0.3043 0.050 Uiso 1 1 calc R U
C15 C 0.4904(3) 0.5632(4) 0.3322(2) 0.0455(14) Uani 1 1 d . .
H15 H 0.5410 0.5827 0.3236 0.055 Uiso 1 1 calc R U
C16 C 0.5622(3) 0.2379(4) 0.5298(2) 0.0428(13) Uani 1 1 d . .
H16 H 0.5909 0.1921 0.5601 0.051 Uiso 1 1 calc R U
C17 C 0.2730(3) 0.1621(4) 0.5459(3) 0.0463(14) Uani 1 1 d . .
H17 H 0.2841 0.1102 0.5762 0.056 Uiso 1 1 calc R U
C18 C 0.7209(3) 0.3818(4) 0.3342(3) 0.0468(14) Uani 1 1 d . .
C19 C 0.6429(3) 0.3742(4) 0.3492(2) 0.0399(13) Uani 1 1 d . .
C20 C 0.6232(3) 0.4343(4) 0.3963(2) 0.0425(13) Uani 1 1 d . .
C21 C 0.5399(3) 0.4270(4) 0.4105(2) 0.0387(13) Uani 1 1 d . .
C22 C 0.1492(3) 0.3396(4) 0.4434(2) 0.0416(13) Uani 1 1 d . .
C23 C 0.4166(3) 0.1966(4) 0.5345(2) 0.0376(12) Uani 1 1 d . .
C24 C 0.0403(3) 0.1943(4) 0.3670(2) 0.0454(14) Uani 1 1 d . .
H24 H 0.0927 0.2053 0.3587 0.055 Uiso 1 1 calc R U
C25 C -0.0096(3) 0.1264(4) 0.3334(2) 0.0465(14) Uani 1 1 d . .
H25 H 0.0084 0.0911 0.3010 0.056 Uiso 1 1 calc R U
C26 C 0.4487(3) 0.1155(4) 0.5800(2) 0.0378(12) Uani 1 1 d . .
C27 C 0.0959(3) 0.4779(4) 0.3675(2) 0.0434(13) Uani 1 1 d . .
H27 H 0.0396 0.4738 0.3680 0.052 Uiso 1 1 calc R U
C28 C -0.1955(3) 0.1406(4) 0.4033(3) 0.0444(14) Uani 1 1 d . .
C29 C 0.0633(3) 0.3221(4) 0.4518(3) 0.0465(14) Uani 1 1 d . .
C30 C 0.1990(3) 0.2021(4) 0.5205(3) 0.0481(14) Uani 1 1 d . .
H30 H 0.1484 0.1833 0.5296 0.058 Uiso 1 1 calc R U
C31 C 0.4340(3) 0.0184(4) 0.5630(3) 0.0488(14) Uani 1 1 d . .
H31 H 0.4022 0.0017 0.5217 0.059 Uiso 1 1 calc R U
C32 C 0.5955(3) 0.3026(4) 0.4953(2) 0.0425(13) Uani 1 1 d . .
H32 H 0.6521 0.3109 0.4973 0.051 Uiso 1 1 calc R U
C33 C -0.0933(3) 0.2879(4) 0.4746(3) 0.0476(14) Uani 1 1 d . .
C34 C 0.7784(3) 0.4491(5) 0.3674(3) 0.0580(17) Uani 1 1 d . .
C35 C 0.4663(3) -0.0551(4) 0.6071(3) 0.0563(16) Uani 1 1 d . .
H35 H 0.4562 -0.1214 0.5943 0.068 Uiso 1 1 calc R U
C36 C 0.4961(3) 0.1339(4) 0.6401(3) 0.0482(14) Uani 1 1 d . .
H36 H 0.5091 0.1995 0.6535 0.058 Uiso 1 1 calc R U
C37 C -0.1160(3) 0.1607(4) 0.3917(3) 0.0463(14) Uani 1 1 d . .
C38 C 0.2070(4) 0.8007(4) 0.2253(3) 0.0654(18) Uani 1 1 d . .
H38 H 0.2028 0.8687 0.2332 0.078 Uiso 1 1 calc R U
C39 C -0.0886(3) 0.1051(4) 0.3444(3) 0.0509(15) Uani 1 1 d . .
C40 C 0.6805(3) 0.4998(5) 0.4280(3) 0.0594(17) Uani 1 1 d . .
H40 H 0.6674 0.5410 0.4599 0.071 Uiso 1 1 calc R U
C41 C -0.2209(3) 0.1967(4) 0.4508(3) 0.0541(16) Uani 1 1 d . .
H41 H -0.2733 0.1845 0.4588 0.065 Uiso 1 1 calc R U
C42 C 0.1870(3) 0.6745(4) 0.1561(3) 0.0545(16) Uani 1 1 d . .
H42 H 0.1693 0.6500 0.1136 0.065 Uiso 1 1 calc R U
C43 C 0.0332(3) 0.3745(4) 0.4967(3) 0.0524(15) Uani 1 1 d . .
H43 H 0.0664 0.4240 0.5208 0.063 Uiso 1 1 calc R U
C44 C 0.2368(4) 0.7401(4) 0.2768(3) 0.0675(18) Uani 1 1 d . .
H44 H 0.2538 0.7668 0.3187 0.081 Uiso 1 1 calc R U
C45 C 0.7409(4) 0.3212(5) 0.2861(3) 0.0559(16) Uani 1 1 d . .
C46 C -0.1730(3) 0.2675(4) 0.4854(3) 0.0575(16) Uani 1 1 d . .
H46 H -0.1925 0.3035 0.5168 0.069 Uiso 1 1 calc R U
C47 C 0.5252(3) 0.0574(5) 0.6813(3) 0.0577(16) Uani 1 1 d . .
H47 H 0.5573 0.0726 0.7228 0.069 Uiso 1 1 calc R U
C48 C 0.2150(4) 0.6087(4) 0.2054(3) 0.0580(16) Uani 1 1 d . .
H48 H 0.2155 0.5407 0.1962 0.070 Uiso 1 1 calc R U
C49 C 0.8592(3) 0.4559(6) 0.3514(3) 0.071(2) Uani 1 1 d . .
H49 H 0.8994 0.5001 0.3739 0.085 Uiso 1 1 calc R U
C50 C 0.8203(4) 0.3306(5) 0.2709(3) 0.0656(19) Uani 1 1 d . .
C51 C -0.0424(3) 0.3575(4) 0.5077(3) 0.0577(16) Uani 1 1 d . .
H51 H -0.0602 0.3952 0.5393 0.069 Uiso 1 1 calc R U
C52 C 0.5878(3) 0.3021(4) 0.3148(3) 0.0550(15) Uani 1 1 d . .
H52 H 0.5355 0.2943 0.3242 0.066 Uiso 1 1 calc R U
C53 C 0.8747(4) 0.3993(6) 0.3053(3) 0.073(2) Uani 1 1 d . .
H53 H 0.9265 0.4059 0.2949 0.088 Uiso 1 1 calc R U
C54 C 0.7574(3) 0.5068(6) 0.4141(3) 0.074(2) Uani 1 1 d . .
H54 H 0.7961 0.5521 0.4372 0.089 Uiso 1 1 calc R U
C55 C 0.6855(4) 0.2538(5) 0.2530(3) 0.0743(19) Uani 1 1 d . .
C56 C 0.6082(4) 0.2455(5) 0.2697(3) 0.081(2) Uani 1 1 d . .
H56 H 0.5701 0.1984 0.2482 0.097 Uiso 1 1 calc R U
C57 C -0.2427(4) 0.0681(5) 0.3682(3) 0.0681(19) Uani 1 1 d . .
H57 H -0.2957 0.0553 0.3749 0.082 Uiso 1 1 calc R U
C58 C -0.1392(4) 0.0324(5) 0.3119(3) 0.079(2) Uani 1 1 d . .
H58 H -0.1213 -0.0055 0.2805 0.094 Uiso 1 1 calc R U
C59 C 0.8370(5) 0.2714(6) 0.2227(4) 0.083(2) Uani 1 1 d . .
H59 H 0.8889 0.2768 0.2124 0.100 Uiso 1 1 calc R U
C60 C -0.2142(4) 0.0142(6) 0.3239(4) 0.095(3) Uani 1 1 d . .
H60 H -0.2472 -0.0366 0.3011 0.114 Uiso 1 1 calc R U
C61 C 0.7831(6) 0.2072(7) 0.1902(5) 0.113(3) Uani 1 1 d . .
H61 H 0.7973 0.1680 0.1577 0.135 Uiso 1 1 calc R U
C62 C 0.7057(6) 0.1974(6) 0.2038(4) 0.109(3) Uani 1 1 d . .
H62 H 0.6670 0.1529 0.1798 0.131 Uiso 1 1 calc R U
loop_
_atom_site_aniso_label
_atom_site_aniso_U_11
_atom_site_aniso_U_22
_atom_site_aniso_U_33
_atom_site_aniso_U_23
_atom_site_aniso_U_13
_atom_site_aniso_U_12
Co1 0.0159(3) 0.0259(4) 0.0191(3) 0.0000(3) 0.0064(2) -0.0038(3)
N1 0.026(2) 0.042(3) 0.036(2) 0.001(2) 0.0074(18) -0.0015(18)
N2 0.025(2) 0.046(3) 0.030(2) 0.004(2) 0.0069(17) -0.0045(18)
N3 0.026(2) 0.044(3) 0.036(2) 0.003(2) 0.0093(17) -0.0030(18)
N4 0.034(2) 0.040(3) 0.035(3) 0.008(2) 0.0079(18) 0.0047(19)
N5 0.031(2) 0.042(2) 0.035(2) 0.003(2) 0.0146(18) -0.0070(18)
N6 0.051(3) 0.062(4) 0.060(3) 0.016(3) 0.014(3) 0.004(3)
C1 0.033(3) 0.036(3) 0.034(3) -0.004(3) 0.012(2) -0.002(2)
C2 0.033(3) 0.038(3) 0.039(3) -0.002(3) 0.012(2) -0.004(2)
C3 0.036(3) 0.040(3) 0.038(3) 0.003(3) 0.012(2) -0.006(2)
C4 0.034(3) 0.034(3) 0.034(3) 0.007(3) 0.005(2) 0.000(2)
C5 0.030(3) 0.038(3) 0.031(3) -0.005(3) 0.009(2) -0.002(2)
C6 0.029(3) 0.039(3) 0.037(3) 0.003(3) 0.010(2) 0.000(2)
C7 0.033(3) 0.045(3) 0.039(3) 0.003(3) 0.010(2) -0.007(2)
C8 0.038(3) 0.046(3) 0.029(3) 0.000(3) 0.015(2) -0.003(2)
C9 0.034(3) 0.033(3) 0.034(3) -0.005(2) 0.009(2) -0.002(2)
C10 0.030(3) 0.053(3) 0.040(3) 0.009(3) 0.009(2) -0.002(2)
C11 0.023(3) 0.037(3) 0.046(3) 0.008(3) 0.006(2) -0.002(2)
C12 0.032(3) 0.042(3) 0.035(3) 0.001(3) 0.011(2) -0.002(2)
C13 0.044(3) 0.043(3) 0.042(3) 0.012(3) 0.013(2) -0.005(2)
C14 0.037(3) 0.046(3) 0.040(3) 0.007(3) 0.008(2) 0.006(2)
C15 0.031(3) 0.058(4) 0.051(3) 0.007(3) 0.017(2) -0.005(3)
C16 0.035(3) 0.055(4) 0.039(3) 0.007(3) 0.009(2) 0.009(2)
C17 0.038(3) 0.050(3) 0.052(3) 0.010(3) 0.012(3) -0.007(3)
C18 0.035(3) 0.063(4) 0.044(3) 0.018(3) 0.010(3) 0.003(3)
C19 0.038(3) 0.050(3) 0.032(3) 0.010(3) 0.011(2) 0.004(3)
C20 0.034(3) 0.057(4) 0.036(3) 0.010(3) 0.007(2) -0.004(3)
C21 0.025(3) 0.053(3) 0.039(3) 0.003(3) 0.010(2) -0.005(2)
C22 0.020(3) 0.060(4) 0.046(3) 0.002(3) 0.011(2) -0.006(2)
C23 0.037(3) 0.045(3) 0.035(3) -0.005(3) 0.016(2) -0.002(2)
C24 0.041(3) 0.053(4) 0.043(3) 0.003(3) 0.010(3) -0.002(3)
C25 0.055(3) 0.050(3) 0.039(3) -0.012(3) 0.019(3) -0.016(3)
C26 0.033(3) 0.046(4) 0.037(3) 0.005(3) 0.014(2) 0.000(2)
C27 0.028(3) 0.060(4) 0.041(3) 0.004(3) 0.006(2) 0.003(3)
C28 0.026(3) 0.050(3) 0.056(4) 0.007(3) 0.006(2) -0.007(3)
C29 0.038(3) 0.053(3) 0.052(3) -0.001(3) 0.016(3) -0.006(3)
C30 0.034(3) 0.058(4) 0.055(4) 0.009(3) 0.015(3) -0.010(3)
C31 0.041(3) 0.053(4) 0.051(4) 0.005(3) 0.009(3) -0.010(3)
C32 0.029(3) 0.058(4) 0.042(3) 0.010(3) 0.011(2) 0.002(3)
C33 0.032(3) 0.047(3) 0.065(4) 0.004(3) 0.011(3) 0.006(3)
C34 0.037(3) 0.094(5) 0.045(4) 0.004(4) 0.013(3) 0.002(3)
C35 0.052(4) 0.051(4) 0.067(4) 0.005(4) 0.015(3) -0.005(3)
C36 0.048(3) 0.047(3) 0.051(4) 0.004(3) 0.014(3) 0.002(3)
C37 0.042(3) 0.050(4) 0.044(3) 0.011(3) 0.004(3) 0.001(3)
C38 0.121(6) 0.040(4) 0.037(4) 0.003(3) 0.023(3) 0.026(3)
C39 0.055(4) 0.058(4) 0.041(3) -0.005(3) 0.013(3) -0.008(3)
C40 0.038(3) 0.087(5) 0.055(4) -0.020(3) 0.015(3) -0.020(3)
C41 0.029(3) 0.058(4) 0.074(4) 0.006(4) 0.009(3) -0.004(3)
C42 0.080(4) 0.036(3) 0.040(3) 0.003(3) -0.002(3) -0.010(3)
C43 0.039(3) 0.064(4) 0.059(4) -0.014(3) 0.020(3) -0.003(3)
C44 0.123(6) 0.046(4) 0.034(3) -0.002(3) 0.017(3) 0.014(4)
C45 0.056(4) 0.061(4) 0.057(4) 0.017(3) 0.025(3) 0.018(3)
C46 0.036(3) 0.059(4) 0.083(4) 0.004(4) 0.027(3) 0.006(3)
C47 0.055(4) 0.060(4) 0.061(4) 0.012(4) 0.018(3) 0.004(3)
C48 0.097(5) 0.030(3) 0.042(3) -0.008(3) 0.004(3) -0.006(3)
C49 0.038(3) 0.120(6) 0.056(4) 0.000(4) 0.011(3) -0.001(3)
C50 0.060(4) 0.086(5) 0.060(4) 0.028(4) 0.033(4) 0.031(4)
C51 0.050(4) 0.057(4) 0.075(4) -0.023(3) 0.032(3) -0.008(3)
C52 0.058(4) 0.055(4) 0.062(4) -0.001(3) 0.033(3) -0.006(3)
C53 0.050(4) 0.115(6) 0.059(4) 0.014(4) 0.019(3) 0.006(4)
C54 0.035(3) 0.126(6) 0.062(4) -0.015(4) 0.009(3) -0.033(4)
C55 0.089(5) 0.063(4) 0.084(5) 0.005(4) 0.047(4) 0.000(4)
C56 0.099(5) 0.071(5) 0.090(5) -0.021(4) 0.058(4) -0.026(4)
C57 0.053(4) 0.086(5) 0.066(4) 0.009(4) 0.015(3) -0.022(4)
C58 0.075(5) 0.103(6) 0.065(4) -0.034(4) 0.031(4) -0.047(4)
C59 0.093(6) 0.091(6) 0.087(5) 0.025(5) 0.066(5) 0.029(5)
C60 0.093(6) 0.114(6) 0.089(6) -0.047(5) 0.045(5) -0.062(5)
C61 0.141(8) 0.093(7) 0.134(8) -0.018(6) 0.095(7) -0.011(6)
C62 0.139(8) 0.094(6) 0.125(7) -0.036(6) 0.096(6) -0.017(5)
loop_
_atom_type_symbol
_atom_type_description
_atom_type_scat_dispersion_real
_atom_type_scat_dispersion_imag
_atom_type_scat_source
C C 0.0033 0.0016 'International Tables Vol C Tables 4.2.6.8 and 6.1.1.4'
H H 0.0000 0.0000 'International Tables Vol C Tables 4.2.6.8 and 6.1.1.4'
N N 0.0061 0.0033 'International Tables Vol C Tables 4.2.6.8 and 6.1.1.4'
Co Co 0.3494 0.9721 'International Tables Vol C Tables 4.2.6.8 and 6.1.1.4'
loop_
_geom_angle_atom_site_label_1
_geom_angle_atom_site_label_2
_geom_angle_atom_site_label_3
_geom_angle
_geom_angle_site_symmetry_3
N1 Co1 N5 89.58(15) .
N1 Co1 N3 162.52(15) .
N5 Co1 N3 87.58(14) .
N1 Co1 N2 87.51(15) .
N5 Co1 N2 159.22(15) .
N3 Co1 N2 89.05(15) .
N1 Co1 N4 100.77(15) 2_545
N5 Co1 N4 104.19(15) 2_545
N3 Co1 N4 96.64(15) 2_545
N2 Co1 N4 96.57(14) 2_545
C2 N1 C3 106.6(4) .
C2 N1 Co1 126.9(3) .
C3 N1 Co1 124.7(3) .
C5 N2 C7 106.0(4) .
C5 N2 Co1 126.7(3) .
C7 N2 Co1 125.7(3) .
C6 N3 C10 106.4(4) .
C6 N3 Co1 127.0(3) .
C10 N3 Co1 126.1(3) .
C42 N4 C38 116.8(5) .
C42 N4 Co1 120.6(4) 2
C38 N4 Co1 122.2(4) 2
C12 N5 C8 106.2(4) .
C12 N5 Co1 128.1(3) .
C8 N5 Co1 125.1(3) .
C35 N6 C47 116.2(5) .
C48 C1 C44 115.7(5) .
C48 C1 C9 120.8(4) .
C44 C1 C9 123.5(4) .
N1 C2 C9 125.6(4) .
N1 C2 C13 110.1(4) .
C9 C2 C13 124.3(5) .
C21 C3 N1 125.4(4) .
C21 C3 C15 125.7(4) .
N1 C3 C15 108.9(4) .
C29 C4 C11 121.7(5) .
C29 C4 C24 121.4(4) .
C11 C4 C24 117.0(4) .
N2 C5 C9 124.9(4) .
N2 C5 C14 110.3(4) .
C9 C5 C14 124.7(5) .
N3 C6 C23 125.6(4) .
N3 C6 C17 109.5(4) .
C23 C6 C17 124.8(5) .
N2 C7 C22 125.5(4) .
N2 C7 C27 109.3(4) .
C22 C7 C27 125.1(4) .
N5 C8 C21 125.7(4) .
N5 C8 C32 109.6(4) .
C21 C8 C32 124.7(4) .
C2 C9 C5 124.8(4) .
C2 C9 C1 117.3(4) .
C5 C9 C1 117.7(4) .
N3 C10 C22 125.4(4) .
N3 C10 C30 109.4(4) .
C22 C10 C30 125.1(4) .
C37 C11 C4 122.6(5) .
C37 C11 C33 119.0(4) .
C4 C11 C33 118.4(4) .
N5 C12 C23 125.0(4) .
N5 C12 C16 109.8(4) .
C23 C12 C16 125.2(5) .
C15 C13 C2 106.3(4) .
C15 C13 H13 126.9 .
C2 C13 H13 126.9 .
C27 C14 C5 106.8(4) .
C27 C14 H14 126.6 .
C5 C14 H14 126.6 .
C13 C15 C3 108.1(4) .
C13 C15 H15 125.9 .
C3 C15 H15 125.9 .
C32 C16 C12 106.7(4) .
C32 C16 H16 126.7 .
C12 C16 H16 126.7 .
C30 C17 C6 107.0(5) .
C30 C17 H17 126.5 .
C6 C17 H17 126.5 .
C34 C18 C45 120.0(5) .
C34 C18 C19 119.7(5) .
C45 C18 C19 120.3(5) .
C20 C19 C18 120.2(5) .
C20 C19 C52 122.8(5) .
C18 C19 C52 117.0(5) .
C40 C20 C19 118.9(5) .
C40 C20 C21 121.6(5) .
C19 C20 C21 119.5(4) .
C3 C21 C8 126.0(4) .
C3 C21 C20 117.2(4) .
C8 C21 C20 116.6(4) .
C10 C22 C7 126.0(4) .
C10 C22 C29 117.0(4) .
C7 C22 C29 116.9(4) .
C6 C23 C12 124.7(5) .
C6 C23 C26 118.5(4) .
C12 C23 C26 116.8(4) .
C25 C24 C4 120.0(5) .
C25 C24 H24 120.0 .
C4 C24 H24 120.0 .
C24 C25 C39 122.8(5) .
C24 C25 H25 118.6 .
C39 C25 H25 118.6 .
C36 C26 C31 116.9(5) .
C36 C26 C23 121.4(5) .
C31 C26 C23 121.7(5) .
C14 C27 C7 107.6(4) .
C14 C27 H27 126.2 .
C7 C27 H27 126.2 .
C57 C28 C41 123.4(5) .
C57 C28 C37 118.9(5) .
C41 C28 C37 117.7(5) .
C4 C29 C43 117.9(5) .
C4 C29 C22 121.4(5) .
C43 C29 C22 120.7(5) .
C17 C30 C10 107.6(4) .
C17 C30 H30 126.2 .
C10 C30 H30 126.2 .
C26 C31 C35 119.6(5) .
C26 C31 H31 120.2 .
C35 C31 H31 120.2 .
C16 C32 C8 107.7(4) .
C16 C32 H32 126.1 .
C8 C32 H32 126.1 .
C51 C33 C46 123.3(5) .
C51 C33 C11 117.9(5) .
C46 C33 C11 118.8(5) .
C54 C34 C18 118.7(5) .
C54 C34 C49 122.1(6) .
C18 C34 C49 119.2(6) .
N6 C35 C31 123.4(6) .
N6 C35 H35 118.3 .
C31 C35 H35 118.3 .
C26 C36 C47 120.2(5) .
C26 C36 H36 119.9 .
C47 C36 H36 119.9 .
C11 C37 C39 119.5(5) .
C11 C37 C28 121.6(5) .
C39 C37 C28 119.0(5) .
N4 C38 C44 123.7(5) .
N4 C38 H38 118.2 .
C44 C38 H38 118.2 .
C58 C39 C37 118.6(5) .
C58 C39 C25 123.2(5) .
C37 C39 C25 118.1(5) .
C20 C40 C54 121.2(6) .
C20 C40 H40 119.4 .
C54 C40 H40 119.4 .
C46 C41 C28 122.6(5) .
C46 C41 H41 118.7 .
C28 C41 H41 118.7 .
N4 C42 C48 123.0(5) .
N4 C42 H42 118.5 .
C48 C42 H42 118.5 .
C51 C43 C29 122.3(5) .
C51 C43 H43 118.8 .
C29 C43 H43 118.8 .
C38 C44 C1 119.9(5) .
C38 C44 H44 120.1 .
C1 C44 H44 120.1 .
C55 C45 C18 121.1(5) .
C55 C45 C50 119.3(6) .
C18 C45 C50 119.6(6) .
C41 C46 C33 120.4(5) .
C41 C46 H46 119.8 .
C33 C46 H46 119.8 .
N6 C47 C36 123.6(6) .
N6 C47 H47 118.2 .
C36 C47 H47 118.2 .
C1 C48 C42 120.9(5) .
C1 C48 H48 119.6 .
C42 C48 H48 119.6 .
C53 C49 C34 118.9(6) .
C53 C49 H49 120.6 .
C34 C49 H49 120.6 .
C59 C50 C53 124.3(7) .
C59 C50 C45 117.9(7) .
C53 C50 C45 117.8(6) .
C43 C51 C33 121.8(5) .
C43 C51 H51 119.1 .
C33 C51 H51 119.1 .
C56 C52 C19 121.5(5) .
C56 C52 H52 119.2 .
C19 C52 H52 119.2 .
C49 C53 C50 124.6(6) .
C49 C53 H53 117.7 .
C50 C53 H53 117.7 .
C34 C54 C40 121.2(5) .
C34 C54 H54 119.4 .
C40 C54 H54 119.4 .
C45 C55 C62 119.9(7) .
C45 C55 C56 117.9(6) .
C62 C55 C56 122.2(7) .
C52 C56 C55 122.1(6) .
C52 C56 H56 118.9 .
C55 C56 H56 118.9 .
C60 C57 C28 120.9(6) .
C60 C57 H57 119.5 .
C28 C57 H57 119.5 .
C60 C58 C39 121.4(6) .
C60 C58 H58 119.3 .
C39 C58 H58 119.3 .
C61 C59 C50 122.7(7) .
C61 C59 H59 118.6 .
C50 C59 H59 118.6 .
C58 C60 C57 121.1(6) .
C58 C60 H60 119.4 .
C57 C60 H60 119.4 .
C59 C61 C62 120.3(8) .
C59 C61 H61 119.9 .
C62 C61 H61 119.9 .
C61 C62 C55 119.8(8) .
C61 C62 H62 120.1 .
C55 C62 H62 120.1 .
loop_
_geom_bond_atom_site_label_1
_geom_bond_atom_site_label_2
_geom_bond_distance
_geom_bond_site_symmetry_2
Co1 N1 2.059(4) .
Co1 N5 2.062(4) .
Co1 N3 2.070(4) .
Co1 N2 2.072(4) .
Co1 N4 2.146(4) 2_545
N1 C2 1.363(6) .
N1 C3 1.392(6) .
N2 C5 1.367(6) .
N2 C7 1.386(6) .
N3 C6 1.375(6) .
N3 C10 1.385(6) .
N4 C42 1.317(6) .
N4 C38 1.322(6) .
N4 Co1 2.146(4) 2
N5 C12 1.373(6) .
N5 C8 1.382(6) .
N6 C35 1.330(7) .
N6 C47 1.342(7) .
C1 C48 1.366(7) .
C1 C44 1.387(7) .
C1 C9 1.481(7) .
C2 C9 1.399(6) .
C2 C13 1.456(7) .
C3 C21 1.387(7) .
C3 C15 1.439(7) .
C4 C29 1.376(7) .
C4 C11 1.409(6) .
C4 C24 1.471(7) .
C5 C9 1.412(6) .
C5 C14 1.436(6) .
C6 C23 1.403(6) .
C6 C17 1.445(7) .
C7 C22 1.404(7) .
C7 C27 1.434(7) .
C8 C21 1.398(7) .
C8 C32 1.432(7) .
C10 C22 1.399(7) .
C10 C30 1.433(7) .
C11 C37 1.395(7) .
C11 C33 1.450(7) .
C12 C23 1.409(7) .
C12 C16 1.447(6) .
C13 C15 1.353(7) .
C13 H13 0.9500 .
C14 C27 1.351(7) .
C14 H14 0.9500 .
C15 H15 0.9500 .
C16 C32 1.351(7) .
C16 H16 0.9500 .
C17 C30 1.354(7) .
C17 H17 0.9500 .
C18 C34 1.404(8) .
C18 C45 1.419(8) .
C18 C19 1.423(7) .
C19 C20 1.397(7) .
C19 C52 1.435(7) .
C20 C40 1.373(7) .
C20 C21 1.503(6) .
C22 C29 1.514(7) .
C23 C26 1.491(7) .
C24 C25 1.343(7) .
C24 H24 0.9500 .
C25 C39 1.431(7) .
C25 H25 0.9500 .
C26 C36 1.374(7) .
C26 C31 1.384(7) .
C27 H27 0.9500 .
C28 C57 1.379(8) .
C28 C41 1.413(8) .
C28 C37 1.441(7) .
C29 C43 1.385(7) .
C30 H30 0.9500 .
C31 C35 1.400(7) .
C31 H31 0.9500 .
C32 H32 0.9500 .
C33 C51 1.364(7) .
C33 C46 1.437(7) .
C34 C54 1.381(8) .
C34 C49 1.476(8) .
C35 H35 0.9500 .
C36 C47 1.382(7) .
C36 H36 0.9500 .
C37 C39 1.423(8) .
C38 C44 1.377(8) .
C38 H38 0.9500 .
C39 C58 1.387(8) .
C40 C54 1.394(7) .
C40 H40 0.9500 .
C41 C46 1.364(8) .
C41 H41 0.9500 .
C42 C48 1.385(7) .
C42 H42 0.9500 .
C43 C51 1.364(7) .
C43 H43 0.9500 .
C44 H44 0.9500 .
C45 C55 1.384(9) .
C45 C50 1.448(8) .
C46 H46 0.9500 .
C47 H47 0.9500 .
C48 H48 0.9500 .
C49 C53 1.326(9) .
C49 H49 0.9500 .
C50 C59 1.389(9) .
C50 C53 1.397(9) .
C51 H51 0.9500 .
C52 C56 1.343(8) .
C52 H52 0.9500 .
C53 H53 0.9500 .
C54 H54 0.9500 .
C55 C62 1.407(9) .
C55 C56 1.428(9) .
C56 H56 0.9500 .
C57 C60 1.371(9) .
C57 H57 0.9500 .
C58 C60 1.365(8) .
C58 H58 0.9500 .
C59 C61 1.337(10) .
C59 H59 0.9500 .
C60 H60 0.9500 .
C61 C62 1.402(10) .
C61 H61 0.9500 .
C62 H62 0.9500 .
loop_
_platon_squeeze_void_nr
_platon_squeeze_void_average_x
_platon_squeeze_void_average_y
_platon_squeeze_void_average_z
_platon_squeeze_void_volume
_platon_squeeze_void_count_electrons
_platon_squeeze_void_content
1 0.000 0.000 0.500 332 88 'disordered DMF'
2 0.500 0.500 0.000 332 88 'disordered DMF'
