#------------------------------------------------------------------------------
#$Date: 2017-10-31 05:27:58 +0200 (Tue, 31 Oct 2017) $
#$Revision: 202440 $
#$URL: file:///home/coder/svn-repositories/cod/cif/7/22/94/7229430.cif $
#------------------------------------------------------------------------------
#
# This file is available in the Crystallography Open Database (COD),
# http://www.crystallography.net/
#
# All data on this site have been placed in the public domain by the
# contributors.
#
data_7229430
loop_
_publ_author_name
'Goswami, Soumyabrata'
'Tripuramallu, Bharat Kumar'
'Goldberg, Israel'
_publ_section_title
;
 New meso-substituted trans-A2B2 porphyrins: Synthesis and structure of
 their metal-mediated supramolecular assemblies&#x2020;
;
_journal_name_full               CrystEngComm
_journal_paper_doi               10.1039/C7CE01642E
_journal_year                    2017
_chemical_formula_moiety         'C58 H34 N6 Zn'
_chemical_formula_sum            'C58 H34 N6 Zn'
_chemical_formula_weight         880.28
_chemical_properties_physical    Air-sensitive,Moisture-sensitive
_space_group_crystal_system      monoclinic
_space_group_IT_number           14
_space_group_name_Hall           '-P 2ybc'
_space_group_name_H-M_alt        'P 1 21/c 1'
_symmetry_space_group_name_Hall  '-P 2ybc'
_symmetry_space_group_name_H-M   'P 1 21/c 1'
_atom_sites_solution_hydrogens   mixed
_atom_sites_solution_primary     direct
_atom_sites_solution_secondary   difmap
_audit_creation_method           SHELXL-2014/7
_audit_update_record
;
2017-09-11 deposited with the CCDC.
2017-10-30 downloaded from the CCDC.
;
_cell_angle_alpha                90
_cell_angle_beta                 115.8280(10)
_cell_angle_gamma                90
_cell_formula_units_Z            2
_cell_length_a                   13.2582(5)
_cell_length_b                   14.3270(5)
_cell_length_c                   14.2378(5)
_cell_measurement_reflns_used    3792
_cell_measurement_temperature    110(2)
_cell_measurement_theta_max      26.4
_cell_measurement_theta_min      2.13
_cell_volume                     2434.31(15)
_computing_cell_refinement       'Saint, Bruker-AXS'
_computing_data_collection       'Apex2, Bruker-AXS'
_computing_data_reduction        'Saint, Bruker-AXS'
_computing_structure_refinement  'SHELXL-2014/7 (Sheldrick, 2015)'
_computing_structure_solution    'SHELXT-2014 (Sheldrick, 2015)'
_diffrn_ambient_temperature      110(2)
_diffrn_detector_area_resol_mean 1.75
_diffrn_measured_fraction_theta_full 0.996
_diffrn_measured_fraction_theta_max 0.995
_diffrn_measurement_device_type  'ApexDuo, Bruker-AXS'
_diffrn_measurement_method       '1 deg. \f and \w scans'
_diffrn_radiation_type           MoK\a
_diffrn_radiation_wavelength     0.71073
_diffrn_reflns_av_R_equivalents  0.0418
_diffrn_reflns_av_unetI/netI     0.0466
_diffrn_reflns_Laue_measured_fraction_full 0.996
_diffrn_reflns_Laue_measured_fraction_max 0.995
_diffrn_reflns_limit_h_max       13
_diffrn_reflns_limit_h_min       -16
_diffrn_reflns_limit_k_max       15
_diffrn_reflns_limit_k_min       -17
_diffrn_reflns_limit_l_max       17
_diffrn_reflns_limit_l_min       -14
_diffrn_reflns_number            19382
_diffrn_reflns_point_group_measured_fraction_full 0.996
_diffrn_reflns_point_group_measured_fraction_max 0.995
_diffrn_reflns_theta_full        25.242
_diffrn_reflns_theta_max         26.390
_diffrn_reflns_theta_min         2.132
_diffrn_source                   'ImuS micro-focus'
_exptl_absorpt_coefficient_mu    0.548
_exptl_absorpt_correction_T_max  0.937
_exptl_absorpt_correction_T_min  0.880
_exptl_absorpt_correction_type   multi-scan
_exptl_absorpt_process_details   'SADABS, Bruker-AXS'
_exptl_crystal_colour            red
_exptl_crystal_density_diffrn    1.201
_exptl_crystal_description       needle
_exptl_crystal_F_000             908
_exptl_crystal_size_max          0.240
_exptl_crystal_size_mid          0.150
_exptl_crystal_size_min          0.120
_refine_diff_density_max         2.652
_refine_diff_density_min         -0.935
_refine_diff_density_rms         0.184
_refine_ls_extinction_method     none
_refine_ls_goodness_of_fit_ref   2.797
_refine_ls_hydrogen_treatment    constr
_refine_ls_matrix_type           full
_refine_ls_number_parameters     230
_refine_ls_number_reflns         4961
_refine_ls_number_restraints     0
_refine_ls_restrained_S_all      2.797
_refine_ls_R_factor_all          0.1502
_refine_ls_R_factor_gt           0.1260
_refine_ls_shift/su_max          0.040
_refine_ls_shift/su_mean         0.007
_refine_ls_structure_factor_coef Fsqd
_refine_ls_weighting_details
'w=1/[\s^2^(Fo^2^)+(0.1000P)^2^] where P=(Fo^2^+2Fc^2^)/3'
_refine_ls_weighting_scheme      calc
_refine_ls_wR_factor_gt          0.3706
_refine_ls_wR_factor_ref         0.3807
_reflns_Friedel_coverage         0.000
_reflns_number_gt                3792
_reflns_number_total             4961
_reflns_threshold_expression     'I > 2\s(I)'
_cod_data_source_file            c7ce01642e2.cif
_cod_data_source_block           gs33_sq
_cod_database_code               7229430
_shelx_shelxl_version_number     2014/7
_shelx_space_group_comment
;
The symmetry employed for this shelxl refinement is uniquely defined
by the following loop, which should always be used as a source of
symmetry information in preference to the above space-group names.
They are only intended as comments.
;
_shelx_estimated_absorpt_t_min   0.880
_shelx_estimated_absorpt_t_max   0.937
_platon_squeeze_void_probe_radius 1.20
_shelx_res_file
;

    gs33_sq.res created by SHELXL-2014/7


TITL mo_gs33_0ma_a.res in P2(1)/c
REM Old TITL mo_gs33_0ma in P2(1)/c

REM SHELXT solution in P2(1)/c
REM R1 0.236,  Rweak 0.011,  Alpha 0.052,  Orientation as input
REM Formula found by SHELXT:  C38 N18 O10 Zn

CELL  0.71073  13.2582  14.3270  14.2378   90.000  115.828   90.000
ZERR    2.000   0.0005   0.0005   0.0005    0.000    0.001    0.000
LATT  1
SYMM -X, 1/2+Y, 1/2-Z
SFAC C H N ZN
UNIT 116 68 12 2
TEMP -163.00
size 0.24 0.15 0.12
L.S. 5 0   47
BOND $H
FMAP 2
PLAN -20
acta
list 4
ABIN
WGHT    0.100000
FVAR       0.44229
ZN1   4    0.500000    0.500000    0.500000    10.50000    0.03393    0.01332 =
         0.01744   -0.00225    0.01167    0.00189
N1    3    0.516232    0.886281    0.888660    11.00000    0.05982    0.01288 =
         0.02502   -0.00481    0.02234    0.00150
N2    3    0.625121    0.560512    0.630956    11.00000    0.03784    0.01913 =
         0.01807    0.00091    0.01103    0.00373
N3    3    0.384330    0.587187    0.516606    11.00000    0.03470    0.01588 =
         0.02373    0.00028    0.01558    0.00247
C1    1    0.613198    0.629562    0.690997    11.00000    0.04702    0.01270 =
         0.01918    0.00080    0.01706   -0.00474
C2    1    0.723184    0.647316    0.778365    11.00000    0.04469    0.03640 =
         0.02791   -0.01430    0.01622   -0.01881
AFIX  43
H2    2    0.739514    0.692131    0.832225    11.00000   -1.20000
AFIX   0
C3    1    0.511489    0.672881    0.675072    11.00000    0.05666    0.00859 =
         0.02627    0.00059    0.02449    0.00204
C4    1    0.271946    0.588599    0.449324    11.00000    0.04781    0.03284 =
         0.03142    0.00479    0.02264    0.00892
C5    1    0.405814    0.652293    0.592206    11.00000    0.04660    0.01531 =
         0.03223    0.00036    0.02478    0.01445
C6    1    0.736213    0.534167    0.677457    11.00000    0.03410    0.03372 =
         0.02115    0.00079    0.01002   -0.00371
C7    1    0.530122    0.795311    0.914322    11.00000    0.07894    0.02241 =
         0.02704    0.00842    0.03477    0.00716
AFIX  43
H7    2    0.542061    0.778358    0.982891    11.00000   -1.20000
AFIX   0
C8    1    0.516717    0.745490    0.749375    11.00000    0.04041    0.02503 =
         0.02182   -0.00169    0.01341    0.00422
C9    1    0.793960    0.590243    0.768183    11.00000    0.03527    0.05791 =
         0.03509   -0.01488    0.01443   -0.00732
AFIX  43
H9    2    0.871639    0.586442    0.813779    11.00000   -1.20000
AFIX   0
C10   1    0.218243    0.537660    0.360528    11.00000    0.03314    0.04130 =
         0.03274   -0.00020    0.01881    0.00735
C11   1    0.528151    0.726276    0.848443    11.00000    0.07137    0.01710 =
         0.03556   -0.00204    0.03470    0.00329
AFIX  43
H11   2    0.534797    0.663225    0.871027    11.00000   -1.20000
AFIX   0
C12   1    0.301258    0.700061    0.571874    11.00000    0.06770    0.05252 =
         0.04240   -0.01174    0.02330    0.02900
AFIX  43
H12   2    0.291526    0.748388    0.612878    11.00000   -1.20000
AFIX   0
C13   1    0.222907    0.663937    0.486332    11.00000    0.04779    0.06104 =
         0.04586   -0.01246    0.01192    0.02725
AFIX  43
H13   2    0.146825    0.683365    0.453655    11.00000   -1.20000
AFIX   0
C14   1    0.512614    0.906557    0.796192    11.00000    0.14431    0.01547 =
         0.04163    0.00126    0.05192    0.01132
AFIX  43
H14   2    0.512109    0.970488    0.778285    11.00000   -1.20000
AFIX   0
C15   1    0.509528    0.839993    0.724178    11.00000    0.13658    0.02075 =
         0.03868    0.00188    0.04765    0.00844
AFIX  43
H15   2    0.502506    0.858880    0.657641    11.00000   -1.20000
AFIX   0
C16   1   -0.098000    0.793316   -0.011977    11.00000    0.11424    0.12151 =
         0.12642    0.04026    0.03666    0.00723
AFIX   3
H16   2   -0.100390    0.828621   -0.069390    11.00000   -1.20000
AFIX   0
C17   1    0.098119    0.575979    0.284908    11.00000    0.08393
C18   1    0.102082    0.641793    0.200400    11.00000    0.08911
AFIX   3
H18   2    0.169782    0.653906    0.194949    11.00000   -1.20000
AFIX   0
C19   1   -0.001626    0.683184    0.131290    11.00000    0.08843
C20   1   -0.002418    0.738110    0.052365    11.00000    0.11718
AFIX   3
H20   2    0.062252    0.739918    0.039735    11.00000   -1.20000
AFIX   0
C21   1   -0.186215    0.791959    0.014553    11.00000    0.09370
AFIX   3
H21   2   -0.248594    0.832072   -0.020194    11.00000   -1.20000
AFIX   0
C22   1   -0.183742    0.733107    0.091017    11.00000    0.10594
AFIX   3
H22   2   -0.247903    0.731325    0.104443    11.00000   -1.20000
AFIX   0
C23   1   -0.091909    0.674231    0.151632    11.00000    0.09492
C24   1   -0.099790    0.614511    0.226769    11.00000    0.10184
C25   1   -0.191074    0.602493    0.246007    11.00000    0.14681
AFIX   3
H25   2   -0.256317    0.639199    0.209676    11.00000   -1.20000
AFIX   0
C26   1   -0.188659    0.531878    0.324439    11.00000    0.17725
AFIX   3
H26   2   -0.255438    0.518684    0.331154    11.00000   -1.20000
AFIX   0
C27   1   -0.094143    0.487812    0.385162    11.00000    0.18235
AFIX   3
H27   2   -0.092194    0.445313    0.437143    11.00000   -1.20000
AFIX   0
C28   1    0.008090    0.571053    0.302441    11.00000    0.10116
C29   1    0.014021    0.506984    0.369094    11.00000    0.10478
AFIX   3
H29   2    0.081146    0.472864    0.406709    11.00000   -1.20000
rem Q1    1   0.0396  0.6107  0.2201  11.00000  0.05    2.66
rem Q2    1   0.0861  0.5332  0.3012  11.00000  0.05    2.20
rem Q3    1  -0.0726  0.6170  0.1601  11.00000  0.05    1.87
rem Q4    1  -0.1156  0.6893  0.0792  11.00000  0.05    1.56
rem Q5    1   0.0223  0.4859  0.3157  11.00000  0.05    1.47
rem Q6    1  -0.1020  0.4949  0.2655  11.00000  0.05    1.43
rem Q7    1   0.0661  0.7522  0.1394  11.00000  0.05    1.42
rem Q8    1  -0.1509  0.5481  0.1777  11.00000  0.05    1.27
rem Q9    1  -0.0552  0.7552  0.0791  11.00000  0.05    1.25
AFIX   0
HKLF 4

REM  mo_gs33_0ma_a.res in P2(1)/c
REM R1 =  0.1260 for    3792 Fo > 4sig(Fo)  and  0.1502 for all    4961 data
REM    230 parameters refined using      0 restraints

END

WGHT      0.2000      0.0000

REM Highest difference peak  2.652,  deepest hole -0.935,  1-sigma level  0.184
Q1    1   0.0396  0.6107  0.2201  11.00000  0.05    2.65
Q2    1   0.0862  0.5334  0.3012  11.00000  0.05    2.21
Q3    1  -0.0726  0.6168  0.1601  11.00000  0.05    1.86
Q4    1  -0.1157  0.6893  0.0794  11.00000  0.05    1.55
Q5    1   0.0223  0.4859  0.3156  11.00000  0.05    1.46
Q6    1  -0.1020  0.4948  0.2656  11.00000  0.05    1.43
Q7    1   0.0661  0.7523  0.1394  11.00000  0.05    1.42
Q8    1  -0.1508  0.5481  0.1776  11.00000  0.05    1.27
Q9    1  -0.0552  0.7552  0.0790  11.00000  0.05    1.26
Q10   1   0.1126  0.6866  0.2141  11.00000  0.05    1.07
Q11   1  -0.3181  0.5677  0.2152  11.00000  0.05    0.84
Q12   1   0.0744  0.6665  0.0643  11.00000  0.05    0.81
Q13   1  -0.2635  0.6049  0.1580  11.00000  0.05    0.80
Q14   1   0.0878  0.4619  0.3023  11.00000  0.05    0.72
Q15   1   0.1229  0.6197  0.1393  11.00000  0.05    0.72
Q16   1   0.6519  0.5508  0.6459  11.00000  0.05    0.54
Q17   1   0.4335  0.8869  0.7685  11.00000  0.05    0.53
Q18   1   0.4615  0.5387  0.4388  11.00000  0.05    0.52
Q19   1   0.4284  0.8280  0.6948  11.00000  0.05    0.51
Q20   1   0.5823  0.5019  0.5433  11.00000  0.05    0.51
;
_shelx_res_checksum              48663
_shelx_fab_file
;
   -1    0    2    -64.44      0.00
   -2    0    4     -0.01      0.00
   -3    0    6     -0.37      0.00
   -4    0    8      5.81      0.00
   -5    0   10     -4.10      0.00
   -6    0   12      2.99      0.00
   -7    0   14      0.68      0.00
   -8    0   16     -1.34      0.00
   -1    1    2     -5.25      0.00
   -2    1    4     -0.40      0.00
   -3    1    6      0.93      0.00
   -4    1    8     -0.97      0.00
   -5    1   10      0.38      0.00
   -6    1   12      0.59      0.00
   -7    1   14      0.94      0.00
   -8    1   16     -1.02      0.00
    0    2    0     80.12      0.00
   -1    2    2    -20.98      0.00
   -2    2    4     -3.69      0.00
   -3    2    6     -1.04      0.00
   -4    2    8      1.64      0.00
   -5    2   10     -0.53      0.00
   -6    2   12      0.17      0.00
   -7    2   14     -0.16      0.00
   -8    2   16      0.08      0.00
   -1    3    2     -8.70      0.00
   -2    3    4      1.68      0.00
   -3    3    6      1.25      0.00
   -4    3    8     -1.42      0.00
   -5    3   10      1.94      0.00
   -6    3   12      0.97      0.00
   -7    3   14      0.53      0.00
   -8    3   16     -1.36      0.00
    0    4    0      0.44      0.00
   -1    4    2     11.24      0.00
   -2    4    4    -12.17      0.00
   -3    4    6     -1.56      0.00
   -4    4    8     -0.37      0.00
   -5    4   10      0.85      0.00
   -6    4   12     -0.40      0.00
   -7    4   14     -1.23      0.00
   -8    4   16      0.59      0.00
   -1    5    2      1.55      0.00
   -2    5    4     -1.98      0.00
   -3    5    6      2.23      0.00
   -4    5    8     -0.32      0.00
   -5    5   10     -0.14      0.00
   -6    5   12      3.62      0.00
   -7    5   14     -0.99      0.00
   -8    5   16     -0.32      0.00
    0    6    0     -4.37      0.00
   -1    6    2      7.46      0.00
   -2    6    4     -8.30      0.00
   -3    6    6     -4.69      0.00
   -4    6    8      1.00      0.00
   -5    6   10      2.45      0.00
   -6    6   12     -1.35      0.00
   -7    6   14     -0.76      0.00
   -8    6   16      0.89      0.00
   -1    7    2      3.76      0.00
   -2    7    4     -6.65      0.00
   -3    7    6      3.18      0.00
   -4    7    8      0.93      0.00
   -5    7   10     -1.46      0.00
   -6    7   12      3.45      0.00
   -7    7   14     -0.58      0.00
   -8    7   16     -0.27      0.00
    0    8    0      3.22      0.00
   -1    8    2     -1.28      0.00
   -2    8    4     -1.64      0.00
   -3    8    6     -1.06      0.00
   -4    8    8      1.39      0.00
   -5    8   10      1.42      0.00
   -6    8   12     -1.24      0.00
   -7    8   14      1.09      0.00
   -1    9    2      3.01      0.00
   -2    9    4     -5.17      0.00
   -3    9    6      2.65      0.00
   -4    9    8      1.78      0.00
   -5    9   10     -1.02      0.00
   -6    9   12      0.68      0.00
   -7    9   14     -0.75      0.00
    0   10    0      4.89      0.00
   -1   10    2     -0.67      0.00
   -2   10    4     -3.24      0.00
   -3   10    6      2.22      0.00
   -4   10    8      0.61      0.00
   -5   10   10     -1.56      0.00
   -6   10   12      0.33      0.00
   -7   10   14      0.37      0.00
   -1   11    2      2.00      0.00
   -2   11    4     -1.01      0.00
   -3   11    6      1.80      0.00
   -4   11    8      1.88      0.00
   -5   11   10     -1.39      0.00
   -6   11   12     -0.33      0.00
    0   12    0      0.85      0.00
   -1   12    2      1.80      0.00
   -2   12    4     -3.27      0.00
   -3   12    6      1.66      0.00
   -4   12    8     -0.55      0.00
   -5   12   10     -2.05      0.00
   -6   12   12      0.00      0.00
   -1   13    2     -0.34      0.00
   -2   13    4     -0.45      0.00
   -3   13    6      2.29      0.00
   -4   13    8     -0.31      0.00
   -5   13   10     -1.18      0.00
   -6   13   12     -0.09      0.00
    0   14    0      0.48      0.00
   -1   14    2      0.61      0.00
   -2   14    4     -1.96      0.00
   -3   14    6     -0.38      0.00
   -4   14    8     -0.28      0.00
   -5   14   10     -0.32      0.00
   -1   15    2     -0.32      0.00
   -2   15    4     -0.12      0.00
   -3   15    6      0.56      0.00
   -4   15    8     -0.41      0.00
    0   16    0      0.85      0.00
   -1   16    2     -0.92      0.00
   -2   16    4     -0.35      0.00
   -3   16    6     -0.94      0.00
   -1   17    2     -1.14      0.00
   -2   17    4      0.46      0.00
   -8    1   17      0.17      0.00
   -7    1   15     -0.62      0.00
   -6    1   13     -1.17      0.00
   -5    1   11      1.36      0.00
   -4    1    9     -3.14      0.00
   -3    1    7      2.50      0.00
   -2    1    5      1.88      0.00
   -1    1    3     24.37      0.00
    0    1    1   -114.52      0.00
   -1    1    1     46.46      0.00
   -2    1    3      2.47      0.00
   -3    1    5      0.44      0.00
   -4    1    7     -4.87      0.00
   -5    1    9      3.26      0.00
   -6    1   11     -2.20      0.00
   -7    1   13      0.86      0.00
   -8    1   15      0.13      0.00
   -9    1   17      0.09      0.00
   -8    2   17      0.15      0.00
   -7    2   15      0.45      0.00
   -6    2   13     -1.17      0.00
   -5    2   11     -1.89      0.00
   -4    2    9      1.08      0.00
   -3    2    7      1.01      0.00
   -2    2    5     -1.91      0.00
   -1    2    3    -11.64      0.00
    0    2    1     38.32      0.00
   -1    2    1     45.59      0.00
   -2    2    3     -8.47      0.00
   -3    2    5     -3.93      0.00
   -4    2    7      2.46      0.00
   -5    2    9      0.16      0.00
   -6    2   11     -1.68      0.00
   -7    2   13     -0.62      0.00
   -8    2   15      2.43      0.00
   -9    2   17     -1.04      0.00
   -8    3   17     -0.54      0.00
   -7    3   15      1.38      0.00
   -6    3   13     -0.03      0.00
   -5    3   11     -1.06      0.00
   -4    3    9      0.36      0.00
   -3    3    7      0.85      0.00
   -2    3    5      7.31      0.00
   -1    3    3     -2.72      0.00
    0    3    1    -28.41      0.00
   -1    3    1      3.18      0.00
   -2    3    3     11.22      0.00
   -3    3    5     -2.10      0.00
   -4    3    7      0.76      0.00
   -5    3    9     -0.55      0.00
   -6    3   11      0.40      0.00
   -7    3   13     -0.16      0.00
   -8    3   15      0.41      0.00
   -9    3   17     -0.70      0.00
   -8    4   17      0.23      0.00
   -7    4   15      0.50      0.00
   -6    4   13     -2.92      0.00
   -5    4   11     -0.76      0.00
   -4    4    9     -0.35      0.00
   -3    4    7      1.68      0.00
   -2    4    5      1.43      0.00
   -1    4    3     -8.01      0.00
    0    4    1      8.81      0.00
   -1    4    1     12.97      0.00
   -2    4    3     -3.55      0.00
   -3    4    5     -3.84      0.00
   -4    4    7      3.52      0.00
   -5    4    9     -1.23      0.00
   -6    4   11     -1.45      0.00
   -7    4   13     -0.17      0.00
   -8    4   15      1.26      0.00
   -9    4   17     -0.65      0.00
   -8    5   17     -0.75      0.00
   -7    5   15      1.45      0.00
   -6    5   13     -0.07      0.00
   -5    5   11     -0.37      0.00
   -4    5    9      0.37      0.00
   -3    5    7      2.34      0.00
   -2    5    5     11.06      0.00
   -1    5    3    -14.22      0.00
    0    5    1      2.93      0.00
   -1    5    1     -1.39      0.00
   -2    5    3      8.59      0.00
   -3    5    5      1.44      0.00
   -4    5    7     -1.01      0.00
   -5    5    9     -1.68      0.00
   -6    5   11      2.00      0.00
   -7    5   13      0.13      0.00
   -8    5   15     -0.41      0.00
   -7    6   15     -0.55      0.00
   -6    6   13     -2.76      0.00
   -5    6   11      1.46      0.00
   -4    6    9     -0.89      0.00
   -3    6    7     -0.34      0.00
   -2    6    5      3.36      0.00
   -1    6    3     -2.41      0.00
    0    6    1     -2.28      0.00
   -1    6    1     -5.23      0.00
   -2    6    3      5.07      0.00
   -3    6    5     -3.36      0.00
   -4    6    7     -0.40      0.00
   -5    6    9      0.10      0.00
   -6    6   11     -3.90      0.00
   -7    6   13      1.70      0.00
   -8    6   15     -0.26      0.00
   -7    7   15     -0.28      0.00
   -6    7   13      1.70      0.00
   -5    7   11     -2.06      0.00
   -4    7    9     -0.18      0.00
   -3    7    7      2.27      0.00
   -2    7    5      4.97      0.00
   -1    7    3     -6.96      0.00
    0    7    1      1.29      0.00
   -1    7    1      2.60      0.00
   -2    7    3      1.31      0.00
   -3    7    5      2.99      0.00
   -4    7    7     -2.82      0.00
   -5    7    9     -0.54      0.00
   -6    7   11      0.39      0.00
   -7    7   13      0.08      0.00
   -8    7   15     -0.28      0.00
   -7    8   15     -0.58      0.00
   -6    8   13     -2.29      0.00
   -5    8   11      3.25      0.00
   -4    8    9     -3.12      0.00
   -3    8    7     -2.43      0.00
   -2    8    5      7.92      0.00
   -1    8    3     -2.60      0.00
    0    8    1     -2.33      0.00
   -1    8    1     -4.09      0.00
   -2    8    3      4.76      0.00
   -3    8    5     -1.43      0.00
   -4    8    7     -1.78      0.00
   -5    8    9     -0.82      0.00
   -6    8   11      0.22      0.00
   -7    8   13      0.48      0.00
   -8    8   15      0.05      0.00
   -7    9   15     -0.30      0.00
   -6    9   13      0.54      0.00
   -5    9   11      0.49      0.00
   -4    9    9     -0.99      0.00
   -3    9    7      0.16      0.00
   -2    9    5      0.59      0.00
   -1    9    3      0.10      0.00
    0    9    1     -3.84      0.00
   -1    9    1      3.81      0.00
   -2    9    3      1.53      0.00
   -3    9    5     -1.46      0.00
   -4    9    7     -2.19      0.00
   -5    9    9      0.06      0.00
   -6    9   11     -0.30      0.00
   -7    9   13     -0.47      0.00
   -8    9   15      1.32      0.00
   -6   10   13     -1.13      0.00
   -5   10   11      2.22      0.00
   -4   10    9     -3.60      0.00
   -3   10    7     -1.81      0.00
   -2   10    5      3.06      0.00
   -1   10    3     -3.81      0.00
    0   10    1      1.74      0.00
   -1   10    1     -0.67      0.00
   -2   10    3      1.17      0.00
   -3   10    5     -0.63      0.00
   -4   10    7     -1.78      0.00
   -5   10    9      1.11      0.00
   -6   10   11      1.05      0.00
   -7   10   13      0.48      0.00
   -6   11   13      1.08      0.00
   -5   11   11      1.97      0.00
   -4   11    9     -0.14      0.00
   -3   11    7     -1.43      0.00
   -2   11    5      2.42      0.00
   -1   11    3     -1.01      0.00
    0   11    1     -3.00      0.00
   -1   11    1     -0.18      0.00
   -2   11    3      4.17      0.00
   -3   11    5     -2.42      0.00
   -4   11    7      0.08      0.00
   -5   11    9      1.12      0.00
   -6   11   11     -0.17      0.00
   -7   11   13      0.38      0.00
   -6   12   13      0.53      0.00
   -5   12   11      0.84      0.00
   -4   12    9     -1.58      0.00
   -3   12    7     -1.70      0.00
   -2   12    5      0.32      0.00
   -1   12    3     -2.09      0.00
    0   12    1      1.13      0.00
   -1   12    1      0.66      0.00
   -2   12    3      0.12      0.00
   -3   12    5     -1.79      0.00
   -4   12    7      0.09      0.00
   -5   12    9      1.40      0.00
   -6   12   11     -0.18      0.00
   -7   12   13     -0.11      0.00
   -5   13   11      1.58      0.00
   -4   13    9     -0.04      0.00
   -3   13    7     -0.14      0.00
   -2   13    5      1.47      0.00
   -1   13    3     -0.87      0.00
    0   13    1     -0.84      0.00
   -1   13    1     -1.11      0.00
   -2   13    3      3.61      0.00
   -3   13    5     -1.30      0.00
   -4   13    7      0.84      0.00
   -5   13    9      0.53      0.00
   -6   13   11      0.35      0.00
   -5   14   11      0.75      0.00
   -4   14    9      0.37      0.00
   -3   14    7     -0.93      0.00
   -2   14    5     -0.72      0.00
   -1   14    3     -0.48      0.00
    0   14    1     -0.28      0.00
   -1   14    1      0.62      0.00
   -2   14    3      0.59      0.00
   -3   14    5     -1.44      0.00
   -4   14    7      0.55      0.00
   -5   14    9      1.68      0.00
   -4   15    9     -0.47      0.00
   -3   15    7      1.91      0.00
   -2   15    5     -0.21      0.00
   -1   15    3      0.39      0.00
    0   15    1     -0.48      0.00
   -1   15    1      0.56      0.00
   -2   15    3      1.80      0.00
   -3   15    5     -0.76      0.00
   -4   15    7      1.51      0.00
   -5   15    9     -1.36      0.00
   -3   16    7     -0.25      0.00
   -2   16    5     -1.24      0.00
   -1   16    3      0.72      0.00
    0   16    1      0.18      0.00
   -1   16    1      1.16      0.00
   -2   16    3      0.49      0.00
   -3   16    5      0.36      0.00
   -4   16    7     -0.69      0.00
   -2   17    5     -0.51      0.00
   -1   17    3      1.13      0.00
    0   17    1     -0.55      0.00
   -1   17    1      0.47      0.00
   -2   17    3      0.39      0.00
   -3   17    5      0.21      0.00
   -7    0   16     -0.44      0.00
   -6    0   14      1.51      0.00
   -5    0   12     -0.26      0.00
   -4    0   10      1.42      0.00
   -3    0    8     -3.60      0.00
   -2    0    6      2.59      0.00
   -1    0    4     -4.89      0.00
    0    0    2     58.79      0.00
   -2    0    2    -18.22      0.00
   -3    0    4     -3.94      0.00
   -4    0    6      7.99      0.00
   -5    0    8     -3.14      0.00
   -6    0   10      0.48      0.00
   -7    0   12     -0.32      0.00
   -8    0   14      1.78      0.00
   -9    0   16     -0.15      0.00
   -7    1   16     -0.92      0.00
   -6    1   14      1.04      0.00
   -5    1   12      1.43      0.00
   -4    1   10     -0.92      0.00
   -3    1    8     -0.48      0.00
   -2    1    6      3.04      0.00
   -1    1    4      5.34      0.00
    0    1    2    -28.55      0.00
    1    1    0     43.66      0.00
   -2    1    2     13.48      0.00
   -3    1    4      1.25      0.00
   -4    1    6     -0.30      0.00
   -5    1    8     -2.19      0.00
   -6    1   10      1.69      0.00
   -7    1   12     -0.91      0.00
   -8    1   14     -1.00      0.00
   -9    1   16      1.23      0.00
   -7    2   16     -0.63      0.00
   -6    2   14      1.01      0.00
   -5    2   12      0.50      0.00
   -4    2   10      0.68      0.00
   -3    2    8     -1.98      0.00
   -2    2    6     -3.56      0.00
   -1    2    4      0.94      0.00
    0    2    2     43.97      0.00
    1    2    0    -12.72      0.00
   -2    2    2    -14.69      0.00
   -3    2    4      5.02      0.00
   -4    2    6      1.19      0.00
   -5    2    8     -0.80      0.00
   -6    2   10      1.02      0.00
   -7    2   12     -0.62      0.00
   -8    2   14      0.15      0.00
   -9    2   16      0.45      0.00
   -7    3   16     -0.65      0.00
   -6    3   14      2.77      0.00
   -5    3   12      0.14      0.00
   -4    3   10      0.26      0.00
   -3    3    8     -2.40      0.00
   -2    3    6      1.53      0.00
   -1    3    4     12.66      0.00
    0    3    2    -26.27      0.00
    1    3    0     38.38      0.00
   -2    3    2     10.76      0.00
   -3    3    4      3.28      0.00
   -4    3    6     -4.51      0.00
   -5    3    8     -0.11      0.00
   -6    3   10      1.89      0.00
   -7    3   12     -0.88      0.00
   -8    3   14     -1.01      0.00
   -9    3   16      1.38      0.00
   -7    4   16     -0.73      0.00
   -6    4   14     -0.47      0.00
   -5    4   12      0.70      0.00
   -4    4   10     -0.01      0.00
   -3    4    8     -0.75      0.00
   -2    4    6     -8.61      0.00
   -1    4    4     11.38      0.00
    0    4    2      9.82      0.00
    1    4    0    -12.01      0.00
   -2    4    2     -3.04      0.00
   -3    4    4      4.95      0.00
   -4    4    6     -2.74      0.00
   -5    4    8      2.16      0.00
   -6    4   10     -1.87      0.00
   -7    4   12      0.56      0.00
   -8    4   14     -0.31      0.00
   -9    4   16      1.40      0.00
   -7    5   16      0.50      0.00
   -6    5   14      1.59      0.00
   -5    5   12     -0.46      0.00
   -4    5   10      0.78      0.00
   -3    5    8     -3.92      0.00
   -2    5    6      0.85      0.00
   -1    5    4      6.70      0.00
    0    5    2     -3.36      0.00
    1    5    0      0.95      0.00
   -2    5    2     -3.98      0.00
   -3    5    4      6.26      0.00
   -4    5    6     -3.26      0.00
   -5    5    8      2.06      0.00
   -6    5   10      1.36      0.00
   -7    5   12     -0.29      0.00
   -8    5   14     -0.79      0.00
   -9    5   16      0.70      0.00
   -7    6   16     -0.04      0.00
   -6    6   14     -1.22      0.00
   -5    6   12      0.02      0.00
   -4    6   10      1.27      0.00
   -3    6    8     -0.65      0.00
   -2    6    6     -7.98      0.00
   -1    6    4     11.20      0.00
    0    6    2     -0.85      0.00
    1    6    0     -6.90      0.00
   -2    6    2      0.52      0.00
   -3    6    4     -0.04      0.00
   -4    6    6      0.29      0.00
   -5    6    8     -0.02      0.00
   -6    6   10     -0.19      0.00
   -7    6   12      0.10      0.00
   -8    6   14      0.20      0.00
   -9    6   16      1.65      0.00
   -7    7   16      1.66      0.00
   -6    7   14      1.02      0.00
   -5    7   12     -2.14      0.00
   -4    7   10      2.33      0.00
   -3    7    8     -1.11      0.00
   -2    7    6     -3.31      0.00
   -1    7    4     -1.10      0.00
    0    7    2      4.90      0.00
    1    7    0     -5.57      0.00
   -2    7    2     -6.08      0.00
   -3    7    4      3.05      0.00
   -4    7    6      2.13      0.00
   -5    7    8      1.51      0.00
   -6    7   10     -0.38      0.00
   -7    7   12     -0.07      0.00
   -8    7   14      0.58      0.00
   -9    7   16     -0.94      0.00
   -6    8   14     -0.42      0.00
   -5    8   12     -0.06      0.00
   -4    8   10      1.29      0.00
   -3    8    8     -1.03      0.00
   -2    8    6     -2.03      0.00
   -1    8    4      4.90      0.00
    0    8    2     -0.78      0.00
    1    8    0     -4.40      0.00
   -2    8    2      1.25      0.00
   -3    8    4     -0.95      0.00
   -4    8    6      4.01      0.00
   -5    8    8     -1.09      0.00
   -6    8   10      1.04      0.00
   -7    8   12     -0.80      0.00
   -8    8   14      0.02      0.00
   -6    9   14      1.09      0.00
   -5    9   12     -2.29      0.00
   -4    9   10      4.40      0.00
   -3    9    8      0.14      0.00
   -2    9    6     -4.53      0.00
   -1    9    4      3.33      0.00
    0    9    2      0.47      0.00
    1    9    0     -2.02      0.00
   -2    9    2     -1.25      0.00
   -3    9    4     -1.23      0.00
   -4    9    6      2.88      0.00
   -5    9    8     -1.18      0.00
   -6    9   10     -1.46      0.00
   -7    9   12      0.12      0.00
   -8    9   14      0.19      0.00
   -6   10   14     -0.79      0.00
   -5   10   12     -0.84      0.00
   -4   10   10      0.00      0.00
   -3   10    8      0.57      0.00
   -2   10    6     -0.19      0.00
   -1   10    4      0.09      0.00
    0   10    2      2.40      0.00
    1   10    0     -2.28      0.00
   -2   10    2     -2.20      0.00
   -3   10    4      1.77      0.00
   -4   10    6      2.59      0.00
   -5   10    8     -0.74      0.00
   -6   10   10     -0.66      0.00
   -7   10   12      0.34      0.00
   -8   10   14     -1.25      0.00
   -6   11   14     -0.09      0.00
   -5   11   12     -0.72      0.00
   -4   11   10      3.16      0.00
   -3   11    8      1.08      0.00
   -2   11    6     -0.83      0.00
   -1   11    4      3.06      0.00
    0   11    2     -2.28      0.00
    1   11    0      1.06      0.00
   -2   11    2      0.76      0.00
   -3   11    4     -0.54      0.00
   -4   11    6      1.08      0.00
   -5   11    8     -1.76      0.00
   -6   11   10     -0.07      0.00
   -7   11   12     -0.23      0.00
   -5   12   12     -0.85      0.00
   -4   12   10     -0.28      0.00
   -3   12    8      0.31      0.00
   -2   12    6     -1.10      0.00
   -1   12    4      0.84      0.00
    0   12    2      2.32      0.00
    1   12    0     -0.01      0.00
   -2   12    2     -4.45      0.00
   -3   12    4      2.03      0.00
   -4   12    6      0.44      0.00
   -5   12    8     -1.44      0.00
   -6   12   10     -0.58      0.00
   -7   12   12     -0.33      0.00
   -5   13   12     -0.76      0.00
   -4   13   10      0.99      0.00
   -3   13    8      0.52      0.00
   -2   13    6      1.19      0.00
   -1   13    4      1.86      0.00
    0   13    2     -0.84      0.00
    1   13    0      0.27      0.00
   -2   13    2     -0.45      0.00
   -3   13    4      0.71      0.00
   -4   13    6      0.09      0.00
   -5   13    8     -1.51      0.00
   -6   13   10      1.67      0.00
   -4   14   10      0.40      0.00
   -3   14    8     -1.11      0.00
   -2   14    6      0.07      0.00
   -1   14    4     -0.59      0.00
    0   14    2      0.84      0.00
    1   14    0     -0.87      0.00
   -2   14    2     -1.52      0.00
   -3   14    4      1.64      0.00
   -4   14    6     -1.72      0.00
   -5   14    8      0.83      0.00
   -6   14   10     -0.41      0.00
   -3   15    8      0.37      0.00
   -2   15    6      2.33      0.00
   -1   15    4     -0.13      0.00
    0   15    2     -0.04      0.00
    1   15    0      0.94      0.00
   -2   15    2     -0.98      0.00
   -3   15    4      1.23      0.00
   -4   15    6      0.12      0.00
   -5   15    8     -0.99      0.00
   -3   16    8     -1.72      0.00
   -2   16    6      0.39      0.00
   -1   16    4     -0.73      0.00
    0   16    2      0.26      0.00
    1   16    0      0.20      0.00
   -2   16    2     -1.25      0.00
   -3   16    4      0.55      0.00
   -4   16    6     -0.96      0.00
   -1   17    4     -0.17      0.00
    0   17    2     -0.05      0.00
    1   17    0      0.95      0.00
   -2   17    2     -0.66      0.00
   -3   17    4      0.74      0.00
   -7    1   17      0.75      0.00
   -6    1   15     -1.89      0.00
   -5    1   13     -0.27      0.00
   -4    1   11      0.16      0.00
   -3    1    9      2.31      0.00
   -2    1    7     -2.54      0.00
   -1    1    5      0.17      0.00
    0    1    3    -18.42      0.00
    1    1    1    -22.15      0.00
   -2    1    1     37.76      0.00
   -3    1    3     -3.45      0.00
   -4    1    5     -6.83      0.00
   -5    1    7      1.56      0.00
   -6    1    9      1.00      0.00
   -7    1   11     -1.66      0.00
   -8    1   13     -1.23      0.00
   -9    1   15     -0.03      0.00
  -10    1   17      0.32      0.00
   -7    2   17      0.26      0.00
   -6    2   15     -1.19      0.00
   -5    2   13     -0.30      0.00
   -4    2   11     -0.18      0.00
   -3    2    9      1.22      0.00
   -2    2    7     -1.01      0.00
   -1    2    5     -7.18      0.00
    0    2    3     14.97      0.00
    1    2    1    -29.95      0.00
   -2    2    1     -8.53      0.00
   -3    2    3      1.96      0.00
   -4    2    5     -3.22      0.00
   -5    2    7      4.96      0.00
   -6    2    9     -2.26      0.00
   -7    2   11      1.80      0.00
   -8    2   13     -0.27      0.00
   -9    2   15     -1.11      0.00
  -10    2   17      0.90      0.00
   -7    3   17      0.16      0.00
   -6    3   15      0.28      0.00
   -5    3   13     -1.14      0.00
   -4    3   11     -0.69      0.00
   -3    3    9      1.93      0.00
   -2    3    7      4.18      0.00
   -1    3    5     -9.97      0.00
    0    3    3    -12.53      0.00
    1    3    1     14.41      0.00
   -2    3    1      2.72      0.00
   -3    3    3     -7.71      0.00
   -4    3    5      1.74      0.00
   -5    3    7     -0.48      0.00
   -6    3    9     -0.01      0.00
   -7    3   11      0.43      0.00
   -8    3   13     -0.94      0.00
   -9    3   15     -0.62      0.00
  -10    3   17     -0.14      0.00
   -7    4   17     -0.28      0.00
   -6    4   15     -0.90      0.00
   -5    4   13      0.64      0.00
   -4    4   11     -0.93      0.00
   -3    4    9      3.53      0.00
   -2    4    7     -2.76      0.00
   -1    4    5     -7.04      0.00
    0    4    3      7.95      0.00
    1    4    1    -11.30      0.00
   -2    4    1      2.48      0.00
   -3    4    3     -7.22      0.00
   -4    4    5      4.20      0.00
   -5    4    7     -1.53      0.00
   -6    4    9     -0.31      0.00
   -7    4   11      1.41      0.00
   -8    4   13     -0.13      0.00
   -9    4   15     -0.91      0.00
   -7    5   17     -0.33      0.00
   -6    5   15      1.96      0.00
   -5    5   13     -1.29      0.00
   -4    5   11     -1.68      0.00
   -3    5    9      0.36      0.00
   -2    5    7      6.46      0.00
   -1    5    5     -9.43      0.00
    0    5    3     -3.53      0.00
    1    5    1     12.12      0.00
   -2    5    1     -5.85      0.00
   -3    5    3     -2.99      0.00
   -4    5    5      4.51      0.00
   -5    5    7     -2.38      0.00
   -6    5    9      0.20      0.00
   -7    5   11     -0.10      0.00
   -8    5   13     -0.38      0.00
   -9    5   15     -1.46      0.00
   -6    6   15     -0.15      0.00
   -5    6   13      0.50      0.00
   -4    6   11     -0.54      0.00
   -3    6    9      3.40      0.00
   -2    6    7     -1.09      0.00
   -1    6    5      0.45      0.00
    0    6    3     -2.33      0.00
    1    6    1      1.40      0.00
   -2    6    1      6.46      0.00
   -3    6    3     -9.28      0.00
   -4    6    5      2.41      0.00
   -5    6    7     -3.62      0.00
   -6    6    9      2.74      0.00
   -7    6   11     -1.86      0.00
   -8    6   13      0.35      0.00
   -9    6   15     -0.11      0.00
   -6    7   15      0.79      0.00
   -5    7   13      0.21      0.00
   -4    7   11     -2.59      0.00
   -3    7    9      1.01      0.00
   -2    7    7      5.46      0.00
   -1    7    5     -9.80      0.00
    0    7    3      0.72      0.00
    1    7    1      6.71      0.00
   -2    7    1     -2.45      0.00
   -3    7    3     -1.05      0.00
   -4    7    5     -0.71      0.00
   -5    7    7      0.44      0.00
   -6    7    9     -0.82      0.00
   -7    7   11      1.09      0.00
   -8    7   13     -0.15      0.00
   -9    7   15     -1.27      0.00
   -6    8   15     -0.62      0.00
   -5    8   13      0.59      0.00
   -4    8   11     -1.23      0.00
   -3    8    9      0.71      0.00
   -2    8    7      1.02      0.00
   -1    8    5      1.80      0.00
    0    8    3     -3.22      0.00
    1    8    1      2.00      0.00
   -2    8    1      3.45      0.00
   -3    8    3     -1.74      0.00
   -4    8    5     -1.60      0.00
   -5    8    7     -0.21      0.00
   -6    8    9      1.05      0.00
   -7    8   11     -0.88      0.00
   -8    8   13     -0.35      0.00
   -9    8   15      1.47      0.00
   -6    9   15     -0.44      0.00
   -5    9   13      0.58      0.00
   -4    9   11     -0.52      0.00
   -3    9    9      0.17      0.00
   -2    9    7      0.86      0.00
   -1    9    5     -2.78      0.00
    0    9    3      1.17      0.00
    1    9    1      1.79      0.00
   -2    9    1      0.49      0.00
   -3    9    3     -1.15      0.00
   -4    9    5     -3.72      0.00
   -5    9    7      1.65      0.00
   -6    9    9      0.86      0.00
   -7    9   11     -0.78      0.00
   -8    9   13      0.61      0.00
   -9    9   15     -0.41      0.00
   -5   10   13     -0.91      0.00
   -4   10   11     -2.36      0.00
   -3   10    9     -0.36      0.00
   -2   10    7      1.35      0.00
   -1   10    5     -2.86      0.00
    0   10    3      1.09      0.00
    1   10    1      0.87      0.00
   -2   10    1     -0.44      0.00
   -3   10    3      3.03      0.00
   -4   10    5     -2.87      0.00
   -5   10    7      2.33      0.00
   -6   10    9      0.83      0.00
   -7   10   11      0.47      0.00
   -8   10   13     -0.18      0.00
   -5   11   13      0.63      0.00
   -4   11   11      0.42      0.00
   -3   11    9     -0.46      0.00
   -2   11    7      0.80      0.00
   -1   11    5     -0.70      0.00
    0   11    3     -1.87      0.00
    1   11    1      0.97      0.00
   -2   11    1      3.33      0.00
   -3   11    3     -1.82      0.00
   -4   11    5     -2.60      0.00
   -5   11    7      2.97      0.00
   -6   11    9      0.09      0.00
   -7   11   11     -0.56      0.00
   -8   11   13      0.40      0.00
   -5   12   13     -0.05      0.00
   -4   12   11     -1.95      0.00
   -3   12    9     -0.05      0.00
   -2   12    7     -0.95      0.00
   -1   12    5     -1.60      0.00
    0   12    3      1.53      0.00
    1   12    1      0.20      0.00
   -2   12    1      0.51      0.00
   -3   12    3      0.56      0.00
   -4   12    5     -1.69      0.00
   -5   12    7      1.91      0.00
   -6   12    9     -0.81      0.00
   -7   12   11     -0.34      0.00
   -4   13   11      0.16      0.00
   -3   13    9      0.91      0.00
   -2   13    7     -0.25      0.00
   -1   13    5      0.59      0.00
    0   13    3     -1.28      0.00
    1   13    1      1.11      0.00
   -2   13    1      1.42      0.00
   -3   13    3     -1.25      0.00
   -4   13    5     -0.01      0.00
   -5   13    7      1.40      0.00
   -6   13    9     -0.25      0.00
   -7   13   11      0.70      0.00
   -4   14   11     -0.42      0.00
   -3   14    9      0.04      0.00
   -2   14    7     -1.97      0.00
   -1   14    5     -0.74      0.00
    0   14    3      0.55      0.00
    1   14    1     -0.21      0.00
   -2   14    1      1.22      0.00
   -3   14    3     -1.88      0.00
   -4   14    5     -0.38      0.00
   -5   14    7      0.97      0.00
   -6   14    9     -2.02      0.00
   -3   15    9      0.95      0.00
   -2   15    7      0.42      0.00
   -1   15    5      0.86      0.00
    0   15    3     -0.75      0.00
    1   15    1      0.35      0.00
   -2   15    1      0.60      0.00
   -3   15    3     -0.78      0.00
   -4   15    5      0.55      0.00
   -5   15    7     -0.49      0.00
   -6   15    9     -0.14      0.00
   -2   16    7     -1.50      0.00
   -1   16    5     -0.37      0.00
    0   16    3      0.22      0.00
    1   16    1     -0.42      0.00
   -2   16    1      0.81      0.00
   -3   16    3     -2.20      0.00
   -4   16    5      1.01      0.00
   -5   16    7     -0.72      0.00
   -1   17    5     -1.12      0.00
    0   17    3      0.20      0.00
    1   17    1      0.06      0.00
   -2   17    1      0.29      0.00
   -3   17    3      0.04      0.00
   -4   17    5     -0.53      0.00
   -6    0   16      1.22      0.00
   -5    0   14      0.18      0.00
   -4    0   12     -0.95      0.00
   -3    0   10     -1.70      0.00
   -2    0    8      1.98      0.00
   -1    0    6     -3.22      0.00
    0    0    4      8.12      0.00
    1    0    2     31.32      0.00
    2    0    0    -51.98      0.00
   -3    0    2     12.00      0.00
   -4    0    4      4.27      0.00
   -5    0    6      0.69      0.00
   -6    0    8     -2.84      0.00
   -7    0   10      3.54      0.00
   -8    0   12      0.33      0.00
   -9    0   14     -0.07      0.00
  -10    0   16      0.18      0.00
   -6    1   16     -0.21      0.00
   -5    1   14      0.01      0.00
   -4    1   12      0.70      0.00
   -3    1   10     -1.05      0.00
   -2    1    8     -0.97      0.00
   -1    1    6      6.20      0.00
    0    1    4     -3.00      0.00
    1    1    2      1.46      0.00
    2    1    0      6.23      0.00
   -3    1    2     -2.61      0.00
   -4    1    4      8.61      0.00
   -5    1    6     -6.10      0.00
   -6    1    8      1.55      0.00
   -7    1   10     -0.62      0.00
   -8    1   12      0.04      0.00
   -9    1   14      0.26      0.00
  -10    1   16     -1.26      0.00
   -6    2   16      0.51      0.00
   -5    2   14      0.78      0.00
   -4    2   12     -0.15      0.00
   -3    2   10     -1.93      0.00
   -2    2    8      0.25      0.00
   -1    2    6      3.15      0.00
    0    2    4      5.04      0.00
    1    2    2      6.78      0.00
    2    2    0    -20.85      0.00
   -3    2    2      8.28      0.00
   -4    2    4      4.24      0.00
   -5    2    6     -3.12      0.00
   -6    2    8      0.39      0.00
   -7    2   10      1.72      0.00
   -8    2   12      0.51      0.00
   -9    2   14      0.53      0.00
  -10    2   16     -0.29      0.00
   -6    3   16     -0.90      0.00
   -5    3   14      0.51      0.00
   -4    3   12      0.68      0.00
   -3    3   10     -1.92      0.00
   -2    3    8      0.61      0.00
   -1    3    6      7.08      0.00
    0    3    4     -5.32      0.00
    1    3    2      7.69      0.00
    2    3    0      8.17      0.00
   -3    3    2      5.59      0.00
   -4    3    4      5.00      0.00
   -5    3    6     -6.17      0.00
   -6    3    8      1.22      0.00
   -7    3   10     -1.79      0.00
   -8    3   12      0.40      0.00
   -9    3   14      0.67      0.00
  -10    3   16     -0.41      0.00
   -6    4   16     -1.05      0.00
   -5    4   14      2.39      0.00
   -4    4   12      0.76      0.00
   -3    4   10     -1.31      0.00
   -2    4    8     -2.73      0.00
   -1    4    6      7.02      0.00
    0    4    4      2.88      0.00
    1    4    2     -8.44      0.00
    2    4    0      3.59      0.00
   -3    4    2      3.29      0.00
   -4    4    4      0.00      0.00
   -5    4    6     -0.53      0.00
   -6    4    8      2.53      0.00
   -7    4   10     -1.39      0.00
   -8    4   12      1.62      0.00
   -9    4   14     -0.22      0.00
  -10    4   16      0.10      0.00
   -6    5   16     -0.46      0.00
   -5    5   14     -0.22      0.00
   -4    5   12      0.23      0.00
   -3    5   10     -2.45      0.00
   -2    5    8      1.01      0.00
   -1    5    6      1.66      0.00
    0    5    4      1.99      0.00
    1    5    2      1.68      0.00
    2    5    0      4.12      0.00
   -3    5    2     10.43      0.00
   -4    5    4     -3.60      0.00
   -5    5    6      2.00      0.00
   -6    5    8     -3.29      0.00
   -7    5   10      1.27      0.00
   -8    5   12      0.84      0.00
   -9    5   14     -0.32      0.00
  -10    5   16      0.80      0.00
   -6    6   16     -1.31      0.00
   -5    6   14      1.41      0.00
   -4    6   12      1.54      0.00
   -3    6   10     -0.58      0.00
   -2    6    8     -4.61      0.00
   -1    6    6      8.86      0.00
    0    6    4      2.05      0.00
    1    6    2     -8.13      0.00
    2    6    0      3.90      0.00
   -3    6    2      2.38      0.00
   -4    6    4     -2.61      0.00
   -5    6    6      2.08      0.00
   -6    6    8     -0.18      0.00
   -7    6   10     -1.08      0.00
   -8    6   12      0.88      0.00
   -9    6   14      0.80      0.00
  -10    6   16     -0.56      0.00
   -6    7   16      0.77      0.00
   -5    7   14      0.21      0.00
   -4    7   12     -1.43      0.00
   -3    7   10     -0.38      0.00
   -2    7    8      1.06      0.00
   -1    7    6     -2.56      0.00
    0    7    4      2.02      0.00
    1    7    2      2.70      0.00
    2    7    0      2.78      0.00
   -3    7    2      7.52      0.00
   -4    7    4     -2.61      0.00
   -5    7    6      3.27      0.00
   -6    7    8     -2.71      0.00
   -7    7   10      2.56      0.00
   -8    7   12     -0.55      0.00
   -9    7   14     -0.26      0.00
   -5    8   14      0.07      0.00
   -4    8   12      0.70      0.00
   -3    8   10     -0.82      0.00
   -2    8    8     -2.47      0.00
   -1    8    6      7.39      0.00
    0    8    4     -2.76      0.00
    1    8    2     -3.60      0.00
    2    8    0      0.23      0.00
   -3    8    2      4.68      0.00
   -4    8    4     -1.22      0.00
   -5    8    6      0.10      0.00
   -6    8    8     -1.56      0.00
   -7    8   10      0.81      0.00
   -8    8   12     -1.07      0.00
   -9    8   14      0.86      0.00
   -5    9   14      1.24      0.00
   -4    9   12     -0.37      0.00
   -3    9   10      1.91      0.00
   -2    9    8     -0.65      0.00
   -1    9    6     -1.43      0.00
    0    9    4      1.89      0.00
    1    9    2      0.15      0.00
    2    9    0      0.71      0.00
   -3    9    2     -1.03      0.00
   -4    9    4      1.87      0.00
   -5    9    6     -0.60      0.00
   -6    9    8     -1.53      0.00
   -7    9   10      0.20      0.00
   -8    9   12      0.55      0.00
   -9    9   14     -1.60      0.00
   -5   10   14     -0.75      0.00
   -4   10   12      0.38      0.00
   -3   10   10     -0.91      0.00
   -2   10    8     -0.63      0.00
   -1   10    6      1.95      0.00
    0   10    4      0.02      0.00
    1   10    2     -0.78      0.00
    2   10    0     -2.08      0.00
   -3   10    2      1.93      0.00
   -4   10    4      2.15      0.00
   -5   10    6     -2.63      0.00
   -6   10    8      0.13      0.00
   -7   10   10      1.43      0.00
   -8   10   12     -0.63      0.00
   -9   10   14     -0.84      0.00
   -5   11   14      2.01      0.00
   -4   11   12      0.66      0.00
   -3   11   10      0.24      0.00
   -2   11    8      0.58      0.00
   -1   11    6      1.18      0.00
    0   11    4     -1.42      0.00
    1   11    2     -1.00      0.00
    2   11    0      0.89      0.00
   -3   11    2     -1.77      0.00
   -4   11    4      2.83      0.00
   -5   11    6     -2.68      0.00
   -6   11    8     -1.05      0.00
   -7   11   10      0.90      0.00
   -8   11   12     -0.72      0.00
   -4   12   12      0.37      0.00
   -3   12   10     -1.07      0.00
   -1   12    6      0.24      0.00
    0   12    4      1.13      0.00
    1   12    2     -1.09      0.00
    2   12    0     -1.26      0.00
   -3   12    2      0.40      0.00
   -4   12    4      1.67      0.00
   -5   12    6     -2.95      0.00
   -6   12    8      1.17      0.00
   -7   12   10     -0.42      0.00
   -8   12   12     -0.04      0.00
   -4   13   12      0.49      0.00
   -3   13   10     -0.20      0.00
   -2   13    8      1.03      0.00
   -1   13    6      0.29      0.00
    0   13    4     -0.15      0.00
    1   13    2     -0.86      0.00
    2   13    0      1.98      0.00
   -3   13    2      2.26      0.00
   -4   13    4      1.10      0.00
   -5   13    6     -1.61      0.00
   -6   13    8      1.26      0.00
   -7   13   10      1.05      0.00
   -3   14   10     -0.74      0.00
   -2   14    8      0.00      0.00
   -1   14    6     -1.36      0.00
    0   14    4      0.58      0.00
    1   14    2     -0.14      0.00
    2   14    0     -0.63      0.00
   -3   14    2      0.48      0.00
   -4   14    4      0.89      0.00
   -5   14    6     -1.94      0.00
   -6   14    8      1.02      0.00
   -7   14   10     -1.10      0.00
   -2   15    8      0.97      0.00
   -1   15    6      1.32      0.00
    0   15    4     -1.06      0.00
    1   15    2      0.14      0.00
    2   15    0      0.15      0.00
   -3   15    2      2.40      0.00
   -4   15    4     -0.78      0.00
   -5   15    6      0.27      0.00
   -6   15    8      1.36      0.00
   -1   16    6      0.79      0.00
    0   16    4     -0.06      0.00
    1   16    2     -0.42      0.00
    2   16    0      0.08      0.00
   -3   16    2      0.76      0.00
   -4   16    4     -0.15      0.00
   -5   16    6     -0.13      0.00
    0   17    4     -0.42      0.00
    1   17    2     -0.59      0.00
    2   17    0      1.24      0.00
   -3   17    2      1.94      0.00
   -4   17    4     -1.06      0.00
   -6    1   17      0.08      0.00
   -5    1   15     -0.74      0.00
   -4    1   13      0.73      0.00
   -3    1   11      1.98      0.00
   -2    1    9     -0.23      0.00
   -1    1    7     -1.06      0.00
    0    1    5     -1.34      0.00
    1    1    3    -11.63      0.00
    2    1    1     29.87      0.00
   -3    1    1    -15.21      0.00
   -4    1    3      2.25      0.00
   -5    1    5     -1.16      0.00
   -6    1    7      1.41      0.00
   -7    1    9     -2.59      0.00
   -8    1   11      0.47      0.00
   -9    1   13     -0.16      0.00
  -10    1   15     -0.12      0.00
  -11    1   17      0.04      0.00
   -6    2   17      1.07      0.00
   -5    2   15     -0.50      0.00
   -4    2   13     -0.47      0.00
   -3    2   11      1.50      0.00
   -2    2    9      0.84      0.00
   -1    2    7     -7.98      0.00
    0    2    5      5.92      0.00
    1    2    3     -1.08      0.00
    2    2    1    -14.32      0.00
   -3    2    1     -6.01      0.00
   -4    2    3    -10.07      0.00
   -5    2    5      9.25      0.00
   -6    2    7     -1.59      0.00
   -7    2    9      0.98      0.00
   -8    2   11      0.46      0.00
   -9    2   13     -0.59      0.00
  -10    2   15      1.33      0.00
  -11    2   17     -0.64      0.00
   -6    3   17      0.00      0.00
   -5    3   15     -1.42      0.00
   -4    3   13      0.50      0.00
   -3    3   11      0.88      0.00
   -2    3    9      0.32      0.00
   -1    3    7     -2.18      0.00
    0    3    5     -3.23      0.00
    1    3    3      1.33      0.00
    2    3    1      8.38      0.00
   -3    3    1     -7.11      0.00
   -4    3    3     -7.01      0.00
   -5    3    5      7.68      0.00
   -6    3    7     -5.63      0.00
   -7    3    9      1.32      0.00
   -8    3   11     -0.28      0.00
   -9    3   13     -0.35      0.00
  -10    3   15      0.54      0.00
   -6    4   17      1.66      0.00
   -5    4   15     -1.01      0.00
   -4    4   13      0.04      0.00
   -3    4   11      1.12      0.00
   -2    4    9      1.00      0.00
   -1    4    7     -4.74      0.00
    0    4    5      0.35      0.00
    1    4    3     -2.88      0.00
    2    4    1     -4.77      0.00
   -3    4    1     -9.73      0.00
   -4    4    3     -2.67      0.00
   -5    4    5      7.71      0.00
   -6    4    7     -0.81      0.00
   -7    4    9      0.22      0.00
   -8    4   11     -0.44      0.00
   -9    4   13     -0.17      0.00
  -10    4   15     -0.56      0.00
   -6    5   17      0.15      0.00
   -5    5   15     -1.66      0.00
   -4    5   13      0.13      0.00
   -3    5   11      0.42      0.00
   -2    5    9      1.76      0.00
   -1    5    7     -6.34      0.00
    0    5    5     -3.03      0.00
    1    5    3      6.59      0.00
    2    5    1     -0.54      0.00
   -3    5    1     -3.69      0.00
   -4    5    3     -2.48      0.00
   -5    5    5      2.22      0.00
   -6    5    7     -2.90      0.00
   -7    5    9      2.61      0.00
   -8    5   11     -1.74      0.00
   -9    5   13      0.78      0.00
  -10    5   15     -0.78      0.00
   -5    6   15     -0.19      0.00
   -4    6   13      1.44      0.00
   -3    6   11     -0.27      0.00
   -2    6    9     -0.72      0.00
   -1    6    7     -0.45      0.00
    0    6    5     -0.41      0.00
    1    6    3     -3.67      0.00
    2    6    1     -0.50      0.00
   -3    6    1     -7.01      0.00
   -4    6    3      0.59      0.00
   -5    6    5     -0.06      0.00
   -6    6    7      1.79      0.00
   -7    6    9     -2.04      0.00
   -8    6   11     -0.14      0.00
   -9    6   13      0.63      0.00
  -10    6   15     -0.25      0.00
   -5    7   15     -0.70      0.00
   -4    7   13      0.34      0.00
   -3    7   11     -0.48      0.00
   -2    7    9      2.34      0.00
   -1    7    7     -6.20      0.00
    0    7    5      0.14      0.00
    1    7    3      4.94      0.00
    2    7    1     -0.35      0.00
   -3    7    1     -6.39      0.00
   -4    7    3      5.04      0.00
   -5    7    5     -2.07      0.00
   -6    7    7      2.31      0.00
   -7    7    9     -0.65      0.00
   -8    7   11      0.32      0.00
   -9    7   13     -0.11      0.00
  -10    7   15      0.24      0.00
   -5    8   15     -0.54      0.00
   -4    8   13      1.42      0.00
   -3    8   11     -2.08      0.00
   -2    8    9     -0.04      0.00
   -1    8    7      2.73      0.00
    0    8    5     -2.62      0.00
    1    8    3     -4.29      0.00
    2    8    1      0.91      0.00
   -3    8    1     -2.80      0.00
   -4    8    3     -0.39      0.00
   -5    8    5     -0.82      0.00
   -6    8    7      2.46      0.00
   -7    8    9     -1.77      0.00
   -8    8   11     -0.52      0.00
   -9    8   13      0.61      0.00
  -10    8   15      1.44      0.00
   -5    9   15     -0.17      0.00
   -4    9   13      0.26      0.00
   -3    9   11      1.55      0.00
   -2    9    9      0.34      0.00
   -1    9    7     -4.10      0.00
    0    9    5      1.75      0.00
    1    9    3      3.16      0.00
    2    9    1     -0.46      0.00
   -3    9    1     -4.36      0.00
   -4    9    3      2.85      0.00
   -5    9    5     -0.99      0.00
   -6    9    7      1.06      0.00
   -7    9    9     -0.68      0.00
   -8    9   11      1.36      0.00
   -9    9   13     -0.04      0.00
   -4   10   13      0.20      0.00
   -3   10   11     -1.35      0.00
   -2   10    9      0.38      0.00
   -1   10    7      0.40      0.00
    0   10    5     -1.05      0.00
    1   10    3      0.09      0.00
    2   10    1     -0.25      0.00
   -3   10    1      0.74      0.00
   -4   10    3     -1.01      0.00
   -5   10    5      1.58      0.00
   -6   10    7      1.90      0.00
   -7   10    9     -1.77      0.00
   -8   10   11      0.94      0.00
   -9   10   13      0.02      0.00
   -4   11   13     -0.49      0.00
   -3   11   11      2.03      0.00
   -2   11    9     -0.86      0.00
   -1   11    7     -0.67      0.00
    0   11    5     -0.65      0.00
    1   11    3      1.18      0.00
    2   11    1      0.53      0.00
   -3   11    1      0.45      0.00
   -4   11    3     -1.93      0.00
   -5   11    5      1.76      0.00
   -6   11    7     -0.45      0.00
   -7   11    9     -0.69      0.00
   -8   11   11     -0.40      0.00
   -9   11   13      0.91      0.00
   -4   12   13      0.56      0.00
   -3   12   11     -0.50      0.00
   -2   12    9     -0.29      0.00
   -1   12    7      0.18      0.00
    0   12    5     -0.12      0.00
    1   12    3      0.53      0.00
    2   12    1     -1.49      0.00
   -3   12    1     -1.24      0.00
   -4   12    3     -1.57      0.00
   -5   12    5      2.67      0.00
   -6   12    7      0.09      0.00
   -7   12    9     -1.51      0.00
   -8   12   11      1.26      0.00
   -3   13   11      1.27      0.00
   -2   13    9     -0.37      0.00
   -1   13    7      0.51      0.00
    0   13    5     -0.26      0.00
    1   13    3      0.48      0.00
    2   13    1      0.57      0.00
   -3   13    1     -0.20      0.00
   -4   13    3     -1.60      0.00
   -5   13    5      3.14      0.00
   -6   13    7     -1.11      0.00
   -7   13    9      0.15      0.00
   -8   13   11      0.21      0.00
   -2   14    9     -0.27      0.00
   -1   14    7     -0.75      0.00
    0   14    5      0.44      0.00
    1   14    3      0.17      0.00
    2   14    1     -0.24      0.00
   -3   14    1     -2.18      0.00
   -4   14    3     -0.37      0.00
   -5   14    5      0.84      0.00
   -6   14    7     -0.75      0.00
   -7   14    9     -0.78      0.00
   -2   15    9      0.41      0.00
   -1   15    7      0.72      0.00
    0   15    5      0.18      0.00
    1   15    3     -0.56      0.00
    2   15    1      0.28      0.00
   -3   15    1     -1.02      0.00
   -4   15    3      0.46      0.00
   -5   15    5      1.18      0.00
   -6   15    7     -0.69      0.00
   -1   16    7     -1.22      0.00
    0   16    5      1.52      0.00
    1   16    3      0.12      0.00
    2   16    1     -0.23      0.00
   -3   16    1     -2.08      0.00
   -4   16    3      0.66      0.00
   -5   16    5     -0.12      0.00
   -6   16    7     -0.34      0.00
    0   17    5     -0.79      0.00
    1   17    3      0.48      0.00
    2   17    1     -0.02      0.00
   -3   17    1     -0.59      0.00
   -4   17    3      0.43      0.00
   -5    0   16      0.60      0.00
   -4    0   14     -0.21      0.00
   -3    0   12     -2.70      0.00
   -2    0   10      1.34      0.00
   -1    0    8      2.96      0.00
    0    0    6     -6.11      0.00
    1    0    4      5.67      0.00
    3    0    0     15.45      0.00
   -4    0    2    -12.74      0.00
   -5    0    4      6.93      0.00
   -6    0    6     -2.75      0.00
   -7    0    8      2.01      0.00
   -8    0   10     -1.52      0.00
   -9    0   12      0.10      0.00
  -10    0   14      0.62      0.00
  -11    0   16     -0.83      0.00
   -5    1   16     -0.34      0.00
   -4    1   14      0.09      0.00
   -3    1   12     -0.21      0.00
   -2    1   10     -0.63      0.00
   -1    1    8      2.67      0.00
    0    1    6     -2.50      0.00
    1    1    4      0.69      0.00
    2    1    2      7.39      0.00
    3    1    0     -5.74      0.00
   -4    1    2      2.09      0.00
   -5    1    4     -1.54      0.00
   -6    1    6     -0.96      0.00
   -7    1    8     -0.19      0.00
   -8    1   10     -0.21      0.00
   -9    1   12     -0.11      0.00
  -10    1   14     -0.29      0.00
  -11    1   16     -0.18      0.00
   -5    2   16      1.20      0.00
   -4    2   14     -0.76      0.00
   -3    2   12     -1.07      0.00
   -2    2   10      0.23      0.00
   -1    2    8      1.68      0.00
    0    2    6     -0.92      0.00
    1    2    4      1.76      0.00
    2    2    2    -12.80      0.00
    3    2    0     11.71      0.00
   -4    2    2     -0.08      0.00
   -5    2    4     -3.05      0.00
   -6    2    6      2.90      0.00
   -7    2    8     -1.27      0.00
   -8    2   10     -0.22      0.00
   -9    2   12     -0.04      0.00
  -10    2   14      0.00      0.00
  -11    2   16      1.55      0.00
   -5    3   16      0.59      0.00
   -4    3   14     -0.34      0.00
   -3    3   12     -0.66      0.00
   -2    3   10     -1.82      0.00
   -1    3    8      5.68      0.00
    0    3    6     -2.82      0.00
    1    3    4      2.85      0.00
    2    3    2      4.54      0.00
    3    3    0     -8.79      0.00
   -4    3    2      3.22      0.00
   -5    3    4     -9.46      0.00
   -6    3    6      2.92      0.00
   -7    3    8     -1.04      0.00
   -8    3   10     -0.34      0.00
   -9    3   12      0.75      0.00
  -10    3   14     -1.31      0.00
  -11    3   16     -0.23      0.00
   -5    4   16      0.28      0.00
   -4    4   14     -0.39      0.00
   -3    4   12     -0.08      0.00
   -2    4   10      0.49      0.00
   -1    4    8      2.87      0.00
    0    4    6      3.81      0.00
    1    4    4     -8.35      0.00
    2    4    2     -1.50      0.00
    3    4    0      8.65      0.00
   -4    4    2      5.17      0.00
   -5    4    4     -8.69      0.00
   -6    4    6      6.70      0.00
   -7    4    8     -3.70      0.00
   -8    4   10      0.85      0.00
   -9    4   12      0.52      0.00
  -10    4   14      0.38      0.00
  -11    4   16      0.83      0.00
   -5    5   16      1.13      0.00
   -4    5   14     -0.97      0.00
   -3    5   12      0.52      0.00
   -2    5   10     -0.52      0.00
   -1    5    8      2.25      0.00
    0    5    6     -1.55      0.00
    1    5    4      4.92      0.00
    2    5    2     -1.11      0.00
    3    5    0     -6.95      0.00
   -4    5    2      3.76      0.00
   -5    5    4    -10.27      0.00
   -6    5    6      4.62      0.00
   -7    5    8     -1.70      0.00
   -8    5   10      0.16      0.00
   -9    5   12      0.57      0.00
  -10    5   14     -0.28      0.00
  -11    5   16     -1.31      0.00
   -5    6   16      0.23      0.00
   -4    6   14     -0.86      0.00
   -3    6   12      0.87      0.00
   -2    6   10     -0.82      0.00
   -1    6    8      4.10      0.00
    0    6    6      2.04      0.00
    1    6    4     -6.16      0.00
    2    6    2     -0.68      0.00
    3    6    0      7.28      0.00
   -4    6    2     -3.19      0.00
   -5    6    4     -0.78      0.00
   -6    6    6      1.16      0.00
   -7    6    8     -1.47      0.00
   -8    6   10      0.67      0.00
   -9    6   12     -0.85      0.00
  -10    6   14      1.60      0.00
   -5    7   16      0.59      0.00
   -4    7   14     -1.14      0.00
   -3    7   12      1.57      0.00
   -2    7   10      0.76      0.00
   -1    7    8     -1.43      0.00
    0    7    6      1.14      0.00
    1    7    4      4.76      0.00
    2    7    2     -1.44      0.00
    3    7    0     -3.57      0.00
   -4    7    2      4.33      0.00
   -5    7    4     -4.49      0.00
   -6    7    6      0.32      0.00
   -7    7    8      1.73      0.00
   -8    7   10      0.57      0.00
   -9    7   12     -1.06      0.00
  -10    7   14     -0.55      0.00
   -4    8   14     -0.69      0.00
   -3    8   12     -0.27      0.00
   -2    8   10     -1.46      0.00
   -1    8    8      3.41      0.00
    0    8    6      0.78      0.00
    1    8    4     -6.17      0.00
    2    8    2      1.72      0.00
    3    8    0      5.76      0.00
   -4    8    2     -5.86      0.00
   -5    8    4      2.50      0.00
   -6    8    6     -2.05      0.00
   -7    8    8      0.03      0.00
   -8    8   10     -0.78      0.00
   -9    8   12      0.00      0.00
  -10    8   14     -0.06      0.00
   -4    9   14     -0.53      0.00
   -3    9   12      0.61      0.00
   -2    9   10      0.84      0.00
   -1    9    8     -1.17      0.00
    0    9    6      2.30      0.00
    1    9    4      1.63      0.00
    2    9    2     -1.38      0.00
    3    9    0     -1.90      0.00
   -4    9    2     -1.18      0.00
   -5    9    4     -0.70      0.00
   -6    9    6     -0.98      0.00
   -7    9    8      2.13      0.00
   -8    9   10     -0.28      0.00
   -9    9   12      0.54      0.00
  -10    9   14     -2.00      0.00
   -4   10   14     -1.03      0.00
   -3   10   12     -1.17      0.00
   -2   10   10      0.94      0.00
   -1   10    8      1.11      0.00
    0   10    6     -0.92      0.00
    1   10    4     -2.07      0.00
    2   10    2      1.72      0.00
    3   10    0      0.30      0.00
   -4   10    2     -0.34      0.00
   -5   10    4      1.14      0.00
   -6   10    6     -1.46      0.00
   -7   10    8      0.36      0.00
   -8   10   10      0.84      0.00
   -9   10   12     -0.87      0.00
   -3   11   12      0.51      0.00
   -2   11   10     -0.53      0.00
   -1   11    8      0.34      0.00
    0   11    6      0.89      0.00
    1   11    4     -0.31      0.00
    2   11    2     -0.02      0.00
    3   11    0      0.34      0.00
   -4   11    2      0.45      0.00
   -5   11    4     -2.06      0.00
   -6   11    6     -0.14      0.00
   -7   11    8      0.80      0.00
   -8   11   10     -1.19      0.00
   -9   11   12      0.49      0.00
   -3   12   12     -1.23      0.00
   -2   12   10      1.03      0.00
   -1   12    8     -0.53      0.00
    0   12    6      0.35      0.00
    1   12    4     -0.62      0.00
    2   12    2      0.26      0.00
    3   12    0     -0.83      0.00
   -4   12    2      1.72      0.00
   -5   12    4     -2.31      0.00
   -6   12    6      0.48      0.00
   -7   12    8      1.55      0.00
   -8   12   10     -0.08      0.00
   -9   12   12      0.15      0.00
   -3   13   12      0.67      0.00
   -2   13   10     -0.11      0.00
   -1   13    8     -0.26      0.00
    0   13    6      0.88      0.00
    1   13    4      0.95      0.00
    2   13    2     -1.01      0.00
    3   13    0     -0.83      0.00
   -4   13    2      1.47      0.00
   -5   13    4     -2.59      0.00
   -6   13    6      0.02      0.00
   -7   13    8      0.66      0.00
   -8   13   10     -1.17      0.00
   -2   14   10      0.76      0.00
   -1   14    8     -0.99      0.00
    0   14    6     -0.70      0.00
    1   14    4      0.85      0.00
    2   14    2     -0.07      0.00
    3   14    0      0.98      0.00
   -4   14    2     -0.45      0.00
   -5   14    4     -1.97      0.00
   -6   14    6      0.30      0.00
   -7   14    8      0.05      0.00
   -8   14   10     -0.34      0.00
   -1   15    8      0.71      0.00
    0   15    6     -0.84      0.00
    1   15    4      0.30      0.00
    2   15    2     -0.45      0.00
    3   15    0     -1.76      0.00
   -4   15    2      0.74      0.00
   -5   15    4     -1.84      0.00
   -6   15    6     -0.04      0.00
   -7   15    8      0.75      0.00
    0   16    6      0.85      0.00
    1   16    4     -0.19      0.00
    2   16    2     -0.21      0.00
    3   16    0      0.50      0.00
   -4   16    2     -0.74      0.00
   -5   16    4     -0.18      0.00
   -6   16    6      0.02      0.00
    1   17    4     -0.17      0.00
    2   17    2     -0.21      0.00
    3   17    0     -1.41      0.00
   -4   17    2     -0.89      0.00
   -5    1   17     -0.53      0.00
   -4    1   15     -0.39      0.00
   -3    1   13      1.75      0.00
   -2    1   11     -2.23      0.00
   -1    1    9     -0.81      0.00
    0    1    7      6.18      0.00
    1    1    5     -1.69      0.00
    2    1    3      5.46      0.00
    3    1    1     -7.42      0.00
   -4    1    1      9.35      0.00
   -5    1    3     -4.30      0.00
   -6    1    5      1.58      0.00
   -7    1    7      0.02      0.00
   -8    1    9      1.37      0.00
   -9    1   11     -0.30      0.00
  -10    1   13     -0.69      0.00
  -11    1   15      0.42      0.00
   -5    2   17      0.48      0.00
   -4    2   15     -0.12      0.00
   -3    2   13     -0.26      0.00
   -2    2   11      2.27      0.00
   -1    2    9     -2.62      0.00
    0    2    7      0.08      0.00
    1    2    5      1.32      0.00
    2    2    3     -4.67      0.00
    3    2    1      7.91      0.00
   -4    2    1      3.42      0.00
   -5    2    3     -1.07      0.00
   -6    2    5      1.48      0.00
   -7    2    7      0.03      0.00
   -8    2    9      0.80      0.00
   -9    2   11     -0.34      0.00
  -10    2   13      0.54      0.00
  -11    2   15      0.42      0.00
   -5    3   17     -0.54      0.00
   -4    3   15      0.36      0.00
   -3    3   13      0.62      0.00
   -2    3   11     -1.35      0.00
   -1    3    9     -1.12      0.00
    0    3    7      0.25      0.00
    1    3    5      4.42      0.00
    2    3    3      2.01      0.00
    3    3    1     -8.45      0.00
   -4    3    1      0.04      0.00
   -5    3    3      3.14      0.00
   -6    3    5     -1.74      0.00
   -7    3    7      2.21      0.00
   -8    3    9     -0.46      0.00
   -9    3   11     -0.07      0.00
  -10    3   13     -1.30      0.00
  -11    3   15     -0.89      0.00
   -5    4   17     -0.59      0.00
   -4    4   15      0.70      0.00
   -3    4   13     -0.31      0.00
   -2    4   11      1.17      0.00
   -1    4    9     -2.61      0.00
    0    4    7      1.84      0.00
    1    4    5     -2.07      0.00
    2    4    3      0.93      0.00
    3    4    1      6.36      0.00
   -4    4    1     -0.99      0.00
   -5    4    3     10.59      0.00
   -6    4    5     -6.73      0.00
   -7    4    7      3.91      0.00
   -8    4    9     -0.53      0.00
   -9    4   11     -0.64      0.00
  -10    4   13      1.73      0.00
  -11    4   15     -0.57      0.00
   -4    5   15      0.10      0.00
   -3    5   13     -0.29      0.00
   -2    5   11     -1.13      0.00
   -1    5    9     -0.91      0.00
    0    5    7     -2.32      0.00
    1    5    5      8.30      0.00
    2    5    3     -3.09      0.00
    3    5    1     -7.74      0.00
   -4    5    1      3.99      0.00
   -5    5    3      2.36      0.00
   -6    5    5     -4.13      0.00
   -7    5    7      3.19      0.00
   -8    5    9     -1.32      0.00
   -9    5   11     -0.28      0.00
  -10    5   13     -0.99      0.00
  -11    5   15      1.20      0.00
   -4    6   15      0.98      0.00
   -3    6   13     -1.02      0.00
   -2    6   11      0.40      0.00
   -1    6    9      0.15      0.00
    0    6    7     -0.95      0.00
    1    6    5     -3.40      0.00
    2    6    3      2.33      0.00
    3    6    1      4.92      0.00
   -4    6    1     -5.74      0.00
   -5    6    3     12.56      0.00
   -6    6    5     -6.48      0.00
   -7    6    7      2.43      0.00
   -8    6    9     -0.79      0.00
   -9    6   11     -0.16      0.00
  -10    6   13      1.12      0.00
  -11    6   15      0.68      0.00
   -4    7   15      0.83      0.00
   -3    7   13      0.00      0.00
   -2    7   11      0.98      0.00
   -1    7    9     -2.89      0.00
    0    7    7     -1.85      0.00
    1    7    5      8.01      0.00
    2    7    3     -2.14      0.00
    3    7    1     -6.19      0.00
   -4    7    1      5.78      0.00
   -5    7    3     -1.17      0.00
   -6    7    5     -0.34      0.00
   -7    7    7      1.90      0.00
   -8    7    9     -0.17      0.00
   -9    7   11     -0.19      0.00
  -10    7   13     -0.60      0.00
  -11    7   15      1.99      0.00
   -4    8   15      0.95      0.00
   -3    8   13     -0.66      0.00
   -2    8   11     -2.04      0.00
   -1    8    9      1.60      0.00
    0    8    7     -1.36      0.00
    1    8    5     -1.52      0.00
    2    8    3      0.34      0.00
    3    8    1      4.63      0.00
   -4    8    1      0.15      0.00
   -5    8    3      3.28      0.00
   -6    8    5     -2.06      0.00
   -7    8    7     -1.72      0.00
   -8    8    9      0.37      0.00
   -9    8   11      0.19      0.00
  -10    8   13      0.98      0.00
   -4    9   15      1.09      0.00
   -3    9   13      0.15      0.00
   -2    9   11      1.12      0.00
   -1    9    9     -1.94      0.00
    0    9    7      0.46      0.00
    1    9    5      3.90      0.00
    2    9    3     -2.67      0.00
    3    9    1     -2.73      0.00
   -4    9    1      2.52      0.00
   -5    9    3     -0.52      0.00
   -6    9    5      1.68      0.00
   -7    9    7     -0.31      0.00
   -8    9    9     -1.02      0.00
   -9    9   11      1.09      0.00
  -10    9   13     -0.66      0.00
   -3   10   13     -0.08      0.00
   -2   10   11     -1.00      0.00
   -1   10    9      0.34      0.00
    0   10    7     -0.73      0.00
    1   10    5     -0.36      0.00
    2   10    3      1.45      0.00
    3   10    1      0.23      0.00
   -4   10    1      1.52      0.00
   -5   10    3      0.59      0.00
   -6   10    5     -0.93      0.00
   -7   10    7      0.37      0.00
   -8   10    9     -0.55      0.00
   -9   10   11     -0.78      0.00
  -10   10   13      0.93      0.00
   -3   11   13      0.07      0.00
   -2   11   11      0.11      0.00
   -1   11    9      0.00      0.00
    0   11    7      0.33      0.00
    1   11    5     -0.02      0.00
    2   11    3     -0.84      0.00
    3   11    1      0.69      0.00
   -4   11    1     -0.34      0.00
   -5   11    3     -0.16      0.00
   -6   11    5      0.59      0.00
   -7   11    7     -1.37      0.00
   -8   11    9     -0.64      0.00
   -9   11   11      0.26      0.00
   -2   12   11     -0.47      0.00
   -1   12    9      0.08      0.00
    0   12    7     -0.92      0.00
    1   12    5     -0.73      0.00
    2   12    3      1.22      0.00
    3   12    1     -0.81      0.00
   -4   12    1     -1.48      0.00
   -5   12    3      2.30      0.00
   -6   12    5      0.16      0.00
   -7   12    7      0.56      0.00
   -8   12    9     -0.02      0.00
   -9   12   11     -0.37      0.00
   -2   13   11     -1.03      0.00
   -1   13    9      1.41      0.00
    0   13    7      0.27      0.00
    1   13    5     -1.35      0.00
    2   13    3     -0.02      0.00
    3   13    1      0.00      0.00
   -4   13    1     -0.04      0.00
   -5   13    3      1.90      0.00
   -6   13    5     -0.75      0.00
   -7   13    7     -0.71      0.00
   -8   13    9      0.23      0.00
   -1   14    9     -0.04      0.00
    0   14    7     -0.96      0.00
    1   14    5     -0.97      0.00
    2   14    3      2.00      0.00
    3   14    1      0.83      0.00
   -4   14    1     -1.38      0.00
   -5   14    3      4.23      0.00
   -6   14    5     -0.97      0.00
   -7   14    7     -0.36      0.00
   -8   14    9      1.36      0.00
   -1   15    9     -0.06      0.00
    0   15    7      0.69      0.00
    1   15    5     -0.66      0.00
    2   15    3     -0.41      0.00
    3   15    1     -0.32      0.00
   -4   15    1      0.48      0.00
   -5   15    3      1.26      0.00
   -6   15    5      0.17      0.00
   -7   15    7     -0.14      0.00
    0   16    7      0.73      0.00
    1   16    5     -0.34      0.00
    2   16    3      0.33      0.00
    3   16    1      1.61      0.00
   -4   16    1     -0.01      0.00
   -5   16    3      1.08      0.00
    2   17    3     -0.01      0.00
    3   17    1      0.11      0.00
   -4   17    1     -0.35      0.00
   -5   17    3      0.06      0.00
   -4    0   16      1.72      0.00
   -3    0   14     -1.60      0.00
   -2    0   12      2.31      0.00
   -1    0   10     -1.61      0.00
    0    0    8     -3.99      0.00
    1    0    6     -1.10      0.00
    4    0    0     -3.40      0.00
   -5    0    2      1.31      0.00
   -6    0    4     -1.40      0.00
   -7    0    6      0.45      0.00
   -8    0    8     -1.54      0.00
   -9    0   10      0.58      0.00
  -10    0   12      0.10      0.00
  -11    0   14     -0.97      0.00
  -12    0   16     -0.78      0.00
   -4    1   16      0.05      0.00
   -3    1   14      0.28      0.00
   -2    1   12     -1.94      0.00
   -1    1   10      1.69      0.00
    0    1    8      0.33      0.00
    1    1    6     -1.43      0.00
    3    1    2     -3.53      0.00
    4    1    0      4.63      0.00
   -5    1    2      4.35      0.00
   -6    1    4     -1.85      0.00
   -7    1    6      0.61      0.00
   -8    1    8     -1.51      0.00
   -9    1   10      1.42      0.00
  -10    1   12     -0.76      0.00
  -11    1   14     -0.06      0.00
  -12    1   16      1.45      0.00
   -4    2   16      0.39      0.00
   -3    2   14     -0.95      0.00
   -2    2   12      2.17      0.00
   -1    2   10     -0.57      0.00
    0    2    8     -3.00      0.00
    1    2    6     -2.28      0.00
    2    2    4      1.48      0.00
    3    2    2      0.63      0.00
    4    2    0     -2.65      0.00
   -5    2    2      1.66      0.00
   -6    2    4     -4.45      0.00
   -7    2    6      1.36      0.00
   -8    2    8     -1.16      0.00
   -9    2   10      0.78      0.00
  -10    2   12      1.37      0.00
  -11    2   14     -1.26      0.00
  -12    2   16     -1.02      0.00
   -4    3   16      0.36      0.00
   -3    3   14      0.20      0.00
   -2    3   12     -1.59      0.00
   -1    3   10      0.88      0.00
    0    3    8     -0.22      0.00
    1    3    6     -3.11      0.00
    2    3    4      3.95      0.00
    3    3    2     -6.85      0.00
    4    3    0      3.45      0.00
   -5    3    2     -0.54      0.00
   -6    3    4      0.64      0.00
   -7    3    6     -1.87      0.00
   -8    3    8     -0.43      0.00
   -9    3   10      0.63      0.00
  -10    3   12     -0.43      0.00
  -11    3   14      0.58      0.00
  -12    3   16      0.63      0.00
   -4    4   16     -0.44      0.00
   -3    4   14     -0.60      0.00
   -2    4   12      1.58      0.00
   -1    4   10     -0.77      0.00
    0    4    8      0.82      0.00
    1    4    6     -4.70      0.00
    2    4    4      2.62      0.00
    3    4    2      3.78      0.00
    4    4    0     -3.92      0.00
   -5    4    2      2.86      0.00
   -6    4    4     -1.76      0.00
   -7    4    6     -0.42      0.00
   -8    4    8      0.41      0.00
   -9    4   10     -0.16      0.00
  -10    4   12      1.81      0.00
  -11    4   14     -1.23      0.00
  -12    4   16     -1.23      0.00
   -4    5   16     -0.94      0.00
   -3    5   14      0.52      0.00
   -2    5   12     -1.01      0.00
   -1    5   10      1.24      0.00
    0    5    8     -0.46      0.00
    1    5    6     -0.88      0.00
    2    5    4     -0.12      0.00
    3    5    2     -4.87      0.00
    4    5    0     -1.76      0.00
   -5    5    2    -11.74      0.00
   -6    5    4      6.98      0.00
   -7    5    6     -3.76      0.00
   -8    5    8      1.08      0.00
   -9    5   10     -0.31      0.00
  -10    5   12     -1.03      0.00
  -11    5   14      0.51      0.00
   -4    6   16     -0.48      0.00
   -3    6   14     -0.31      0.00
   -2    6   12      0.21      0.00
   -1    6   10      0.58      0.00
    0    6    8      1.66      0.00
    1    6    6     -7.39      0.00
    2    6    4      4.44      0.00
    3    6    2      4.14      0.00
    4    6    0     -6.31      0.00
   -5    6    2      2.23      0.00
   -6    6    4      2.15      0.00
   -7    6    6     -3.43      0.00
   -8    6    8      1.88      0.00
   -9    6   10      0.38      0.00
  -10    6   12     -0.34      0.00
  -11    6   14     -1.01      0.00
   -4    7   16     -0.98      0.00
   -3    7   14      0.60      0.00
   -2    7   12      0.51      0.00
   -1    7   10     -0.01      0.00
    0    7    8      0.90      0.00
    1    7    6     -0.75      0.00
    2    7    4      0.30      0.00
    3    7    2     -5.35      0.00
    4    7    0      0.00      0.00
   -5    7    2     -6.01      0.00
   -6    7    4      4.25      0.00
   -7    7    6     -1.06      0.00
   -8    7    8      0.15      0.00
   -9    7   10      0.04      0.00
  -10    7   12     -0.96      0.00
  -11    7   14     -0.52      0.00
   -3    8   14      0.15      0.00
   -2    8   12     -0.90      0.00
   -1    8   10      1.89      0.00
    0    8    8     -0.92      0.00
    1    8    6     -3.72      0.00
    2    8    4      2.11      0.00
    3    8    2      4.52      0.00
    4    8    0     -3.68      0.00
   -5    8    2     -0.92      0.00
   -6    8    4      0.63      0.00
   -7    8    6     -0.96      0.00
   -8    8    8      0.89      0.00
   -9    8   10     -0.33      0.00
  -10    8   12      0.04      0.00
  -11    8   14     -0.53      0.00
   -3    9   14      0.70      0.00
   -2    9   12      1.52      0.00
   -1    9   10     -1.49      0.00
    0    9    8      0.05      0.00
    1    9    6      0.79      0.00
    2    9    4     -0.97      0.00
    3    9    2     -2.80      0.00
    4    9    0      2.55      0.00
   -5    9    2      0.05      0.00
   -6    9    4      1.87      0.00
   -7    9    6      0.02      0.00
   -8    9    8      0.33      0.00
   -9    9   10      0.31      0.00
  -10    9   12     -0.46      0.00
  -11    9   14      0.72      0.00
   -3   10   14     -0.33      0.00
   -2   10   12     -1.30      0.00
   -1   10   10      1.72      0.00
    0   10    8     -1.23      0.00
    1   10    6     -0.09      0.00
    2   10    4      1.18      0.00
    3   10    2      1.74      0.00
    4   10    0     -2.73      0.00
   -5   10    2      0.60      0.00
   -6   10    4      0.10      0.00
   -7   10    6      0.77      0.00
   -8   10    8      0.32      0.00
   -9   10   10     -0.14      0.00
  -10   10   12     -0.15      0.00
   -2   11   12      1.61      0.00
   -1   11   10     -1.12      0.00
    0   11    8      0.48      0.00
    1   11    6      0.77      0.00
    2   11    4     -1.81      0.00
    3   11    2      0.32      0.00
    4   11    0      0.38      0.00
   -5   11    2     -0.43      0.00
   -6   11    4     -0.12      0.00
   -7   11    6     -0.98      0.00
   -8   11    8      1.72      0.00
   -9   11   10     -0.40      0.00
  -10   11   12      0.40      0.00
   -2   12   12      0.10      0.00
   -1   12   10     -0.53      0.00
    0   12    8     -0.17      0.00
    1   12    6      1.47      0.00
    2   12    4     -0.83      0.00
    3   12    2      0.10      0.00
    4   12    0      0.23      0.00
   -5   12    2     -0.18      0.00
   -6   12    4     -0.03      0.00
   -7   12    6      0.39      0.00
   -8   12    8      1.02      0.00
   -9   12   10     -0.91      0.00
   -1   13   10     -0.58      0.00
    0   13    8      0.62      0.00
    1   13    6      1.18      0.00
    2   13    4     -1.35      0.00
    3   13    2     -0.51      0.00
    4   13    0     -1.04      0.00
   -5   13    2     -3.17      0.00
   -6   13    4      1.16      0.00
   -7   13    6     -1.10      0.00
   -8   13    8     -0.37      0.00
   -9   13   10      0.14      0.00
   -1   14   10      0.19      0.00
    0   14    8     -1.37      0.00
    1   14    6      1.68      0.00
    2   14    4      0.00      0.00
    3   14    2      0.34      0.00
    4   14    0     -0.66      0.00
   -5   14    2     -1.28      0.00
   -6   14    4      0.54      0.00
   -7   14    6      0.08      0.00
    0   15    8     -0.13      0.00
    1   15    6      0.49      0.00
    2   15    4     -0.84      0.00
    3   15    2     -1.40      0.00
    4   15    0     -0.05      0.00
   -5   15    2     -3.09      0.00
   -6   15    4      1.81      0.00
    1   16    6      0.55      0.00
    2   16    4      0.12      0.00
    3   16    2     -0.60      0.00
    4   16    0      0.69      0.00
   -5   16    2     -1.27      0.00
   -6   16    4      0.54      0.00
    3   17    2     -2.44      0.00
    4   17    0      0.54      0.00
   -5   17    2     -0.32      0.00
   -4    1   17     -1.39      0.00
   -3    1   15      1.44      0.00
   -2    1   13     -1.39      0.00
   -1    1   11      1.07      0.00
    0    1    9      1.71      0.00
    1    1    7      2.69      0.00
    2    1    5     -5.85      0.00
    3    1    3     12.44      0.00
    4    1    1     -5.60      0.00
   -5    1    1      3.66      0.00
   -6    1    3      2.74      0.00
   -7    1    5     -2.73      0.00
   -8    1    7      1.63      0.00
   -9    1    9     -0.33      0.00
  -10    1   11     -0.46      0.00
  -11    1   13      1.13      0.00
  -12    1   15     -0.22      0.00
   -4    2   17     -0.25      0.00
   -3    2   15     -0.36      0.00
   -2    2   13      1.32      0.00
   -1    2   11     -0.84      0.00
    0    2    9      0.36      0.00
    1    2    7      2.27      0.00
    2    2    5     -0.86      0.00
    3    2    3      2.23      0.00
    4    2    1     -2.78      0.00
   -5    2    1     -3.71      0.00
   -6    2    3      0.69      0.00
   -7    2    5      0.24      0.00
   -8    2    7      1.81      0.00
   -9    2    9     -2.41      0.00
  -10    2   11      1.12      0.00
  -11    2   13     -1.14      0.00
  -12    2   15     -0.90      0.00
   -4    3   17      0.33      0.00
   -3    3   15      0.44      0.00
   -2    3   13     -1.41      0.00
   -1    3   11      1.14      0.00
    0    3    9      1.12      0.00
    1    3    7      3.07      0.00
    2    3    5     -4.00      0.00
    3    3    3      2.88      0.00
    4    3    1      0.55      0.00
   -5    3    1     -3.14      0.00
   -6    3    3      7.01      0.00
   -7    3    5     -3.43      0.00
   -8    3    7      1.78      0.00
   -9    3    9     -1.29      0.00
  -10    3   11     -0.52      0.00
  -11    3   13      1.60      0.00
  -12    3   15     -0.26      0.00
   -4    4   17      0.19      0.00
   -3    4   15      0.15      0.00
   -2    4   13      0.62      0.00
   -1    4   11      0.31      0.00
    1    4    7      3.18      0.00
    2    4    5     -4.17      0.00
    3    4    3      6.05      0.00
    4    4    1     -0.69      0.00
   -5    4    1      5.36      0.00
   -6    4    3     -1.21      0.00
   -7    4    5     -0.08      0.00
   -8    4    7      0.93      0.00
   -9    4    9     -0.73      0.00
  -10    4   11     -0.49      0.00
  -11    4   13      0.34      0.00
  -12    4   15      0.32      0.00
   -3    5   15      0.42      0.00
   -2    5   13     -0.22      0.00
   -1    5   11     -0.55      0.00
    0    5    9     -0.74      0.00
    1    5    7      5.19      0.00
    2    5    5     -2.27      0.00
    3    5    3     -1.66      0.00
    4    5    1      3.18      0.00
   -5    5    1     -4.83      0.00
   -6    5    3      1.94      0.00
   -7    5    5      1.14      0.00
   -8    5    7     -0.77      0.00
   -9    5    9      0.39      0.00
  -10    5   11     -1.06      0.00
  -11    5   13      1.40      0.00
  -12    5   15      0.54      0.00
   -3    6   15     -0.31      0.00
   -2    6   13      0.27      0.00
   -1    6   11     -1.07      0.00
    0    6    9      1.73      0.00
    1    6    7      1.96      0.00
    2    6    5     -2.02      0.00
    3    6    3      3.76      0.00
    4    6    1     -0.75      0.00
   -5    6    1      5.94      0.00
   -6    6    3     -3.07      0.00
   -7    6    5      0.75      0.00
   -8    6    7      0.07      0.00
   -9    6    9      1.07      0.00
  -10    6   11     -0.55      0.00
  -11    6   13      0.94      0.00
  -12    6   15      0.26      0.00
   -3    7   15     -0.22      0.00
   -2    7   13      0.54      0.00
   -1    7   11      0.05      0.00
    0    7    9     -0.23      0.00
    1    7    7      2.68      0.00
    2    7    5     -1.34      0.00
    3    7    3     -3.65      0.00
    4    7    1      3.34      0.00
   -5    7    1      0.60      0.00
   -6    7    3     -2.89      0.00
   -7    7    5      2.73      0.00
   -8    7    7     -2.42      0.00
   -9    7    9      0.56      0.00
  -10    7   11      1.10      0.00
  -11    7   13     -0.46      0.00
   -3    8   15     -0.18      0.00
   -2    8   13     -0.61      0.00
   -1    8   11      0.33      0.00
    0    8    9      0.78      0.00
    1    8    7      0.29      0.00
    2    8    5     -0.22      0.00
    3    8    3      3.12      0.00
    4    8    1     -1.54      0.00
   -5    8    1      0.45      0.00
   -6    8    3     -0.38      0.00
   -7    8    5     -0.50      0.00
   -8    8    7      0.07      0.00
   -9    8    9     -0.14      0.00
  -10    8   11      0.04      0.00
  -11    8   13     -0.45      0.00
   -2    9   13      0.48      0.00
   -1    9   11     -1.07      0.00
    0    9    9      1.32      0.00
    1    9    7     -0.89      0.00
    2    9    5      0.09      0.00
    3    9    3     -3.42      0.00
    4    9    1      3.80      0.00
   -5    9    1     -0.48      0.00
   -6    9    3     -1.15      0.00
   -7    9    5      0.50      0.00
   -8    9    7      0.25      0.00
   -9    9    9     -0.70      0.00
  -10    9   11      1.23      0.00
  -11    9   13     -0.94      0.00
   -2   10   13     -1.55      0.00
   -1   10   11      1.76      0.00
    0   10    9     -0.17      0.00
    1   10    7     -0.51      0.00
    2   10    5      1.87      0.00
    3   10    3      1.04      0.00
    4   10    1     -2.49      0.00
   -5   10    1     -1.46      0.00
   -6   10    3     -0.37      0.00
   -7   10    5     -0.12      0.00
   -8   10    7     -0.91      0.00
   -9   10    9      0.61      0.00
  -10   10   11     -0.63      0.00
  -11   10   13     -0.28      0.00
   -2   11   13     -0.37      0.00
   -1   11   11     -0.40      0.00
    0   11    9      1.15      0.00
    1   11    7     -1.51      0.00
    2   11    5      0.26      0.00
    3   11    3     -0.79      0.00
    4   11    1      1.49      0.00
   -5   11    1     -0.63      0.00
   -6   11    3     -0.57      0.00
   -7   11    5      0.28      0.00
   -8   11    7     -0.80      0.00
   -9   11    9      0.51      0.00
  -10   11   11      0.36      0.00
   -1   12   11      1.24      0.00
    0   12    9     -0.33      0.00
    1   12    7     -1.26      0.00
    2   12    5      1.73      0.00
    3   12    3      0.54      0.00
    4   12    1     -0.54      0.00
   -5   12    1      0.17      0.00
   -6   12    3     -0.28      0.00
   -7   12    5      1.14      0.00
   -8   12    7     -0.15      0.00
   -9   12    9      0.08      0.00
  -10   12   11      0.05      0.00
   -1   13   11     -0.88      0.00
    0   13    9      1.89      0.00
    1   13    7     -1.06      0.00
    2   13    5      0.21      0.00
    3   13    3     -0.79      0.00
    4   13    1      0.74      0.00
   -5   13    1     -0.19      0.00
   -6   13    3      1.45      0.00
   -7   13    5     -1.50      0.00
   -8   13    7     -0.26      0.00
   -9   13    9      1.20      0.00
    0   14    9      0.70      0.00
    1   14    7     -1.72      0.00
    2   14    5      0.65      0.00
    3   14    3      1.88      0.00
    4   14    1     -0.19      0.00
   -5   14    1      2.17      0.00
   -6   14    3     -2.01      0.00
   -7   14    5      2.34      0.00
   -8   14    7     -0.61      0.00
   -9   14    9      0.82      0.00
    1   15    7     -1.32      0.00
    2   15    5      0.82      0.00
    3   15    3      0.05      0.00
    4   15    1      0.28      0.00
   -5   15    1      0.75      0.00
   -6   15    3     -1.49      0.00
    2   16    5     -0.37      0.00
    3   16    3      2.64      0.00
    4   16    1     -1.53      0.00
   -5   16    1      1.04      0.00
   -6   16    3     -2.27      0.00
    4   17    1     -1.71      0.00
   -5   17    1      0.80      0.00
   -3    0   16     -1.65      0.00
   -2    0   14      0.76      0.00
   -1    0   12      0.46      0.00
    0    0   10     -2.04      0.00
    1    0    8     -1.80      0.00
    2    0    6      2.94      0.00
    3    0    4    -10.36      0.00
    4    0    2      9.62      0.00
    5    0    0     -8.78      0.00
   -6    0    2     -0.76      0.00
   -7    0    4      4.03      0.00
   -8    0    6     -1.58      0.00
   -9    0    8     -0.82      0.00
  -10    0   10      1.73      0.00
  -11    0   12     -1.08      0.00
  -12    0   14      0.63      0.00
  -13    0   16     -0.49      0.00
   -3    1   16      0.68      0.00
   -2    1   14     -0.48      0.00
   -1    1   12     -0.22      0.00
    0    1   10     -0.29      0.00
    1    1    8     -0.76      0.00
    2    1    6      0.63      0.00
    3    1    4      0.60      0.00
    4    1    2     -2.09      0.00
    5    1    0     -0.76      0.00
   -6    1    2      1.00      0.00
   -7    1    4     -0.71      0.00
   -8    1    6     -1.14      0.00
   -9    1    8      1.37      0.00
  -10    1   10     -0.22      0.00
  -11    1   12      0.92      0.00
  -12    1   14      0.11      0.00
   -3    2   16     -0.83      0.00
   -2    2   14      0.99      0.00
   -1    2   12     -1.19      0.00
    0    2   10     -1.10      0.00
    2    2    6      4.57      0.00
    3    2    4     -9.65      0.00
    4    2    2      5.70      0.00
    5    2    0     -2.43      0.00
   -6    2    2     -4.08      0.00
   -7    2    4      3.51      0.00
   -8    2    6     -2.22      0.00
   -9    2    8      0.96      0.00
  -10    2   10     -0.39      0.00
  -11    2   12     -0.11      0.00
  -12    2   14      0.39      0.00
   -3    3   16      0.38      0.00
   -2    3   14     -0.10      0.00
   -1    3   12     -0.80      0.00
    0    3   10      0.67      0.00
    1    3    8     -2.72      0.00
    2    3    6      1.93      0.00
    3    3    4     -2.49      0.00
    4    3    2     -0.24      0.00
    5    3    0      1.88      0.00
   -6    3    2      0.88      0.00
   -7    3    4      2.55      0.00
   -8    3    6     -2.89      0.00
   -9    3    8      2.74      0.00
  -10    3   10     -0.70      0.00
  -11    3   12      0.62      0.00
  -12    3   14     -0.27      0.00
   -3    4   16      0.06      0.00
   -2    4   14     -0.01      0.00
   -1    4   12      0.91      0.00
    0    4   10     -2.31      0.00
    1    4    8     -2.86      0.00
    2    4    6      2.41      0.00
    3    4    4     -1.16      0.00
    4    4    2      0.50      0.00
    5    4    0      2.72      0.00
   -6    4    2     -5.54      0.00
   -7    4    4      1.24      0.00
   -8    4    6     -0.73      0.00
   -9    4    8      1.10      0.00
  -10    4   10     -0.37      0.00
  -11    4   12     -0.71      0.00
  -12    4   14     -0.33      0.00
   -3    5   16     -0.32      0.00
   -2    5   14     -0.08      0.00
   -1    5   12     -0.78      0.00
    0    5   10     -0.01      0.00
    1    5    8     -2.12      0.00
    2    5    6      2.69      0.00
    3    5    4     -2.89      0.00
    4    5    2      0.43      0.00
    5    5    0      4.56      0.00
   -6    5    2      0.34      0.00
   -7    5    4      3.05      0.00
   -8    5    6     -2.42      0.00
   -9    5    8      0.45      0.00
  -10    5   10      1.74      0.00
  -11    5   12     -2.10      0.00
  -12    5   14      0.85      0.00
   -3    6   16      0.11      0.00
   -2    6   14     -0.77      0.00
   -1    6   12      0.78      0.00
    0    6   10     -0.56      0.00
    1    6    8     -2.95      0.00
    2    6    6      0.04      0.00
    3    6    4      3.51      0.00
    4    6    2     -1.40      0.00
    5    6    0     -0.12      0.00
   -6    6    2      2.15      0.00
   -7    6    4     -2.49      0.00
   -8    6    6      1.84      0.00
   -9    6    8     -1.18      0.00
  -10    6   10      0.19      0.00
  -11    6   12     -0.59      0.00
  -12    6   14     -0.57      0.00
   -2    7   14      0.34      0.00
   -1    7   12     -0.65      0.00
    0    7   10     -1.42      0.00
    1    7    8      0.52      0.00
    2    7    6      0.53      0.00
    3    7    4     -2.05      0.00
    4    7    2      0.87      0.00
    5    7    0      2.02      0.00
   -6    7    2     -0.23      0.00
   -7    7    4      1.54      0.00
   -8    7    6     -0.99      0.00
   -9    7    8     -0.56      0.00
  -10    7   10      1.99      0.00
  -11    7   12     -1.23      0.00
  -12    7   14      0.29      0.00
   -2    8   14     -0.31      0.00
   -1    8   12     -0.58      0.00
    0    8   10      0.97      0.00
    1    8    8     -0.13      0.00
    2    8    6     -1.04      0.00
    3    8    4      3.34      0.00
    4    8    2     -1.79      0.00
    5    8    0     -0.88      0.00
   -6    8    2      2.79      0.00
   -7    8    4     -2.01      0.00
   -8    8    6      1.17      0.00
   -9    8    8      0.15      0.00
  -10    8   10     -1.97      0.00
  -11    8   12      1.31      0.00
  -12    8   14     -0.31      0.00
   -2    9   14      1.56      0.00
   -1    9   12     -1.39      0.00
    0    9   10     -0.46      0.00
    1    9    8      0.07      0.00
    2    9    6     -0.69      0.00
    3    9    4     -1.35      0.00
    4    9    2      1.56      0.00
    5    9    0     -0.43      0.00
   -6    9    2     -0.42      0.00
   -7    9    4      1.68      0.00
   -8    9    6      0.08      0.00
   -9    9    8     -0.63      0.00
  -10    9   10      1.35      0.00
  -11    9   12      0.25      0.00
   -2   10   14      0.63      0.00
   -1   10   12     -0.34      0.00
    0   10   10     -0.44      0.00
    1   10    8      1.54      0.00
    2   10    6     -0.88      0.00
    3   10    4      1.51      0.00
    4   10    2     -0.98      0.00
    5   10    0     -0.23      0.00
   -6   10    2      0.80      0.00
   -7   10    4     -0.73      0.00
   -8   10    6     -0.03      0.00
   -9   10    8      0.17      0.00
  -10   10   10     -1.19      0.00
  -11   10   12      1.43      0.00
   -1   11   12     -1.05      0.00
    0   11   10     -0.12      0.00
    1   11    8      0.58      0.00
    2   11    6     -1.16      0.00
    3   11    4     -0.12      0.00
    4   11    2      1.77      0.00
    5   11    0     -2.61      0.00
   -6   11    2      0.43      0.00
   -7   11    4     -1.35      0.00
   -8   11    6     -0.05      0.00
   -9   11    8      0.63      0.00
  -10   11   10     -0.78      0.00
   -1   12   12      0.60      0.00
    0   12   10     -2.29      0.00
    1   12    8      1.49      0.00
    2   12    6      0.48      0.00
    3   12    4     -0.49      0.00
    4   12    2     -1.09      0.00
    5   12    0      0.84      0.00
   -6   12    2     -1.19      0.00
   -7   12    4      1.48      0.00
   -8   12    6     -0.33      0.00
   -9   12    8     -0.83      0.00
  -10   12   10     -0.56      0.00
    0   13   10     -0.80      0.00
    1   13    8      1.78      0.00
    2   13    6     -1.34      0.00
    3   13    4     -0.88      0.00
    4   13    2      0.20      0.00
    5   13    0      0.41      0.00
   -6   13    2      0.75      0.00
   -7   13    4     -1.85      0.00
   -8   13    6      0.59      0.00
   -9   13    8     -0.70      0.00
    1   14    8     -0.01      0.00
    2   14    6      0.15      0.00
    3   14    4     -0.09      0.00
    4   14    2     -0.63      0.00
    5   14    0      0.35      0.00
   -6   14    2     -1.11      0.00
   -8   14    6     -1.24      0.00
   -9   14    8     -0.23      0.00
    1   15    8      1.01      0.00
    2   15    6     -0.53      0.00
    3   15    4     -2.19      0.00
    4   15    2      1.96      0.00
    5   15    0      0.16      0.00
   -6   15    2      1.90      0.00
    2   16    6     -0.91      0.00
    3   16    4     -0.23      0.00
    4   16    2      0.90      0.00
    5   16    0     -0.53      0.00
   -6   16    2      1.48      0.00
   -3    1   17      0.88      0.00
   -2    1   15     -0.66      0.00
   -1    1   13      0.89      0.00
    0    1   11      1.42      0.00
    1    1    9      0.18      0.00
    2    1    7     -1.70      0.00
    3    1    5      4.03      0.00
    4    1    3     -3.49      0.00
    5    1    1      3.73      0.00
   -6    1    1      1.85      0.00
   -7    1    3     -3.57      0.00
   -8    1    5      1.27      0.00
   -9    1    7     -0.10      0.00
  -10    1    9     -1.25      0.00
  -11    1   11      0.69      0.00
  -12    1   13     -0.23      0.00
  -13    1   15      0.77      0.00
   -3    2   17     -1.08      0.00
   -2    2   15      0.40      0.00
   -1    2   13      1.13      0.00
    0    2   11     -1.27      0.00
    1    2    9      1.49      0.00
    2    2    7     -2.35      0.00
    3    2    5      2.76      0.00
    4    2    3      1.84      0.00
    5    2    1     -2.37      0.00
   -6    2    1     -3.56      0.00
   -7    2    3     -1.13      0.00
   -8    2    5      3.45      0.00
   -9    2    7     -2.37      0.00
  -10    2    9     -0.59      0.00
  -11    2   11      0.14      0.00
  -12    2   13      0.42      0.00
  -13    2   15      0.23      0.00
   -2    3   15     -0.29      0.00
   -1    3   13      0.33      0.00
    0    3   11      2.05      0.00
    1    3    9      0.66      0.00
    2    3    7     -1.39      0.00
    3    3    5      2.50      0.00
    4    3    3     -2.25      0.00
    5    3    1      0.37      0.00
   -6    3    1      4.28      0.00
   -7    3    3     -0.44      0.00
   -8    3    5      0.34      0.00
   -9    3    7     -1.17      0.00
  -10    3    9      0.96      0.00
  -11    3   11     -0.63      0.00
  -12    3   13      1.45      0.00
  -13    3   15      0.82      0.00
   -2    4   15      0.13      0.00
   -1    4   13      0.66      0.00
    0    4   11     -1.55      0.00
    1    4    9      3.28      0.00
    2    4    7     -2.06      0.00
    3    4    5      0.38      0.00
    4    4    3      0.48      0.00
    5    4    1     -2.31      0.00
   -6    4    1     -1.81      0.00
   -7    4    3     -4.47      0.00
   -8    4    5      4.27      0.00
   -9    4    7     -2.35      0.00
  -10    4    9     -0.33      0.00
  -11    4   11      0.53      0.00
  -12    4   13      0.30      0.00
  -13    4   15      0.26      0.00
   -2    5   15      0.74      0.00
   -1    5   13     -1.01      0.00
    0    5   11      3.20      0.00
    1    5    9      0.42      0.00
    2    5    7      0.19      0.00
    3    5    5     -2.60      0.00
    4    5    3      0.54      0.00
    5    5    1      1.55      0.00
   -6    5    1     -0.04      0.00
   -7    5    3      1.02      0.00
   -8    5    5     -0.84      0.00
   -9    5    7      0.24      0.00
  -10    5    9      1.04      0.00
  -11    5   11     -0.07      0.00
  -12    5   13      1.09      0.00
   -2    6   15      0.03      0.00
   -1    6   13      1.51      0.00
    0    6   11     -2.22      0.00
    1    6    9      1.27      0.00
    2    6    7     -0.10      0.00
    3    6    5      0.89      0.00
    4    6    3     -0.86      0.00
    5    6    1     -2.19      0.00
   -6    6    1      0.16      0.00
   -7    6    3     -3.20      0.00
   -8    6    5      2.13      0.00
   -9    6    7     -0.81      0.00
  -10    6    9     -2.92      0.00
  -11    6   11      3.01      0.00
  -12    6   13     -1.16      0.00
   -2    7   15      0.31      0.00
   -1    7   13      0.36      0.00
    0    7   11     -0.15      0.00
    1    7    9      1.35      0.00
    2    7    7      0.47      0.00
    3    7    5     -2.68      0.00
    4    7    3      0.29      0.00
    5    7    1      1.50      0.00
   -6    7    1     -3.75      0.00
   -7    7    3      3.22      0.00
   -8    7    5     -1.81      0.00
   -9    7    7      0.95      0.00
  -10    7    9      0.62      0.00
  -11    7   11     -0.22      0.00
  -12    7   13     -0.79      0.00
   -2    8   15     -1.14      0.00
   -1    8   13      2.03      0.00
    0    8   11     -0.80      0.00
    1    8    9     -0.11      0.00
    2    8    7      1.15      0.00
    3    8    5      0.73      0.00
    4    8    3     -2.23      0.00
    5    8    1     -0.46      0.00
   -6    8    1     -0.73      0.00
   -7    8    3     -1.31      0.00
   -8    8    5     -0.21      0.00
   -9    8    7      0.96      0.00
  -10    8    9     -2.35      0.00
  -11    8   11      1.23      0.00
  -12    8   13      0.09      0.00
   -1    9   13      0.95      0.00
    0    9   11     -1.19      0.00
    1    9    9      0.49      0.00
    2    9    7      0.43      0.00
    3    9    5     -2.05      0.00
    4    9    3     -0.29      0.00
    5    9    1      2.92      0.00
   -6    9    1     -2.35      0.00
   -7    9    3      0.71      0.00
   -8    9    5     -0.06      0.00
   -9    9    7     -0.48      0.00
  -10    9    9      1.63      0.00
  -11    9   11     -1.00      0.00
  -12    9   13      0.46      0.00
   -1   10   13      1.13      0.00
    0   10   11      0.33      0.00
    1   10    9     -0.71      0.00
    2   10    7      0.16      0.00
    3   10    5      0.35      0.00
    4   10    3     -1.06      0.00
    5   10    1      1.26      0.00
   -6   10    1     -0.22      0.00
   -7   10    3      0.18      0.00
   -8   10    5     -0.12      0.00
   -9   10    7     -0.79      0.00
  -10   10    9      0.28      0.00
  -11   10   11     -0.24      0.00
   -1   11   13     -0.54      0.00
    0   11   11      1.52      0.00
    1   11    9     -1.29      0.00
    2   11    7     -0.06      0.00
    3   11    5      0.71      0.00
    4   11    3     -0.21      0.00
    5   11    1      0.83      0.00
   -6   11    1      0.05      0.00
   -7   11    3     -0.46      0.00
   -8   11    5      0.51      0.00
   -9   11    7      0.91      0.00
  -10   11    9      0.32      0.00
  -11   11   11     -0.69      0.00
    0   12   11      1.08      0.00
    1   12    9     -0.97      0.00
    2   12    7     -0.45      0.00
    3   12    5      0.40      0.00
    4   12    3     -0.25      0.00
    5   12    1      1.27      0.00
   -6   12    1     -0.61      0.00
   -7   12    3      2.77      0.00
   -8   12    5     -1.41      0.00
   -9   12    7      0.21      0.00
  -10   12    9      0.97      0.00
    0   13   11      0.94      0.00
    1   13    9      0.03      0.00
    2   13    7     -0.22      0.00
    3   13    5      1.27      0.00
    4   13    3     -0.16      0.00
    5   13    1     -0.39      0.00
   -6   13    1      1.47      0.00
   -7   13    3     -1.42      0.00
   -8   13    5      1.54      0.00
   -9   13    7     -0.48      0.00
  -10   13    9      1.05      0.00
    1   14    9     -0.35      0.00
    2   14    7      0.96      0.00
    3   14    5     -0.30      0.00
    4   14    3     -0.55      0.00
    5   14    1      0.11      0.00
   -6   14    1     -0.72      0.00
   -7   14    3      0.43      0.00
   -8   14    5      0.75      0.00
   -9   14    7     -0.15      0.00
    2   15    7     -0.69      0.00
    3   15    5      1.14      0.00
    4   15    3     -0.74      0.00
    5   15    1      0.53      0.00
   -6   15    1      0.08      0.00
   -7   15    3     -0.96      0.00
    3   16    5      1.06      0.00
    4   16    3     -0.92      0.00
    5   16    1      1.19      0.00
   -6   16    1     -0.70      0.00
   -7   16    3      1.93      0.00
   -2    0   16     -0.06      0.00
   -1    0   14     -2.08      0.00
    0    0   12      0.50      0.00
    1    0   10      0.98      0.00
    2    0    8      1.51      0.00
    3    0    6     -1.74      0.00
    4    0    4     -1.63      0.00
    5    0    2      3.98      0.00
    6    0    0     -5.96      0.00
   -7    0    2      4.70      0.00
   -8    0    4      0.58      0.00
   -9    0    6     -0.01      0.00
  -10    0    8      0.30      0.00
  -11    0   10     -0.45      0.00
  -12    0   12      0.02      0.00
  -13    0   14     -0.22      0.00
   -2    1   16     -0.49      0.00
   -1    1   14     -0.52      0.00
    0    1   12      1.11      0.00
    1    1   10     -0.54      0.00
    2    1    8      0.73      0.00
    3    1    6     -2.70      0.00
    4    1    4      1.16      0.00
    5    1    2      0.92      0.00
    6    1    0     -2.86      0.00
   -7    1    2      0.13      0.00
   -8    1    4     -2.58      0.00
   -9    1    6      1.37      0.00
  -10    1    8      0.91      0.00
  -11    1   10     -1.44      0.00
  -12    1   12      0.11      0.00
  -13    1   14     -0.07      0.00
   -2    2   16     -0.06      0.00
   -1    2   14     -1.03      0.00
    0    2   12     -1.02      0.00
    1    2   10     -0.03      0.00
    2    2    8      1.13      0.00
    3    2    6      0.99      0.00
    4    2    4     -2.02      0.00
    5    2    2      1.47      0.00
    6    2    0     -4.63      0.00
   -7    2    2      0.88      0.00
   -8    2    4      1.72      0.00
   -9    2    6      0.70      0.00
  -10    2    8     -0.14      0.00
  -11    2   10     -0.61      0.00
  -12    2   12     -0.86      0.00
  -13    2   14     -0.67      0.00
   -2    3   16     -0.70      0.00
   -1    3   14      0.38      0.00
    0    3   12      0.78      0.00
    1    3   10     -1.90      0.00
    2    3    8      2.36      0.00
    3    3    6     -1.93      0.00
    4    3    4      0.13      0.00
    5    3    2      0.19      0.00
    6    3    0     -3.44      0.00
   -7    3    2      1.48      0.00
   -8    3    4     -4.96      0.00
   -9    3    6      2.99      0.00
  -10    3    8      1.17      0.00
  -11    3   10     -1.88      0.00
  -12    3   12     -0.02      0.00
  -13    3   14     -0.21      0.00
   -2    4   16     -0.42      0.00
   -1    4   14     -0.17      0.00
    0    4   12     -1.99      0.00
    1    4   10      0.60      0.00
    2    4    8     -0.95      0.00
    3    4    6      2.75      0.00
    4    4    4     -2.19      0.00
    5    4    2     -1.27      0.00
    6    4    0     -0.61      0.00
   -7    4    2     -1.08      0.00
   -8    4    4      0.32      0.00
   -9    4    6      0.50      0.00
  -10    4    8     -1.54      0.00
  -11    4   10      0.72      0.00
  -12    4   12     -2.11      0.00
  -13    4   14      0.56      0.00
   -2    5   16     -0.50      0.00
   -1    5   14      0.09      0.00
    0    5   12      2.42      0.00
    1    5   10     -3.07      0.00
    2    5    8      0.92      0.00
    3    5    6     -0.11      0.00
    4    5    4      0.89      0.00
    5    5    2      0.21      0.00
    6    5    0     -1.34      0.00
   -7    5    2      3.39      0.00
   -8    5    4     -2.66      0.00
   -9    5    6      2.00      0.00
  -10    5    8      1.20      0.00
  -11    5   10     -2.23      0.00
  -12    5   12     -0.28      0.00
  -13    5   14      0.57      0.00
   -1    6   14     -0.82      0.00
    0    6   12     -0.75      0.00
    1    6   10      0.38      0.00
    2    6    8     -1.57      0.00
    3    6    6      1.84      0.00
    4    6    4      0.83      0.00
    5    6    2     -3.25      0.00
    6    6    0      3.39      0.00
   -7    6    2     -2.50      0.00
   -8    6    4      1.12      0.00
   -9    6    6     -0.93      0.00
  -10    6    8     -0.41      0.00
  -11    6   10      0.13      0.00
  -12    6   12     -0.18      0.00
  -13    6   14     -0.77      0.00
   -1    7   14     -1.09      0.00
    0    7   12      3.14      0.00
    1    7   10     -3.01      0.00
    2    7    8     -0.48      0.00
    3    7    6      0.45      0.00
    4    7    4      2.29      0.00
    5    7    2     -0.68      0.00
    6    7    0     -1.13      0.00
   -7    7    2      1.24      0.00
   -8    7    4      0.71      0.00
   -9    7    6     -0.87      0.00
  -10    7    8      2.86      0.00
  -11    7   10     -2.44      0.00
  -12    7   12      0.52      0.00
   -1    8   14     -1.24      0.00
    0    8   12      0.77      0.00
    1    8   10     -1.00      0.00
    2    8    8      0.29      0.00
    3    8    6      1.10      0.00
    4    8    4      0.17      0.00
    5    8    2     -2.32      0.00
    6    8    0      3.07      0.00
   -7    8    2     -1.77      0.00
   -8    8    4      0.99      0.00
   -9    8    6      0.01      0.00
  -10    8    8     -0.83      0.00
  -11    8   10      0.15      0.00
  -12    8   12      0.22      0.00
   -1    9   14     -0.90      0.00
    0    9   12      0.63      0.00
    1    9   10      0.05      0.00
    2    9    8     -0.66      0.00
    3    9    6      0.39      0.00
    4    9    4      2.09      0.00
    5    9    2     -1.74      0.00
    6    9    0     -0.58      0.00
   -7    9    2     -0.48      0.00
   -8    9    4      1.45      0.00
   -9    9    6      0.15      0.00
  -10    9    8     -0.31      0.00
  -11    9   10     -0.05      0.00
  -12    9   12      0.52      0.00
    0   10   12     -1.05      0.00
    1   10   10      0.58      0.00
    2   10    8      0.36      0.00
    3   10    6     -0.79      0.00
    4   10    4      0.41      0.00
    5   10    2     -2.55      0.00
    6   10    0      1.99      0.00
   -7   10    2      0.23      0.00
   -8   10    4     -0.51      0.00
   -9   10    6     -0.60      0.00
  -10   10    8     -0.45      0.00
  -11   10   10     -0.38      0.00
  -12   10   12     -0.19      0.00
    0   11   12     -0.61      0.00
    1   11   10      1.05      0.00
    2   11    8      1.06      0.00
    3   11    6     -0.97      0.00
    4   11    4      1.01      0.00
    5   11    2     -0.36      0.00
    6   11    0     -0.74      0.00
   -7   11    2     -1.35      0.00
   -8   11    4      1.23      0.00
   -9   11    6      0.21      0.00
  -10   11    8     -0.71      0.00
  -11   11   10     -0.21      0.00
    1   12   10     -0.55      0.00
    2   12    8      0.07      0.00
    3   12    6     -0.55      0.00
    4   12    4      0.79      0.00
    5   12    2     -1.06      0.00
    6   12    0     -0.58      0.00
   -7   12    2     -0.30      0.00
   -8   12    4     -0.19      0.00
   -9   12    6     -0.16      0.00
  -10   12    8     -0.73      0.00
  -11   12   10      1.20      0.00
    1   13   10     -0.35      0.00
    2   13    8      1.60      0.00
    3   13    6      0.18      0.00
    4   13    4      0.03      0.00
    5   13    2     -0.71      0.00
    6   13    0     -0.39      0.00
   -7   13    2     -1.34      0.00
   -8   13    4      0.38      0.00
   -9   13    6     -0.08      0.00
  -10   13    8     -0.86      0.00
    2   14    8     -0.03      0.00
    3   14    6     -0.75      0.00
    4   14    4      1.27      0.00
    5   14    2     -0.98      0.00
    6   14    0     -0.63      0.00
   -7   14    2      0.79      0.00
   -8   14    4     -0.81      0.00
   -9   14    6     -0.31      0.00
    3   15    6      0.68      0.00
    4   15    4     -0.77      0.00
    5   15    2     -0.04      0.00
    6   15    0     -0.14      0.00
   -7   15    2     -0.06      0.00
    4   16    4      0.44      0.00
    5   16    2      0.16      0.00
    6   16    0      0.91      0.00
   -7   16    2     -0.02      0.00
   -1    1   15      0.92      0.00
    0    1   13     -0.63      0.00
    1    1   11     -0.83      0.00
    2    1    9     -1.02      0.00
    3    1    7      0.65      0.00
    4    1    5      2.38      0.00
    5    1    3     -6.78      0.00
    6    1    1     10.32      0.00
   -7    1    1     -5.07      0.00
   -8    1    3     -3.66      0.00
   -9    1    5      1.65      0.00
  -10    1    7      1.13      0.00
  -11    1    9     -0.86      0.00
  -12    1   11      0.65      0.00
  -13    1   13     -0.03      0.00
  -14    1   15      0.36      0.00
   -1    2   15     -0.84      0.00
    0    2   13      0.65      0.00
    1    2   11      0.14      0.00
    2    2    9     -0.47      0.00
    3    2    7      0.64      0.00
    4    2    5     -0.45      0.00
    5    2    3      1.27      0.00
    6    2    1      0.63      0.00
   -7    2    1     -0.02      0.00
   -8    2    3      3.52      0.00
   -9    2    5     -1.43      0.00
  -10    2    7     -1.04      0.00
  -11    2    9      3.18      0.00
  -12    2   11     -1.14      0.00
  -13    2   13      0.64      0.00
   -1    3   15      0.00      0.00
    0    3   13      1.13      0.00
    1    3   11     -0.30      0.00
    2    3    9     -0.39      0.00
    3    3    7     -2.52      0.00
    4    3    5      4.82      0.00
    5    3    3     -2.20      0.00
    6    3    1      3.13      0.00
   -7    3    1      0.09      0.00
   -8    3    3     -1.83      0.00
   -9    3    5     -0.59      0.00
  -10    3    7      1.17      0.00
  -11    3    9      0.53      0.00
  -12    3   11      0.73      0.00
  -13    3   13      0.09      0.00
   -1    4   15     -1.33      0.00
    0    4   13     -0.22      0.00
    1    4   11      1.17      0.00
    2    4    9      0.23      0.00
    3    4    7      0.16      0.00
    4    4    5     -1.40      0.00
    5    4    3      2.58      0.00
    6    4    1      0.31      0.00
   -7    4    1     -0.95      0.00
   -8    4    3      2.39      0.00
   -9    4    5     -2.02      0.00
  -10    4    7     -0.48      0.00
  -11    4    9      3.35      0.00
  -12    4   11     -0.76      0.00
  -13    4   13     -0.48      0.00
   -1    5   15      1.13      0.00
    0    5   13     -0.62      0.00
    1    5   11      0.42      0.00
    2    5    9      1.76      0.00
    3    5    7     -2.03      0.00
    4    5    5      0.43      0.00
    5    5    3      2.46      0.00
    6    5    1     -2.67      0.00
   -7    5    1      2.53      0.00
   -8    5    3     -0.05      0.00
   -9    5    5     -0.45      0.00
  -10    5    7      0.79      0.00
  -11    5    9     -0.02      0.00
  -12    5   11      0.61      0.00
  -13    5   13      0.06      0.00
   -1    6   15     -0.86      0.00
    0    6   13     -1.40      0.00
    1    6   11      3.17      0.00
    2    6    9     -0.40      0.00
    3    6    7     -0.56      0.00
    4    6    5     -1.22      0.00
    5    6    3      1.32      0.00
    6    6    1      2.17      0.00
   -7    6    1     -1.39      0.00
   -8    6    3      0.37      0.00
   -9    6    5      0.13      0.00
  -10    6    7     -1.10      0.00
  -11    6    9      1.92      0.00
  -12    6   11     -0.04      0.00
  -13    6   13     -1.55      0.00
   -1    7   15      1.57      0.00
    0    7   13     -1.19      0.00
    1    7   11      0.68      0.00
    2    7    9      1.04      0.00
    3    7    7     -0.92      0.00
    4    7    5     -1.17      0.00
    5    7    3      4.10      0.00
    6    7    1     -4.25      0.00
   -7    7    1      1.88      0.00
   -8    7    3     -0.68      0.00
   -9    7    5      0.11      0.00
  -10    7    7     -0.11      0.00
  -11    7    9      1.33      0.00
  -12    7   11      0.13      0.00
  -13    7   13     -0.11      0.00
    0    8   13     -0.30      0.00
    1    8   11      1.45      0.00
    2    8    9     -0.12      0.00
    3    8    7     -0.90      0.00
    4    8    5     -0.68      0.00
    5    8    3      1.74      0.00
    6    8    1      0.39      0.00
   -7    8    1      0.11      0.00
   -8    8    3     -2.34      0.00
   -9    8    5      1.07      0.00
  -10    8    7     -0.95      0.00
  -11    8    9      0.72      0.00
  -12    8   11     -0.27      0.00
    0    9   13      0.36      0.00
    1    9   11     -0.63      0.00
    2    9    9      0.66      0.00
    3    9    7      1.48      0.00
    4    9    5     -0.65      0.00
    5    9    3      0.59      0.00
    6    9    1     -0.92      0.00
   -7    9    1      0.20      0.00
   -8    9    3     -0.76      0.00
   -9    9    5      1.33      0.00
  -10    9    7      0.00      0.00
  -11    9    9      0.21      0.00
  -12    9   11      0.56      0.00
    0   10   13      0.70      0.00
    1   10   11     -0.72      0.00
    2   10    9     -0.44      0.00
    3   10    7      0.24      0.00
    4   10    5     -2.16      0.00
    5   10    3      1.85      0.00
    6   10    1      0.31      0.00
   -7   10    1      0.50      0.00
   -8   10    3     -1.35      0.00
   -9   10    5     -0.37      0.00
  -10   10    7      1.85      0.00
  -11   10    9     -0.71      0.00
  -12   10   11     -0.72      0.00
    1   11   11      0.38      0.00
    2   11    9     -0.26      0.00
    3   11    7      0.88      0.00
    4   11    5     -0.61      0.00
    5   11    3      1.49      0.00
    6   11    1     -0.59      0.00
   -7   11    1      0.32      0.00
   -8   11    3     -0.23      0.00
   -9   11    5      0.34      0.00
  -10   11    7      1.02      0.00
  -11   11    9     -0.06      0.00
    1   12   11      0.75      0.00
    2   12    9     -2.20      0.00
    3   12    7      0.14      0.00
    4   12    5     -0.93      0.00
    5   12    3      0.95      0.00
    6   12    1      0.53      0.00
   -7   12    1      0.75      0.00
   -8   12    3     -0.05      0.00
   -9   12    5     -0.04      0.00
  -10   12    7      0.32      0.00
  -11   12    9      0.31      0.00
    2   13    9     -0.03      0.00
    3   13    7     -0.98      0.00
    4   13    5     -0.14      0.00
    5   13    3      0.90      0.00
    6   13    1      0.87      0.00
   -7   13    1     -0.09      0.00
   -8   13    3     -0.36      0.00
   -9   13    5      0.88      0.00
  -10   13    7     -0.07      0.00
    3   14    7      0.23      0.00
    4   14    5      0.24      0.00
    5   14    3     -0.23      0.00
    6   14    1     -0.10      0.00
   -7   14    1     -0.03      0.00
   -8   14    3     -0.01      0.00
   -9   14    5     -0.29      0.00
  -10   14    7      0.87      0.00
    4   15    5     -0.87      0.00
    5   15    3      0.17      0.00
    6   15    1     -0.57      0.00
   -7   15    1      0.20      0.00
   -9   15    5     -0.37      0.00
    5   16    3     -1.15      0.00
    6   16    1      0.53      0.00
   -7   16    1     -0.17      0.00
   -1    0   16      0.50      0.00
    0    0   14     -0.36      0.00
    1    0   12      1.72      0.00
    2    0   10     -0.74      0.00
    3    0    8     -0.08      0.00
    4    0    6     -1.02      0.00
    5    0    4      6.31      0.00
    7    0    0      7.50      0.00
   -8    0    2      4.01      0.00
   -9    0    4     -4.53      0.00
  -10    0    6     -1.02      0.00
  -11    0    8      3.24      0.00
  -12    0   10     -1.67      0.00
  -13    0   12      0.14      0.00
  -14    0   14     -0.55      0.00
   -1    1   16      0.73      0.00
    0    1   14     -1.56      0.00
    1    1   12      0.67      0.00
    2    1   10      0.47      0.00
    3    1    8      0.81      0.00
    4    1    6     -2.18      0.00
    5    1    4      0.69      0.00
    6    1    2      2.14      0.00
    7    1    0     -1.33      0.00
   -8    1    2     -1.71      0.00
   -9    1    4     -1.42      0.00
  -10    1    6      0.95      0.00
  -11    1    8     -1.16      0.00
  -12    1   10      0.59      0.00
  -13    1   12     -0.50      0.00
  -14    1   14      0.06      0.00
   -1    2   16      0.79      0.00
    0    2   14     -1.17      0.00
    1    2   12      0.96      0.00
    2    2   10     -0.19      0.00
    3    2    8      0.52      0.00
    4    2    6     -2.23      0.00
    5    2    4      4.29      0.00
    6    2    2     -8.01      0.00
    7    2    0      4.48      0.00
   -8    2    2      2.95      0.00
   -9    2    4     -2.83      0.00
  -10    2    6     -0.54      0.00
  -11    2    8      1.25      0.00
  -12    2   10     -0.95      0.00
  -13    2   12      0.56      0.00
  -14    2   14     -0.52      0.00
   -1    3   16      0.78      0.00
    0    3   14     -0.78      0.00
    1    3   12      0.23      0.00
    2    3   10     -1.54      0.00
    3    3    8      2.11      0.00
    4    3    6     -1.07      0.00
    5    3    4     -1.11      0.00
    6    3    2      3.28      0.00
    7    3    0     -1.16      0.00
   -8    3    2     -1.11      0.00
   -9    3    4     -1.93      0.00
  -10    3    6      0.73      0.00
  -11    3    8     -3.52      0.00
  -12    3   10      1.72      0.00
  -13    3   12     -0.48      0.00
  -14    3   14      0.47      0.00
   -1    4   16     -0.10      0.00
    0    4   14      0.23      0.00
    1    4   12     -0.97      0.00
    2    4   10     -0.61      0.00
    3    4    8      1.39      0.00
    4    4    6     -0.94      0.00
    5    4    4     -0.06      0.00
    6    4    2     -0.82      0.00
    7    4    0     -0.81      0.00
   -8    4    2      1.46      0.00
   -9    4    4      0.36      0.00
  -10    4    6     -0.37      0.00
  -11    4    8     -1.04      0.00
  -12    4   10      0.76      0.00
  -13    4   12     -1.23      0.00
  -14    4   14      0.66      0.00
    0    5   14     -0.39      0.00
    1    5   12     -1.15      0.00
    2    5   10     -1.15      0.00
    3    5    8      1.96      0.00
    4    5    6     -0.39      0.00
    5    5    4     -2.21      0.00
    6    5    2      0.70      0.00
    7    5    0     -0.99      0.00
   -8    5    2     -1.47      0.00
   -9    5    4     -0.01      0.00
  -10    5    6     -0.29      0.00
  -11    5    8     -1.66      0.00
  -12    5   10      0.67      0.00
  -13    5   12      0.46      0.00
    0    6   14      1.45      0.00
    1    6   12     -1.54      0.00
    2    6   10     -0.36      0.00
    3    6    8      0.32      0.00
    4    6    6      0.88      0.00
    5    6    4     -3.25      0.00
    6    6    2      4.20      0.00
    7    6    0     -2.67      0.00
   -8    6    2      0.65      0.00
   -9    6    4      0.52      0.00
  -10    6    6     -0.57      0.00
  -11    6    8     -1.30      0.00
  -12    6   10      1.00      0.00
  -13    6   12      0.14      0.00
    0    7   14     -1.30      0.00
    1    7   12     -0.23      0.00
    2    7   10     -0.55      0.00
    3    7    8      0.50      0.00
    4    7    6     -0.78      0.00
    5    7    4      0.72      0.00
    6    7    2     -3.29      0.00
    7    7    0      0.84      0.00
   -8    7    2      0.73      0.00
   -9    7    4     -0.36      0.00
  -10    7    6      0.10      0.00
  -11    7    8     -1.07      0.00
  -12    7   10      0.57      0.00
  -13    7   12      0.00      0.00
    0    8   14      0.57      0.00
    1    8   12     -0.09      0.00
    2    8   10     -1.80      0.00
    3    8    8     -0.50      0.00
    4    8    6      2.13      0.00
    5    8    4     -3.07      0.00
    6    8    2      2.38      0.00
    7    8    0     -0.44      0.00
   -8    8    2      0.13      0.00
   -9    8    4     -1.01      0.00
  -10    8    6      1.18      0.00
  -11    8    8     -1.89      0.00
  -12    8   10     -0.35      0.00
  -13    8   12      1.86      0.00
    1    9   12      1.32      0.00
    2    9   10     -0.53      0.00
    3    9    8     -0.07      0.00
    4    9    6      0.86      0.00
    5    9    4     -0.66      0.00
    6    9    2     -1.39      0.00
    7    9    0      0.20      0.00
   -8    9    2      1.22      0.00
   -9    9    4     -0.08      0.00
  -10    9    6     -0.95      0.00
  -11    9    8      0.22      0.00
  -12    9   10     -0.43      0.00
    1   10   12     -0.90      0.00
    2   10   10     -0.53      0.00
    3   10    8     -0.93      0.00
    4   10    6      1.44      0.00
    5   10    4     -0.62      0.00
    6   10    2     -1.32      0.00
    7   10    0      1.02      0.00
   -8   10    2      0.83      0.00
   -9   10    4     -1.51      0.00
  -10   10    6     -0.45      0.00
  -11   10    8      0.55      0.00
  -12   10   10     -1.08      0.00
    1   11   12     -0.58      0.00
    2   11   10      2.07      0.00
    3   11    8     -0.01      0.00
    4   11    6      0.44      0.00
    5   11    4     -1.89      0.00
    6   11    2      0.02      0.00
    7   11    0      0.41      0.00
   -8   11    2      0.05      0.00
   -9   11    4     -0.05      0.00
  -10   11    6     -0.95      0.00
  -11   11    8      1.05      0.00
  -12   11   10      1.52      0.00
    2   12   10      0.32      0.00
    3   12    8      0.53      0.00
    4   12    6      0.03      0.00
    5   12    4     -0.50      0.00
    6   12    2     -0.65      0.00
    7   12    0      0.55      0.00
   -8   12    2      0.29      0.00
   -9   12    4     -0.68      0.00
  -10   12    6     -0.56      0.00
  -11   12    8     -0.21      0.00
    3   13    8      0.19      0.00
    4   13    6      0.61      0.00
    5   13    4     -0.72      0.00
    6   13    2      0.11      0.00
    7   13    0     -0.21      0.00
   -8   13    2     -0.35      0.00
   -9   13    4      0.21      0.00
  -10   13    6     -0.43      0.00
  -11   13    8      0.57      0.00
    3   14    8      0.82      0.00
    4   14    6      0.02      0.00
    5   14    4      0.59      0.00
    6   14    2     -0.43      0.00
    7   14    0     -0.24      0.00
   -8   14    2     -1.18      0.00
   -9   14    4      0.65      0.00
  -10   14    6     -0.64      0.00
    4   15    6      0.42      0.00
    5   15    4      1.12      0.00
    6   15    2     -0.39      0.00
    7   15    0     -1.33      0.00
   -8   15    2     -0.88      0.00
   -9   15    4      0.02      0.00
    0    1   15      1.93      0.00
    1    1   13     -1.64      0.00
    2    1   11      1.53      0.00
    3    1    9     -1.50      0.00
    4    1    7      1.64      0.00
    5    1    5     -3.82      0.00
    7    1    1     -5.68      0.00
   -8    1    1     -2.08      0.00
   -9    1    3      4.11      0.00
  -10    1    5     -0.05      0.00
  -11    1    7     -2.47      0.00
  -12    1    9      1.91      0.00
  -13    1   11     -0.41      0.00
  -14    1   13      0.82      0.00
    0    2   15      0.92      0.00
    1    2   13     -0.26      0.00
    2    2   11     -0.07      0.00
    3    2    9     -2.43      0.00
    4    2    7      3.46      0.00
    5    2    5     -3.19      0.00
    6    2    3     -3.67      0.00
    7    2    1      2.80      0.00
   -8    2    1      1.55      0.00
   -9    2    3      5.54      0.00
  -10    2    5     -3.01      0.00
  -11    2    7      1.07      0.00
  -12    2    9      0.05      0.00
  -13    2   11      0.40      0.00
  -14    2   13     -0.14      0.00
    0    3   15      0.87      0.00
    1    3   13      0.49      0.00
    2    3   11      0.92      0.00
    3    3    9     -1.74      0.00
    4    3    7     -0.17      0.00
    5    3    5      0.40      0.00
    6    3    3      3.30      0.00
    7    3    1     -3.41      0.00
   -8    3    1     -1.69      0.00
   -9    3    3      3.50      0.00
  -10    3    5     -2.09      0.00
  -11    3    7      0.01      0.00
  -12    3    9     -0.10      0.00
  -13    3   11      0.51      0.00
  -14    3   13     -0.03      0.00
    0    4   15     -0.24      0.00
    1    4   13      0.70      0.00
    2    4   11      1.15      0.00
    3    4    9     -2.85      0.00
    4    4    7      2.57      0.00
    5    4    5     -1.82      0.00
    6    4    3     -3.32      0.00
    7    4    1      2.62      0.00
   -8    4    1      2.24      0.00
   -9    4    3      3.60      0.00
  -10    4    5     -1.59      0.00
  -11    4    7      2.12      0.00
  -12    4    9     -0.59      0.00
  -13    4   11     -0.20      0.00
  -14    4   13      0.18      0.00
    0    5   15     -0.11      0.00
    1    5   13      0.78      0.00
    2    5   11      0.14      0.00
    3    5    9      0.22      0.00
    4    5    7     -1.69      0.00
    5    5    5      1.93      0.00
    6    5    3     -0.63      0.00
    7    5    1     -0.18      0.00
   -8    5    1     -1.84      0.00
   -9    5    3      1.37      0.00
  -10    5    5     -0.94      0.00
  -11    5    7      1.42      0.00
  -12    5    9     -1.87      0.00
  -13    5   11      1.16      0.00
  -14    5   13     -0.43      0.00
    0    6   15      1.52      0.00
    1    6   13     -0.51      0.00
    2    6   11      1.59      0.00
    3    6    9     -1.60      0.00
    4    6    7      1.86      0.00
    5    6    5     -1.19      0.00
    6    6    3      0.69      0.00
    7    6    1     -0.47      0.00
   -8    6    1      0.82      0.00
   -9    6    3      0.60      0.00
  -10    6    5      0.52      0.00
  -11    6    7      0.27      0.00
  -12    6    9     -0.03      0.00
  -13    6   11      1.10      0.00
  -14    6   13     -0.54      0.00
    1    7   13      0.07      0.00
    2    7   11      1.41      0.00
    3    7    9      0.48      0.00
    4    7    7     -2.77      0.00
    5    7    5      3.45      0.00
    6    7    3     -2.24      0.00
    7    7    1      0.72      0.00
   -8    7    1     -0.09      0.00
   -9    7    3      0.50      0.00
  -10    7    5     -0.57      0.00
  -11    7    7      0.84      0.00
  -12    7    9     -0.84      0.00
  -13    7   11     -0.22      0.00
    1    8   13     -1.36      0.00
    2    8   11      1.95      0.00
    3    8    9     -0.08      0.00
    4    8    7     -0.85      0.00
    5    8    5     -1.36      0.00
    6    8    3      5.94      0.00
    7    8    1     -3.53      0.00
   -8    8    1     -0.75      0.00
   -9    8    3     -0.75      0.00
  -10    8    5      1.73      0.00
  -11    8    7      0.65      0.00
  -12    8    9     -0.89      0.00
  -13    8   11     -0.55      0.00
    1    9   13      1.09      0.00
    2    9   11      0.50      0.00
    3    9    9     -0.04      0.00
    4    9    7     -1.71      0.00
    5    9    5      3.10      0.00
    6    9    3     -0.57      0.00
    7    9    1     -1.12      0.00
   -8    9    1      0.77      0.00
   -9    9    3      0.30      0.00
  -10    9    5     -0.30      0.00
  -11    9    7      1.44      0.00
  -12    9    9      0.24      0.00
  -13    9   11     -2.09      0.00
    2   10   11     -0.30      0.00
    3   10    9      0.40      0.00
    4   10    7      0.43      0.00
    5   10    5      0.12      0.00
    6   10    3      1.91      0.00
    7   10    1     -0.89      0.00
   -8   10    1      0.05      0.00
   -9   10    3     -0.22      0.00
  -10   10    5      0.19      0.00
  -11   10    7     -0.53      0.00
  -12   10    9      0.43      0.00
    2   11   11     -0.88      0.00
    3   11    9     -0.31      0.00
    4   11    7     -0.54      0.00
    5   11    5      1.05      0.00
    6   11    3      1.03      0.00
    7   11    1     -1.60      0.00
   -8   11    1     -0.12      0.00
   -9   11    3      1.32      0.00
  -10   11    5      0.29      0.00
  -11   11    7     -0.31      0.00
  -12   11    9      0.73      0.00
    3   12    9      0.02      0.00
    4   12    7      0.30      0.00
    5   12    5      0.85      0.00
    6   12    3     -0.01      0.00
    7   12    1     -0.11      0.00
   -8   12    1      0.16      0.00
   -9   12    3      0.44      0.00
  -10   12    5     -0.20      0.00
  -11   12    7     -1.35      0.00
    3   13    9     -0.81      0.00
    4   13    7     -0.67      0.00
    5   13    5     -0.05      0.00
    6   13    3      0.69      0.00
    7   13    1      0.19      0.00
   -8   13    1      0.33      0.00
   -9   13    3     -0.73      0.00
  -10   13    5      0.97      0.00
  -11   13    7      0.37      0.00
    4   14    7     -0.56      0.00
    5   14    5      0.03      0.00
    6   14    3     -0.21      0.00
    7   14    1      1.58      0.00
   -8   14    1      1.57      0.00
   -9   14    3     -0.36      0.00
  -10   14    5      0.01      0.00
    6   15    3      0.53      0.00
    7   15    1     -0.28      0.00
   -8   15    1      1.70      0.00
    0    0   16     -1.96      0.00
    1    0   14      0.52      0.00
    2    0   12      0.06      0.00
    3    0   10      1.40      0.00
    4    0    8     -3.39      0.00
    5    0    6      3.84      0.00
    6    0    4     -6.85      0.00
    7    0    2      3.00      0.00
    8    0    0      1.96      0.00
   -9    0    2     -2.01      0.00
  -10    0    4     -2.47      0.00
  -11    0    6      1.11      0.00
  -12    0    8      0.03      0.00
  -13    0   10     -0.48      0.00
  -14    0   12     -0.67      0.00
    0    1   16     -0.19      0.00
    1    1   14     -0.02      0.00
    2    1   12      0.63      0.00
    3    1   10      1.52      0.00
    4    1    8     -1.67      0.00
    5    1    6      2.29      0.00
    6    1    4      1.54      0.00
    7    1    2     -0.71      0.00
    8    1    0      0.44      0.00
   -9    1    2     -2.66      0.00
  -10    1    4      1.87      0.00
  -11    1    6     -0.08      0.00
  -12    1    8     -0.59      0.00
  -13    1   10     -0.25      0.00
  -14    1   12      0.78      0.00
    1    2   14     -0.78      0.00
    2    2   12     -0.83      0.00
    3    2   10      2.32      0.00
    4    2    8     -0.77      0.00
    5    2    6     -0.18      0.00
    6    2    4     -3.18      0.00
    7    2    2      3.45      0.00
    8    2    0      0.48      0.00
   -9    2    2     -3.26      0.00
  -10    2    4      2.07      0.00
  -11    2    6      0.49      0.00
  -12    2    8     -0.91      0.00
  -13    2   10     -0.76      0.00
  -14    2   12     -0.28      0.00
    1    3   14     -0.84      0.00
    2    3   12      0.69      0.00
    3    3   10      2.50      0.00
    4    3    8     -2.54      0.00
    5    3    6      5.14      0.00
    6    3    4      2.40      0.00
    7    3    2     -2.76      0.00
    8    3    0      3.19      0.00
   -9    3    2     -5.16      0.00
  -10    3    4      4.82      0.00
  -11    3    6     -1.42      0.00
  -12    3    8     -0.77      0.00
  -13    3   10      0.95      0.00
  -14    3   12     -0.76      0.00
    1    4   14      0.18      0.00
    2    4   12     -0.44      0.00
    3    4   10      0.48      0.00
    4    4    8      1.51      0.00
    5    4    6     -2.37      0.00
    6    4    4      0.48      0.00
    7    4    2      2.86      0.00
    8    4    0      0.89      0.00
   -9    4    2     -4.50      0.00
  -10    4    4      4.72      0.00
  -11    4    6     -1.12      0.00
  -12    4    8      0.95      0.00
  -13    4   10     -0.89      0.00
  -14    4   12     -0.14      0.00
    1    5   14     -0.16      0.00
    2    5   12     -0.98      0.00
    3    5   10      1.43      0.00
    4    5    8     -0.74      0.00
    5    5    6      3.62      0.00
    6    5    4      0.85      0.00
    7    5    2     -1.06      0.00
    8    5    0      2.74      0.00
   -9    5    2     -2.71      0.00
  -10    5    4      2.49      0.00
  -11    5    6     -1.90      0.00
  -12    5    8     -0.06      0.00
  -13    5   10      0.24      0.00
  -14    5   12      0.28      0.00
    1    6   14      0.77      0.00
    2    6   12     -1.45      0.00
    3    6   10      0.03      0.00
    4    6    8      3.51      0.00
    5    6    6     -4.30      0.00
    6    6    4      0.10      0.00
    7    6    2      3.51      0.00
    8    6    0     -0.85      0.00
   -9    6    2     -1.75      0.00
  -10    6    4      2.80      0.00
  -11    6    6     -0.89      0.00
  -12    6    8      0.31      0.00
  -13    6   10     -0.35      0.00
  -14    6   12      0.36      0.00
    1    7   14      0.40      0.00
    2    7   12     -1.39      0.00
    3    7   10      0.92      0.00
    4    7    8      0.63      0.00
    5    7    6      0.46      0.00
    6    7    4     -2.63      0.00
    7    7    2      3.22      0.00
    8    7    0     -0.33      0.00
   -9    7    2     -0.98      0.00
  -10    7    4     -0.59      0.00
  -11    7    6      0.10      0.00
  -12    7    8     -0.20      0.00
  -13    7   10     -0.57      0.00
  -14    7   12      0.69      0.00
    2    8   12     -1.02      0.00
    3    8   10      0.49      0.00
    4    8    8      1.42      0.00
    5    8    6     -3.03      0.00
    6    8    4     -0.03      0.00
    7    8    2      1.69      0.00
    8    8    0     -1.05      0.00
   -9    8    2     -0.22      0.00
  -10    8    4      0.24      0.00
  -11    8    6     -0.28      0.00
  -12    8    8      0.43      0.00
  -13    8   10     -0.24      0.00
    2    9   12     -0.09      0.00
    3    9   10     -0.64      0.00
    4    9    8      0.72      0.00
    5    9    6      0.28      0.00
    6    9    4     -5.01      0.00
    7    9    2      4.22      0.00
    8    9    0     -0.63      0.00
   -9    9    2      1.21      0.00
  -10    9    4     -1.28      0.00
  -11    9    6     -0.26      0.00
  -12    9    8      0.59      0.00
  -13    9   10      0.90      0.00
    2   10   12      1.04      0.00
    3   10   10      0.18      0.00
    4   10    8     -0.45      0.00
    5   10    6     -1.48      0.00
    6   10    4      0.73      0.00
    7   10    2      0.37      0.00
    8   10    0     -1.05      0.00
   -9   10    2      0.72      0.00
  -10   10    4     -1.31      0.00
  -11   10    6     -0.60      0.00
  -12   10    8      0.62      0.00
  -13   10   10      2.51      0.00
    3   11   10     -0.20      0.00
    4   11    8     -0.23      0.00
    5   11    6     -0.52      0.00
    6   11    4     -1.45      0.00
    7   11    2      0.90      0.00
    8   11    0      0.43      0.00
   -9   11    2      0.73      0.00
  -10   11    4      0.60      0.00
  -11   11    6      0.38      0.00
  -12   11    8     -0.73      0.00
    3   12   10      0.79      0.00
    4   12    8      0.45      0.00
    5   12    6     -1.55      0.00
    6   12    4      0.20      0.00
    7   12    2     -0.29      0.00
    8   12    0      0.37      0.00
   -9   12    2     -0.37      0.00
  -10   12    4      0.06      0.00
  -11   12    6     -0.19      0.00
  -12   12    8     -0.02      0.00
    4   13    8     -0.03      0.00
    5   13    6     -0.08      0.00
    6   13    4     -0.03      0.00
    7   13    2     -0.85      0.00
    8   13    0      1.06      0.00
   -9   13    2     -0.56      0.00
  -10   13    4      1.49      0.00
  -11   13    6     -0.02      0.00
    5   14    6     -0.22      0.00
    6   14    4     -0.36      0.00
    7   14    2     -0.21      0.00
    8   14    0     -0.42      0.00
   -9   14    2      0.42      0.00
  -10   14    4     -0.97      0.00
    7   15    2      0.08      0.00
    8   15    0      0.71      0.00
    1    1   15      1.78      0.00
    2    1   13     -1.52      0.00
    3    1   11     -0.53      0.00
    4    1    9      2.90      0.00
    5    1    7     -1.38      0.00
    6    1    5      2.08      0.00
    7    1    3     -1.03      0.00
   -9    1    1      1.57      0.00
  -10    1    3      2.73      0.00
  -11    1    5     -0.86      0.00
  -12    1    7     -1.50      0.00
  -13    1    9      2.21      0.00
  -14    1   11      0.21      0.00
  -15    1   13     -0.07      0.00
    1    2   15     -0.03      0.00
    2    2   13     -0.46      0.00
    3    2   11     -2.61      0.00
    4    2    9      0.96      0.00
    5    2    7     -3.06      0.00
    6    2    5     -2.03      0.00
    7    2    3      0.83      0.00
    8    2    1     -0.28      0.00
   -9    2    1      2.17      0.00
  -10    2    3     -1.62      0.00
  -11    2    5     -0.24      0.00
  -12    2    7     -0.74      0.00
  -13    2    9     -0.45      0.00
  -14    2   11     -0.17      0.00
  -15    2   13      1.60      0.00
    1    3   15      1.02      0.00
    2    3   13      0.09      0.00
    3    3   11     -0.36      0.00
    4    3    9     -1.76      0.00
    5    3    7      2.43      0.00
    6    3    5     -0.80      0.00
    7    3    3     -1.66      0.00
    8    3    1     -0.29      0.00
   -9    3    1      3.03      0.00
  -10    3    3     -3.48      0.00
  -11    3    5      0.16      0.00
  -12    3    7      0.83      0.00
  -13    3    9      1.05      0.00
  -14    3   11     -0.65      0.00
  -15    3   13      0.22      0.00
    1    4   15      0.40      0.00
    2    4   13     -0.49      0.00
    3    4   11     -1.81      0.00
    4    4    9     -0.50      0.00
    5    4    7     -3.60      0.00
    6    4    5     -1.07      0.00
    7    4    3      0.07      0.00
    8    4    1     -2.47      0.00
   -9    4    1      2.59      0.00
  -10    4    3     -4.89      0.00
  -11    4    5      1.92      0.00
  -12    4    7     -0.06      0.00
  -13    4    9     -1.01      0.00
  -14    4   11      0.83      0.00
    2    5   13      0.92      0.00
    3    5   11     -0.04      0.00
    4    5    9     -2.39      0.00
    5    5    7      4.47      0.00
    6    5    5     -2.53      0.00
    7    5    3     -3.68      0.00
    8    5    1      2.35      0.00
   -9    5    1      1.98      0.00
  -10    5    3     -4.76      0.00
  -11    5    5      1.55      0.00
  -12    5    7     -0.39      0.00
  -13    5    9      0.07      0.00
  -14    5   11      0.23      0.00
    2    6   13      0.30      0.00
    3    6   11     -1.41      0.00
    4    6    9     -1.64      0.00
    5    6    7     -0.52      0.00
    6    6    5      0.09      0.00
    7    6    3     -1.95      0.00
    8    6    1     -1.47      0.00
   -9    6    1      1.60      0.00
  -10    6    3     -2.35      0.00
  -11    6    5      1.95      0.00
  -12    6    7     -0.27      0.00
  -13    6    9     -0.61      0.00
  -14    6   11      0.64      0.00
    2    7   13      0.77      0.00
    3    7   11     -0.51      0.00
    4    7    9     -1.65      0.00
    5    7    7      3.93      0.00
    6    7    5      0.79      0.00
    7    7    3     -5.52      0.00
    8    7    1      2.95      0.00
   -9    7    1      0.88      0.00
  -10    7    3     -2.88      0.00
  -11    7    5      1.08      0.00
  -12    7    7      0.74      0.00
  -13    7    9     -0.68      0.00
  -14    7   11     -1.09      0.00
    2    8   13     -0.58      0.00
    3    8   11      0.46      0.00
    4    8    9     -1.05      0.00
    5    8    7      0.40      0.00
    6    8    5      1.85      0.00
    7    8    3     -2.40      0.00
    8    8    1     -0.25      0.00
   -9    8    1      0.71      0.00
  -10    8    3     -0.91      0.00
  -11    8    5      0.52      0.00
  -12    8    7      0.96      0.00
  -13    8    9     -0.11      0.00
  -14    8   11     -1.20      0.00
    3    9   11     -0.95      0.00
    4    9    9      1.26      0.00
    5    9    7      0.02      0.00
    6    9    5      1.06      0.00
    7    9    3     -1.18      0.00
    8    9    1      0.79      0.00
   -9    9    1      0.10      0.00
  -10    9    3      0.80      0.00
  -11    9    5     -0.79      0.00
  -12    9    7     -0.63      0.00
  -13    9    9      0.01      0.00
    3   10   11      0.70      0.00
    4   10    9     -0.91      0.00
    5   10    7      1.78      0.00
    6   10    5      1.52      0.00
    7   10    3     -2.02      0.00
    8   10    1     -0.08      0.00
   -9   10    1     -2.16      0.00
  -10   10    3      1.26      0.00
  -11   10    5     -0.16      0.00
  -12   10    7     -0.39      0.00
  -13   10    9     -0.88      0.00
    4   11    9      0.83      0.00
    5   11    7      0.82      0.00
    6   11    5     -0.58      0.00
    7   11    3      1.25      0.00
    8   11    1     -0.23      0.00
   -9   11    1     -1.05      0.00
  -10   11    3      1.69      0.00
  -11   11    5     -0.20      0.00
  -12   11    7     -0.72      0.00
    4   12    9     -0.02      0.00
    5   12    7      1.20      0.00
    6   12    5     -0.10      0.00
    7   12    3     -0.08      0.00
    8   12    1     -0.69      0.00
   -9   12    1     -0.79      0.00
  -10   12    3     -1.22      0.00
  -11   12    5      0.47      0.00
  -12   12    7      0.01      0.00
    5   13    7      0.87      0.00
    6   13    5     -0.41      0.00
    7   13    3      0.94      0.00
    8   13    1     -0.40      0.00
   -9   13    1      0.40      0.00
  -10   13    3     -0.77      0.00
  -11   13    5      0.61      0.00
    6   14    5     -0.40      0.00
    7   14    3      0.08      0.00
    8   14    1     -0.05      0.00
   -9   14    1     -0.12      0.00
  -10   14    3     -0.31      0.00
    2    0   14      1.04      0.00
    3    0   12      0.51      0.00
    4    0   10     -3.47      0.00
    5    0    8      0.66      0.00
    6    0    6      1.23      0.00
    7    0    4     -0.82      0.00
    8    0    2      0.43      0.00
    9    0    0     -1.45      0.00
  -10    0    2     -2.33      0.00
  -11    0    4      1.09      0.00
  -12    0    6      1.67      0.00
  -13    0    8     -2.64      0.00
  -14    0   10     -0.46      0.00
  -15    0   12      0.76      0.00
    2    1   14     -0.44      0.00
    3    1   12      2.53      0.00
    4    1   10      0.30      0.00
    5    1    8     -0.82      0.00
    6    1    6      1.94      0.00
    7    1    4     -0.71      0.00
    8    1    2     -1.13      0.00
    9    1    0      1.58      0.00
  -10    1    2     -0.60      0.00
  -11    1    4      2.51      0.00
  -12    1    6      2.04      0.00
  -13    1    8     -0.95      0.00
  -14    1   10     -0.25      0.00
  -15    1   12     -0.93      0.00
    2    2   14      1.44      0.00
    3    2   12     -0.89      0.00
    4    2   10      0.16      0.00
    5    2    8     -1.33      0.00
    6    2    6      1.36      0.00
    7    2    4     -0.46      0.00
    8    2    2      1.68      0.00
    9    2    0     -2.23      0.00
  -10    2    2     -1.72      0.00
  -11    2    4      2.11      0.00
  -12    2    6      0.43      0.00
  -13    2    8     -1.92      0.00
  -14    2   10      0.94      0.00
  -15    2   12     -0.94      0.00
    2    3   14      0.17      0.00
    3    3   12      2.18      0.00
    4    3   10      0.71      0.00
    5    3    8      1.50      0.00
    6    3    6      2.33      0.00
    7    3    4      0.01      0.00
    8    3    2     -1.16      0.00
    9    3    0      1.59      0.00
  -10    3    2      1.73      0.00
  -11    3    4      1.47      0.00
  -12    3    6      1.69      0.00
  -13    3    8      0.14      0.00
  -14    3   10     -0.17      0.00
  -15    3   12     -0.94      0.00
    2    4   14     -0.01      0.00
    3    4   12     -0.50      0.00
    4    4   10      2.84      0.00
    5    4    8     -4.40      0.00
    6    4    6      3.19      0.00
    7    4    4      1.67      0.00
    8    4    2     -1.50      0.00
    9    4    0     -1.20      0.00
  -10    4    2      2.19      0.00
  -11    4    4      0.54      0.00
  -12    4    6     -0.94      0.00
  -13    4    8     -0.16      0.00
  -14    4   10      0.65      0.00
  -15    4   12     -0.38      0.00
    2    5   14      1.07      0.00
    3    5   12      1.85      0.00
    4    5   10      0.73      0.00
    5    5    8      0.32      0.00
    6    5    6      2.33      0.00
    7    5    4      1.85      0.00
    8    5    2     -0.13      0.00
    9    5    0      0.99      0.00
  -10    5    2      2.93      0.00
  -11    5    4     -0.83      0.00
  -12    5    6      0.42      0.00
  -13    5    8      0.20      0.00
  -14    5   10     -0.87      0.00
  -15    5   12      0.56      0.00
    2    6   14     -0.31      0.00
    3    6   12     -0.55      0.00
    4    6   10      1.27      0.00
    5    6    8     -3.16      0.00
    6    6    6      1.75      0.00
    7    6    4      3.31      0.00
    8    6    2     -2.48      0.00
    9    6    0     -0.37      0.00
  -10    6    2      2.56      0.00
  -11    6    4     -1.30      0.00
  -12    6    6      0.28      0.00
  -13    6    8      0.77      0.00
  -14    6   10     -0.29      0.00
    3    7   12      1.09      0.00
    4    7   10      0.87      0.00
    5    7    8     -0.10      0.00
    6    7    6     -0.65      0.00
    7    7    4      1.82      0.00
    8    7    2      2.05      0.00
    9    7    0     -0.50      0.00
  -10    7    2      1.49      0.00
  -11    7    4     -2.14      0.00
  -12    7    6      0.08      0.00
  -13    7    8      0.48      0.00
  -14    7   10     -0.37      0.00
    3    8   12      0.39      0.00
    4    8   10     -0.35      0.00
    5    8    8     -0.77      0.00
    6    8    6     -1.77      0.00
    7    8    4      4.10      0.00
    8    8    2     -2.15      0.00
    9    8    0     -0.78      0.00
  -10    8    2      2.05      0.00
  -11    8    4     -0.61      0.00
  -12    8    6     -0.54      0.00
  -13    8    8      1.22      0.00
  -14    8   10     -0.05      0.00
    3    9   12     -0.41      0.00
    4    9   10      0.73      0.00
    5    9    8     -1.37      0.00
    6    9    6      0.27      0.00
    7    9    4     -0.35      0.00
    8    9    2      1.89      0.00
    9    9    0     -0.81      0.00
  -10    9    2      1.17      0.00
  -11    9    4     -1.30      0.00
  -12    9    6     -0.56      0.00
  -13    9    8      0.45      0.00
    4   10   10     -1.64      0.00
    5   10    8      0.22      0.00
    6   10    6     -0.81      0.00
    7   10    4      0.45      0.00
    8   10    2     -0.38      0.00
    9   10    0     -0.13      0.00
  -10   10    2     -0.37      0.00
  -11   10    4      1.15      0.00
  -12   10    6     -0.06      0.00
  -13   10    8     -0.60      0.00
    4   11   10      0.35      0.00
    5   11    8     -2.44      0.00
    6   11    6      1.74      0.00
    7   11    4     -0.25      0.00
    8   11    2      0.13      0.00
    9   11    0     -1.79      0.00
  -10   11    2     -1.17      0.00
  -11   11    4      1.18      0.00
  -12   11    6      0.38      0.00
    5   12    8     -0.06      0.00
    6   12    6     -0.44      0.00
    7   12    4     -0.73      0.00
    8   12    2      0.37      0.00
    9   12    0      0.82      0.00
  -10   12    2     -1.12      0.00
  -11   12    4      0.30      0.00
  -12   12    6     -0.01      0.00
    6   13    6      1.24      0.00
    7   13    4     -0.54      0.00
    8   13    2     -0.21      0.00
    9   13    0     -0.82      0.00
  -10   13    2     -0.07      0.00
  -11   13    4     -0.41      0.00
    7   14    4     -0.78      0.00
    8   14    2     -0.65      0.00
    9   14    0     -0.09      0.00
    3    1   13     -1.28      0.00
    4    1   11      2.23      0.00
    5    1    9      1.24      0.00
    6    1    7     -3.35      0.00
    7    1    5      1.88      0.00
    8    1    3     -0.40      0.00
    9    1    1      1.31      0.00
  -10    1    1      0.99      0.00
  -11    1    3     -0.92      0.00
  -12    1    5     -0.69      0.00
  -13    1    7      0.48      0.00
  -14    1    9     -0.03      0.00
  -15    1   11     -0.13      0.00
    3    2   13     -1.53      0.00
    4    2   11     -1.31      0.00
    5    2    9      2.66      0.00
    6    2    7     -3.36      0.00
    7    2    5      0.80      0.00
    8    2    3      2.06      0.00
    9    2    1     -2.30      0.00
  -10    2    1     -1.04      0.00
  -11    2    3     -4.49      0.00
  -12    2    5     -1.82      0.00
  -13    2    7      1.37      0.00
  -14    2    9      0.26      0.00
  -15    2   11     -0.15      0.00
    3    3   13      1.61      0.00
    4    3   11     -1.37      0.00
    5    3    9      1.97      0.00
    6    3    7     -2.58      0.00
    7    3    5      0.15      0.00
    8    3    3      0.04      0.00
    9    3    1      2.46      0.00
  -10    3    1      0.64      0.00
  -11    3    3     -3.98      0.00
  -12    3    5      0.78      0.00
  -13    3    7      1.14      0.00
  -14    3    9     -0.30      0.00
  -15    3   11      0.64      0.00
    3    4   13     -1.02      0.00
    4    4   11      0.04      0.00
    5    4    9     -0.90      0.00
    6    4    7     -3.09      0.00
    7    4    5      0.59      0.00
    8    4    3      2.36      0.00
    9    4    1     -1.79      0.00
  -10    4    1     -1.45      0.00
  -11    4    3     -3.18      0.00
  -12    4    5      0.04      0.00
  -13    4    7     -0.20      0.00
  -14    4    9      0.01      0.00
  -15    4   11      0.31      0.00
    3    5   13      0.24      0.00
    4    5   11     -1.15      0.00
    5    5    9      2.69      0.00
    6    5    7     -1.74      0.00
    7    5    5     -1.90      0.00
    8    5    3      0.58      0.00
    9    5    1      2.01      0.00
  -10    5    1     -1.44      0.00
  -11    5    3     -1.20      0.00
  -12    5    5      1.39      0.00
  -13    5    7     -0.65      0.00
  -14    5    9     -0.13      0.00
  -15    5   11     -0.14      0.00
    3    6   13     -1.14      0.00
    4    6   11      0.33      0.00
    5    6    9     -0.31      0.00
    6    6    7     -0.93      0.00
    7    6    5     -1.78      0.00
    8    6    3     -0.06      0.00
    9    6    1      0.67      0.00
  -10    6    1     -0.33      0.00
  -11    6    3     -0.67      0.00
  -12    6    5      0.43      0.00
  -13    6    7      1.07      0.00
  -14    6    9      0.00      0.00
  -15    6   11     -0.47      0.00
    3    7   13      0.38      0.00
    4    7   11     -0.61      0.00
    5    7    9      0.91      0.00
    6    7    7      0.65      0.00
    7    7    5     -2.65      0.00
    8    7    3      0.21      0.00
    9    7    1      1.35      0.00
  -10    7    1     -0.63      0.00
  -11    7    3     -0.53      0.00
  -12    7    5      0.02      0.00
  -13    7    7     -0.84      0.00
  -14    7    9      1.00      0.00
    4    8   11      0.51      0.00
    5    8    9      0.13      0.00
    6    8    7      0.17      0.00
    7    8    5     -0.42      0.00
    8    8    3     -2.23      0.00
    9    8    1      1.49      0.00
  -10    8    1     -0.22      0.00
  -11    8    3      2.10      0.00
  -12    8    5     -0.60      0.00
  -13    8    7      0.10      0.00
  -14    8    9      0.49      0.00
    4    9   11      0.36      0.00
    5    9    9      0.66      0.00
    6    9    7      0.35      0.00
    7    9    5     -2.14      0.00
    8    9    3      1.93      0.00
    9    9    1      0.08      0.00
  -10    9    1     -2.02      0.00
  -11    9    3      0.88      0.00
  -12    9    5      0.32      0.00
  -13    9    7     -0.74      0.00
  -14    9    9     -0.57      0.00
    5   10    9      1.23      0.00
    6   10    7     -1.74      0.00
    7   10    5      1.31      0.00
    8   10    3     -1.36      0.00
    9   10    1      0.89      0.00
  -10   10    1     -0.88      0.00
  -11   10    3      0.49      0.00
  -12   10    5      0.52      0.00
  -13   10    7     -0.08      0.00
    5   11    9      0.16      0.00
    6   11    7      0.04      0.00
    7   11    5     -0.43      0.00
    8   11    3      0.90      0.00
    9   11    1     -0.56      0.00
  -10   11    1     -0.25      0.00
  -11   11    3     -0.41      0.00
  -12   11    5      0.35      0.00
  -13   11    7      0.84      0.00
    6   12    7     -1.82      0.00
    7   12    5      1.32      0.00
    8   12    3      0.33      0.00
    9   12    1      1.02      0.00
  -10   12    1      1.58      0.00
  -11   12    3     -2.08      0.00
  -12   12    5      0.61      0.00
    7   13    5     -0.24      0.00
    8   13    3      0.31      0.00
    9   13    1     -0.33      0.00
  -10   13    1     -0.42      0.00
  -11   13    3      0.32      0.00
    3    0   14      2.56      0.00
    4    0   12     -3.39      0.00
    5    0   10     -2.43      0.00
    6    0    8      5.87      0.00
    7    0    6     -2.46      0.00
    8    0    4     -0.53      0.00
    9    0    2      0.10      0.00
   10    0    0     -0.76      0.00
  -11    0    2     -1.49      0.00
  -12    0    4      2.79      0.00
  -13    0    6      1.85      0.00
  -14    0    8     -0.78      0.00
  -15    0   10     -0.13      0.00
    3    1   14     -1.41      0.00
    4    1   12      2.06      0.00
    5    1   10     -1.95      0.00
    6    1    8      1.45      0.00
    7    1    6     -0.68      0.00
    8    1    4     -0.22      0.00
    9    1    2     -0.07      0.00
   10    1    0     -0.89      0.00
  -11    1    2      1.43      0.00
  -12    1    4      0.64      0.00
  -13    1    6      0.45      0.00
  -14    1    8     -0.42      0.00
  -15    1   10      0.63      0.00
    3    2   14      0.15      0.00
    4    2   12     -0.61      0.00
    5    2   10     -0.24      0.00
    6    2    8      1.68      0.00
    7    2    6     -0.60      0.00
    8    2    4     -1.09      0.00
    9    2    2     -1.45      0.00
   10    2    0      0.90      0.00
  -11    2    2      1.98      0.00
  -12    2    4     -0.30      0.00
  -13    2    6     -0.22      0.00
  -14    2    8     -0.36      0.00
  -15    2   10      0.64      0.00
    3    3   14     -0.15      0.00
    4    3   12      0.57      0.00
    5    3   10     -1.54      0.00
    6    3    8      3.16      0.00
    7    3    6     -1.49      0.00
    8    3    4     -2.26      0.00
    9    3    2      2.22      0.00
   10    3    0     -1.52      0.00
  -11    3    2      5.17      0.00
  -12    3    4     -0.27      0.00
  -13    3    6     -0.10      0.00
  -14    3    8     -0.24      0.00
  -15    3   10      0.24      0.00
    4    4   12     -0.42      0.00
    5    4   10      0.26      0.00
    6    4    8      0.05      0.00
    7    4    6      1.11      0.00
    8    4    4     -0.28      0.00
    9    4    2     -3.40      0.00
   10    4    0      1.83      0.00
  -11    4    2      2.90      0.00
  -12    4    4     -2.29      0.00
  -13    4    6      0.27      0.00
  -14    4    8     -0.67      0.00
  -15    4   10      0.67      0.00
    4    5   12     -0.29      0.00
    5    5   10      0.86      0.00
    6    5    8      0.85      0.00
    7    5    6     -0.17      0.00
    8    5    4     -0.59      0.00
    9    5    2      0.34      0.00
   10    5    0     -1.11      0.00
  -11    5    2      3.11      0.00
  -12    5    4     -2.32      0.00
  -13    5    6     -0.17      0.00
  -14    5    8      0.35      0.00
  -15    5   10      0.01      0.00
    4    6   12     -0.30      0.00
    5    6   10     -1.15      0.00
    6    6    8     -0.38      0.00
    7    6    6      3.11      0.00
    8    6    4      0.21      0.00
    9    6    2     -4.00      0.00
   10    6    0      1.73      0.00
  -11    6    2      1.99      0.00
  -12    6    4     -2.50      0.00
  -13    6    6      1.45      0.00
  -14    6    8     -0.32      0.00
  -15    6   10      0.57      0.00
    4    7   12     -0.32      0.00
    5    7   10     -0.13      0.00
    6    7    8      0.42      0.00
    7    7    6      0.95      0.00
    8    7    4     -0.29      0.00
    9    7    2      0.49      0.00
   10    7    0      0.02      0.00
  -11    7    2      0.75      0.00
  -12    7    4     -1.16      0.00
  -13    7    6     -1.71      0.00
  -14    7    8     -0.04      0.00
    5    8   10     -0.88      0.00
    6    8    8      0.09      0.00
    7    8    6      1.52      0.00
    8    8    4     -0.45      0.00
    9    8    2     -1.18      0.00
   10    8    0      0.57      0.00
  -11    8    2      1.26      0.00
  -12    8    4     -0.43      0.00
  -13    8    6      0.27      0.00
  -14    8    8      0.22      0.00
    5    9   10      0.00      0.00
    6    9    8      0.83      0.00
    7    9    6     -0.42      0.00
    8    9    4      0.60      0.00
    9    9    2     -0.15      0.00
   10    9    0      0.26      0.00
  -11    9    2     -0.56      0.00
  -12    9    4     -0.12      0.00
  -13    9    6     -0.71      0.00
  -14    9    8     -1.35      0.00
    5   10   10     -0.88      0.00
    6   10    8      1.39      0.00
    7   10    6      0.44      0.00
    8   10    4     -1.80      0.00
    9   10    2      1.08      0.00
   10   10    0      1.80      0.00
  -11   10    2     -1.84      0.00
  -12   10    4      0.96      0.00
  -13   10    6     -0.39      0.00
    6   11    8      0.73      0.00
    7   11    6     -0.61      0.00
    8   11    4      0.05      0.00
    9   11    2     -0.89      0.00
   10   11    0      0.02      0.00
  -11   11    2      0.07      0.00
  -12   11    4     -1.25      0.00
  -13   11    6      0.21      0.00
    7   12    6      0.16      0.00
    8   12    4     -0.57      0.00
    9   12    2      0.25      0.00
   10   12    0      1.52      0.00
  -11   12    2     -0.44      0.00
  -12   12    4     -0.84      0.00
    8   13    4      0.12      0.00
    9   13    2     -0.44      0.00
   10   13    0      1.25      0.00
    4    1   13      1.10      0.00
    5    1   11      1.25      0.00
    6    1    9     -3.73      0.00
    7    1    7      0.89      0.00
    8    1    5      1.99      0.00
    9    1    3     -0.21      0.00
   10    1    1     -1.09      0.00
  -11    1    1      1.46      0.00
  -12    1    3     -2.86      0.00
  -13    1    5     -0.61      0.00
  -14    1    7      0.65      0.00
  -15    1    9     -0.47      0.00
  -16    1   11      0.19      0.00
    4    2   13     -2.17      0.00
    5    2   11      1.21      0.00
    6    2    9     -0.17      0.00
    7    2    7      0.43      0.00
    8    2    5      0.16      0.00
    9    2    3      0.63      0.00
   10    2    1     -0.18      0.00
  -11    2    1     -2.89      0.00
  -12    2    3     -1.36      0.00
  -13    2    5     -0.95      0.00
  -14    2    7      1.26      0.00
  -15    2    9      0.16      0.00
  -16    2   11     -0.25      0.00
    4    3   13      1.47      0.00
    5    3   11     -1.80      0.00
    6    3    9      1.77      0.00
    7    3    7     -1.75      0.00
    8    3    5      1.79      0.00
    9    3    3      1.04      0.00
   10    3    1     -2.37      0.00
  -11    3    1     -0.71      0.00
  -12    3    3      1.44      0.00
  -13    3    5     -0.71      0.00
  -14    3    7      1.03      0.00
  -15    3    9     -1.30      0.00
    4    4   13      0.52      0.00
    5    4   11      0.30      0.00
    6    4    9     -1.64      0.00
    7    4    7      0.42      0.00
    8    4    5      0.97      0.00
    9    4    3      0.03      0.00
   10    4    1      1.20      0.00
  -11    4    1     -3.65      0.00
  -12    4    3      1.97      0.00
  -13    4    5      0.01      0.00
  -14    4    7      0.09      0.00
  -15    4    9     -0.76      0.00
    4    5   13      1.23      0.00
    5    5   11     -0.39      0.00
    6    5    9      0.81      0.00
    7    5    7     -2.61      0.00
    8    5    5      1.11      0.00
    9    5    3      3.51      0.00
   10    5    1     -2.77      0.00
  -11    5    1     -1.52      0.00
  -12    5    3      3.01      0.00
  -13    5    5     -2.02      0.00
  -14    5    7      1.41      0.00
  -15    5    9     -0.39      0.00
    5    6   11      0.95      0.00
    6    6    9     -0.69      0.00
    7    6    7     -0.10      0.00
    8    6    5      0.49      0.00
    9    6    3     -1.11      0.00
   10    6    1      2.02      0.00
  -11    6    1     -0.18      0.00
  -12    6    3      2.71      0.00
  -13    6    5     -0.29      0.00
  -14    6    7     -0.04      0.00
  -15    6    9     -0.61      0.00
    5    7   11      0.50      0.00
    6    7    9     -0.23      0.00
    7    7    7     -1.71      0.00
    8    7    5      0.89      0.00
    9    7    3      2.65      0.00
   10    7    1     -2.35      0.00
  -11    7    1     -0.99      0.00
  -12    7    3      2.52      0.00
  -13    7    5     -1.60      0.00
  -14    7    7     -0.64      0.00
  -15    7    9      0.16      0.00
    5    8   11      0.61      0.00
    6    8    9     -0.62      0.00
    7    8    7     -0.02      0.00
    8    8    5      0.81      0.00
    9    8    3     -2.48      0.00
   10    8    1      0.93      0.00
  -11    8    1     -0.93      0.00
  -12    8    3      2.43      0.00
  -13    8    5      1.13      0.00
  -14    8    7      0.68      0.00
    6    9    9     -1.15      0.00
    7    9    7     -0.28      0.00
    8    9    5      1.04      0.00
    9    9    3      0.59      0.00
   10    9    1     -1.57      0.00
  -11    9    1     -0.29      0.00
  -12    9    3     -0.34      0.00
  -13    9    5      0.87      0.00
  -14    9    7     -1.04      0.00
    6   10    9     -0.79      0.00
    7   10    7      0.53      0.00
    8   10    5      0.52      0.00
    9   10    3     -0.06      0.00
   10   10    1     -0.67      0.00
  -11   10    1      0.10      0.00
  -12   10    3      0.79      0.00
  -13   10    5      0.32      0.00
    7   11    7      0.31      0.00
    8   11    5      0.60      0.00
    9   11    3     -0.54      0.00
   10   11    1     -2.14      0.00
  -11   11    1      1.87      0.00
  -12   11    3     -0.63      0.00
  -13   11    5      1.10      0.00
    8   12    5      1.04      0.00
    9   12    3      0.40      0.00
   10   12    1     -0.67      0.00
  -11   12    1      0.37      0.00
  -12   12    3      0.37      0.00
    5    0   12     -2.04      0.00
    6    0   10      2.26      0.00
    7    0    8      0.69      0.00
    8    0    6     -2.13      0.00
    9    0    4     -0.47      0.00
   10    0    2      3.64      0.00
  -12    0    2      2.74      0.00
  -13    0    4     -0.18      0.00
  -14    0    6      0.83      0.00
  -15    0    8      0.40      0.00
  -16    0   10     -0.25      0.00
    5    1   12     -0.21      0.00
    6    1   10     -1.35      0.00
    7    1    8      1.60      0.00
    8    1    6     -0.31      0.00
    9    1    4     -0.60      0.00
   10    1    2      0.87      0.00
   11    1    0     -1.95      0.00
  -12    1    2      2.15      0.00
  -13    1    4     -0.69      0.00
  -14    1    6     -1.04      0.00
  -15    1    8     -0.39      0.00
  -16    1   10      0.46      0.00
    5    2   12      0.77      0.00
    6    2   10      0.74      0.00
    7    2    8      0.97      0.00
    8    2    6     -2.99      0.00
    9    2    4      1.54      0.00
   10    2    2      1.57      0.00
   11    2    0     -2.03      0.00
  -12    2    2      1.75      0.00
  -13    2    4      0.77      0.00
  -14    2    6     -1.35      0.00
  -15    2    8      0.68      0.00
  -16    2   10     -0.80      0.00
    5    3   12      0.54      0.00
    6    3   10     -0.17      0.00
    7    3    8      0.71      0.00
    8    3    6     -0.15      0.00
    9    3    4     -1.87      0.00
   10    3    2      0.64      0.00
   11    3    0     -2.72      0.00
  -12    3    2      0.83      0.00
  -13    3    4     -0.25      0.00
  -14    3    6     -0.42      0.00
  -15    3    8      0.02      0.00
  -16    3   10     -0.09      0.00
    5    4   12      0.76      0.00
    6    4   10     -0.98      0.00
    7    4    8      2.13      0.00
    8    4    6     -2.18      0.00
    9    4    4     -0.44      0.00
   10    4    2      1.60      0.00
   11    4    0      1.03      0.00
  -12    4    2     -1.91      0.00
  -13    4    4      1.05      0.00
  -14    4    6     -1.70      0.00
  -15    4    8      0.32      0.00
    5    5   12     -0.85      0.00
    6    5   10      1.81      0.00
    7    5    8     -0.22      0.00
    8    5    6     -1.19      0.00
    9    5    4      0.18      0.00
   10    5    2     -0.76      0.00
   11    5    0     -0.64      0.00
  -12    5    2     -1.43      0.00
  -13    5    4      0.68      0.00
  -14    5    6     -0.37      0.00
  -15    5    8      1.09      0.00
    6    6   10      0.19      0.00
    7    6    8      0.93      0.00
    8    6    6     -1.26      0.00
    9    6    4     -1.08      0.00
   10    6    2      1.62      0.00
   11    6    0     -0.13      0.00
  -12    6    2     -1.64      0.00
  -13    6    4      2.16      0.00
  -14    6    6     -0.74      0.00
  -15    6    8     -0.29      0.00
    6    7   10      0.32      0.00
    7    7    8      0.42      0.00
    8    7    6     -0.79      0.00
    9    7    4      2.11      0.00
   10    7    2     -2.08      0.00
   11    7    0      1.12      0.00
  -12    7    2     -2.16      0.00
  -13    7    4      1.16      0.00
  -14    7    6     -0.70      0.00
  -15    7    8      0.68      0.00
    6    8   10      0.30      0.00
    7    8    8     -0.08      0.00
    8    8    6     -0.96      0.00
    9    8    4     -1.42      0.00
   10    8    2      3.03      0.00
   11    8    0     -0.96      0.00
  -12    8    2     -0.88      0.00
  -13    8    4      1.17      0.00
  -14    8    6      0.96      0.00
    7    9    8     -0.40      0.00
    8    9    6     -0.90      0.00
    9    9    4      1.65      0.00
   10    9    2     -0.75      0.00
   11    9    0     -0.03      0.00
  -12    9    2     -2.16      0.00
  -13    9    4      0.11      0.00
  -14    9    6     -0.89      0.00
    7   10    8     -0.27      0.00
    8   10    6     -0.83      0.00
    9   10    4     -0.58      0.00
   10   10    2      2.57      0.00
   11   10    0     -0.14      0.00
  -12   10    2     -0.66      0.00
  -13   10    4     -1.13      0.00
    8   11    6     -1.23      0.00
    9   11    4      0.52      0.00
   10   11    2      0.65      0.00
   11   11    0      0.71      0.00
  -12   11    2      0.60      0.00
   10   12    2      0.59      0.00
   11   12    0     -0.70      0.00
    6    1   11     -0.83      0.00
    7    1    9     -1.78      0.00
    8    1    7      2.75      0.00
    9    1    5     -0.60      0.00
   10    1    3     -3.61      0.00
   11    1    1      4.38      0.00
  -12    1    1     -2.16      0.00
  -13    1    3     -0.90      0.00
  -14    1    5      0.20      0.00
  -15    1    7     -0.09      0.00
  -16    1    9      0.72      0.00
    6    2   11      0.93      0.00
    7    2    9     -1.96      0.00
    8    2    7      0.92      0.00
    9    2    5      0.72      0.00
   10    2    3     -0.06      0.00
   11    2    1      1.53      0.00
  -12    2    1     -2.54      0.00
  -13    2    3      1.47      0.00
  -14    2    5     -0.19      0.00
  -15    2    7      0.65      0.00
  -16    2    9      0.16      0.00
    6    3   11     -0.99      0.00
    7    3    9      0.11      0.00
    8    3    7      2.22      0.00
    9    3    5     -2.16      0.00
   10    3    3     -0.68      0.00
   11    3    1      0.36      0.00
  -12    3    1     -0.36      0.00
  -13    3    3      0.27      0.00
  -14    3    5      1.78      0.00
  -15    3    7     -0.14      0.00
  -16    3    9     -0.02      0.00
    6    4   11     -0.73      0.00
    7    4    9     -0.58      0.00
    8    4    7      0.87      0.00
    9    4    5      1.08      0.00
   10    4    3     -0.93      0.00
   11    4    1      1.46      0.00
  -12    4    1     -0.76      0.00
  -13    4    3     -0.02      0.00
  -14    4    5     -0.01      0.00
  -15    4    7     -0.26      0.00
  -16    4    9      0.67      0.00
    6    5   11     -0.76      0.00
    7    5    9     -0.35      0.00
    8    5    7      0.72      0.00
    9    5    5     -0.51      0.00
   10    5    3      0.11      0.00
   11    5    1     -0.98      0.00
  -12    5    1      1.22      0.00
  -13    5    3     -0.18      0.00
  -14    5    5      0.50      0.00
  -15    5    7     -0.04      0.00
    6    6   11     -0.09      0.00
    7    6    9     -0.79      0.00
    8    6    7      1.34      0.00
    9    6    5     -1.19      0.00
   10    6    3      0.16      0.00
   11    6    1      0.51      0.00
  -12    6    1      1.00      0.00
  -13    6    3     -0.92      0.00
  -14    6    5      0.58      0.00
  -15    6    7     -0.72      0.00
    7    7    9      0.07      0.00
    8    7    7      0.34      0.00
    9    7    5      0.75      0.00
   10    7    3     -1.12      0.00
   11    7    1      0.82      0.00
  -12    7    1     -0.47      0.00
  -13    7    3     -1.49      0.00
  -14    7    5      0.56      0.00
  -15    7    7      0.03      0.00
    7    8    9     -0.41      0.00
    8    8    7      1.41      0.00
    9    8    5     -1.63      0.00
   10    8    3      0.54      0.00
   11    8    1     -1.17      0.00
  -12    8    1      0.27      0.00
  -13    8    3     -1.22      0.00
  -14    8    5      1.06      0.00
    8    9    7      0.08      0.00
    9    9    5      0.86      0.00
   10    9    3     -2.69      0.00
   11    9    1      0.77      0.00
  -12    9    1      1.26      0.00
  -13    9    3     -1.02      0.00
  -14    9    5     -0.99      0.00
    8   10    7      1.19      0.00
    9   10    5     -1.24      0.00
   10   10    3      0.56      0.00
   11   10    1     -0.91      0.00
  -12   10    1      0.14      0.00
  -13   10    3     -0.16      0.00
   10   11    3     -0.83      0.00
   11   11    1     -0.18      0.00
  -12   11    1      1.17      0.00
    6    0   12      0.58      0.00
    7    0   10      1.62      0.00
    8    0    8     -3.12      0.00
    9    0    6      1.11      0.00
   10    0    4      3.02      0.00
   11    0    2     -4.39      0.00
   12    0    0      1.99      0.00
  -13    0    2      1.65      0.00
  -14    0    4     -0.58      0.00
  -15    0    6     -0.25      0.00
  -16    0    8     -0.34      0.00
    6    1   12     -0.30      0.00
    7    1   10     -0.10      0.00
    8    1    8     -0.08      0.00
    9    1    6      0.65      0.00
   10    1    4     -1.51      0.00
   11    1    2      0.40      0.00
   12    1    0     -1.44      0.00
  -13    1    2     -0.25      0.00
  -14    1    4      0.68      0.00
  -15    1    6     -1.21      0.00
  -16    1    8     -0.22      0.00
    6    2   12      0.79      0.00
    7    2   10      0.17      0.00
    8    2    8     -1.55      0.00
    9    2    6      1.16      0.00
   10    2    4      2.32      0.00
   11    2    2     -2.51      0.00
   12    2    0      1.19      0.00
  -13    2    2     -0.42      0.00
  -14    2    4     -0.89      0.00
  -15    2    6      0.30      0.00
  -16    2    8     -0.20      0.00
    7    3   10      1.12      0.00
    8    3    8     -1.12      0.00
    9    3    6     -0.43      0.00
   10    3    4      0.04      0.00
   11    3    2     -0.52      0.00
   12    3    0     -2.86      0.00
  -13    3    2     -0.62      0.00
  -14    3    4     -0.05      0.00
  -15    3    6     -0.47      0.00
  -16    3    8     -0.31      0.00
    7    4   10     -0.77      0.00
    8    4    8     -0.07      0.00
    9    4    6      1.56      0.00
   10    4    4     -0.06      0.00
   11    4    2     -0.23      0.00
   12    4    0      0.05      0.00
  -13    4    2     -1.20      0.00
  -14    4    4     -0.17      0.00
  -15    4    6     -0.24      0.00
  -16    4    8     -0.73      0.00
    7    5   10      1.54      0.00
    8    5    8     -1.50      0.00
    9    5    6      0.22      0.00
   10    5    4      0.51      0.00
   11    5    2     -1.48      0.00
   12    5    0      0.63      0.00
  -13    5    2      0.52      0.00
  -14    5    4      0.83      0.00
  -15    5    6      0.23      0.00
    7    6   10      0.30      0.00
    8    6    8      0.34      0.00
    9    6    6     -0.48      0.00
   10    6    4      0.06      0.00
   11    6    2      0.86      0.00
   12    6    0     -0.31      0.00
  -13    6    2     -0.03      0.00
  -14    6    4     -0.14      0.00
  -15    6    6      0.53      0.00
    8    7    8     -1.40      0.00
    9    7    6      1.78      0.00
   10    7    4      0.21      0.00
   11    7    2     -0.86      0.00
   12    7    0     -0.04      0.00
  -13    7    2      0.19      0.00
  -14    7    4      0.05      0.00
  -15    7    6      0.39      0.00
    8    8    8      0.57      0.00
    9    8    6     -1.02      0.00
   10    8    4      1.01      0.00
   11    8    2      0.65      0.00
   12    8    0     -0.40      0.00
  -13    8    2      0.71      0.00
  -14    8    4      0.12      0.00
    9    9    6      1.82      0.00
   10    9    4     -0.44      0.00
   11    9    2      0.67      0.00
   12    9    0     -1.16      0.00
  -13    9    2      0.66      0.00
  -14    9    4     -1.70      0.00
   10   10    4      0.35      0.00
   11   10    2      0.63      0.00
   12   10    0     -1.48      0.00
  -13   10    2      0.86      0.00
    7    1   11     -0.07      0.00
    8    1    9      1.53      0.00
    9    1    7     -0.99      0.00
   10    1    5     -1.57      0.00
   11    1    3      2.11      0.00
   12    1    1     -0.77      0.00
  -13    1    1     -0.15      0.00
  -14    1    3     -0.35      0.00
  -15    1    5     -0.15      0.00
  -16    1    7     -0.03      0.00
    7    2   11      0.21      0.00
    8    2    9     -0.11      0.00
    9    2    7     -0.20      0.00
   10    2    5      1.40      0.00
   11    2    3     -0.50      0.00
   12    2    1      2.29      0.00
  -13    2    1      0.11      0.00
  -14    2    3     -0.04      0.00
  -15    2    5      1.28      0.00
  -16    2    7     -0.27      0.00
    7    3   11      0.10      0.00
    8    3    9      0.54      0.00
    9    3    7     -0.75      0.00
   10    3    5     -1.64      0.00
   11    3    3      2.10      0.00
   12    3    1     -1.02      0.00
  -13    3    1      1.43      0.00
  -14    3    3      0.03      0.00
  -15    3    5      0.19      0.00
  -16    3    7      0.42      0.00
    8    4    9      1.39      0.00
    9    4    7      0.19      0.00
   10    4    5     -0.01      0.00
   11    4    3      0.23      0.00
   12    4    1      1.19      0.00
  -13    4    1     -0.09      0.00
  -14    4    3     -0.61      0.00
  -15    4    5      0.13      0.00
  -16    4    7     -0.74      0.00
    8    5    9     -0.61      0.00
    9    5    7      0.03      0.00
   10    5    5     -0.25      0.00
   11    5    3      0.37      0.00
   12    5    1     -0.46      0.00
  -13    5    1      0.94      0.00
  -14    5    3      0.13      0.00
  -15    5    5     -0.01      0.00
    8    6    9      1.16      0.00
    9    6    7     -1.11      0.00
   10    6    5      0.17      0.00
   11    6    3      0.59      0.00
   12    6    1     -0.48      0.00
  -13    6    1     -0.66      0.00
  -14    6    3     -1.87      0.00
  -15    6    5      0.02      0.00
    9    7    7      0.72      0.00
   10    7    5     -0.63      0.00
   11    7    3     -1.25      0.00
   12    7    1      1.45      0.00
  -13    7    1     -0.36      0.00
  -14    7    3     -0.74      0.00
  -15    7    5     -0.37      0.00
    9    8    7     -1.81      0.00
   10    8    5      1.09      0.00
   11    8    3      0.16      0.00
   12    8    1      0.58      0.00
  -13    8    1     -0.11      0.00
  -14    8    3      0.52      0.00
   10    9    5     -0.38      0.00
   11    9    3     -1.85      0.00
   12    9    1      1.17      0.00
  -13    9    1      0.27      0.00
    8    0   10     -0.22      0.00
    9    0    8     -0.11      0.00
   10    0    6      0.30      0.00
   11    0    4     -0.49      0.00
   12    0    2     -0.08      0.00
   13    0    0     -0.06      0.00
  -14    0    2      1.85      0.00
  -15    0    4      0.30      0.00
  -16    0    6     -0.07      0.00
    8    1   10     -0.07      0.00
    9    1    8     -0.17      0.00
   10    1    6     -0.18      0.00
   11    1    4     -0.23      0.00
   12    1    2     -0.60      0.00
   13    1    0      0.04      0.00
  -14    1    2      0.20      0.00
  -15    1    4     -1.16      0.00
  -16    1    6      0.52      0.00
    8    2   10     -0.93      0.00
    9    2    8      0.42      0.00
   10    2    6      1.47      0.00
   11    2    4     -1.72      0.00
   12    2    2      0.00      0.00
   13    2    0     -0.17      0.00
  -14    2    2      1.21      0.00
  -15    2    4     -0.94      0.00
  -16    2    6      0.53      0.00
    8    3   10     -0.36      0.00
    9    3    8     -0.50      0.00
   10    3    6     -0.52      0.00
   11    3    4      0.29      0.00
   12    3    2     -0.82      0.00
   13    3    0     -0.03      0.00
  -14    3    2      0.76      0.00
  -15    3    4     -0.81      0.00
  -16    3    6      0.59      0.00
    9    4    8      0.13      0.00
   10    4    6      1.04      0.00
   11    4    4     -1.57      0.00
   12    4    2      1.17      0.00
   13    4    0     -1.73      0.00
  -14    4    2     -0.38      0.00
  -15    4    4      0.21      0.00
  -16    4    6     -0.10      0.00
    9    5    8     -0.23      0.00
   10    5    6      0.07      0.00
   11    5    4      0.57      0.00
   12    5    2     -0.86      0.00
   13    5    0     -0.32      0.00
  -14    5    2      1.48      0.00
  -15    5    4     -0.42      0.00
    9    6    8     -0.30      0.00
   10    6    6      0.14      0.00
   11    6    4      0.10      0.00
   12    6    2     -0.60      0.00
   13    6    0      0.33      0.00
  -14    6    2      0.19      0.00
  -15    6    4     -0.37      0.00
   10    7    6     -1.12      0.00
   11    7    4      0.79      0.00
   12    7    2     -0.43      0.00
   13    7    0     -1.21      0.00
  -14    7    2      0.39      0.00
   11    8    4      1.08      0.00
   12    8    2     -1.35      0.00
   13    8    0     -0.07      0.00
  -14    8    2      1.71      0.00
    9    1    9      0.73      0.00
   10    1    7     -0.78      0.00
   11    1    5      0.79      0.00
   12    1    3      0.23      0.00
   13    1    1     -0.63      0.00
  -14    1    1     -1.39      0.00
  -15    1    3      0.46      0.00
  -16    1    5     -0.80      0.00
    9    2    9      0.20      0.00
   10    2    7     -0.16      0.00
   11    2    5      0.49      0.00
   12    2    3     -0.15      0.00
   13    2    1      0.24      0.00
  -14    2    1     -0.71      0.00
  -15    2    3      1.69      0.00
  -16    2    5     -0.28      0.00
   10    3    7     -1.17      0.00
   11    3    5      1.44      0.00
   12    3    3      0.14      0.00
   13    3    1      0.10      0.00
  -14    3    1     -0.45      0.00
  -15    3    3      0.88      0.00
  -16    3    5     -1.11      0.00
   10    4    7     -0.55      0.00
   11    4    5     -0.63      0.00
   12    4    3      0.36      0.00
   13    4    1      0.31      0.00
  -14    4    1     -1.18      0.00
  -15    4    3      0.89      0.00
   10    5    7      0.11      0.00
   11    5    5      0.67      0.00
   12    5    3     -0.10      0.00
   13    5    1      0.32      0.00
  -14    5    1      0.21      0.00
  -15    5    3     -0.02      0.00
   11    6    5     -0.93      0.00
   12    6    3      1.13      0.00
   13    6    1      0.40      0.00
  -14    6    1     -0.37      0.00
  -15    6    3     -0.59      0.00
   11    7    5     -0.53      0.00
   12    7    3      0.67      0.00
   13    7    1     -0.43      0.00
  -14    7    1     -0.73      0.00
   10    0    8      0.78      0.00
   11    0    6     -1.07      0.00
   12    0    4      0.36      0.00
   13    0    2      1.04      0.00
   14    0    0      0.27      0.00
  -15    0    2      0.31      0.00
  -16    0    4      1.02      0.00
   10    1    8      0.08      0.00
   11    1    6     -0.42      0.00
   12    1    4     -0.20      0.00
   13    1    2      0.47      0.00
   14    1    0     -0.07      0.00
  -15    1    2     -0.23      0.00
  -16    1    4     -0.55      0.00
   11    2    6     -1.03      0.00
   12    2    4      0.01      0.00
   13    2    2      0.75      0.00
   14    2    0     -0.04      0.00
  -15    2    2     -0.40      0.00
  -16    2    4      1.66      0.00
   11    3    6     -0.12      0.00
   12    3    4      0.20      0.00
   13    3    2     -0.66      0.00
   14    3    0     -0.10      0.00
  -15    3    2     -1.55      0.00
   11    4    6     -1.06      0.00
   12    4    4     -0.32      0.00
   13    4    2      1.12      0.00
   14    4    0     -0.50      0.00
  -15    4    2     -0.59      0.00
   12    5    4     -0.63      0.00
   13    5    2      0.07      0.00
   14    5    0     -0.54      0.00
  -15    5    2      0.45      0.00
   12    6    4     -0.11      0.00
   13    6    2      0.34      0.00
   14    6    0      0.24      0.00
   12    1    5     -0.57      0.00
   13    1    3     -0.87      0.00
   14    1    1      0.45      0.00
  -15    1    1     -0.42      0.00
   12    2    5      0.39      0.00
   13    2    3     -0.74      0.00
   14    2    1     -0.31      0.00
  -15    2    1     -0.22      0.00
   12    3    5     -0.32      0.00
   13    3    3     -0.91      0.00
   14    3    1      1.10      0.00
  -15    3    1     -0.24      0.00
   13    4    3      0.13      0.00
   14    4    1     -0.29      0.00
   14    0    2     -0.73      0.00
    1    0    0     -6.77      0.00
   11    0    0     -3.40      0.00
   15    0    0     -0.08      0.00
   15    1    0     -0.13      0.00
   15    2    0      0.75      0.00
   15    3    0     -0.89      0.00
   15    4    0      0.64      0.00
   15    5    0     -1.02      0.00
   14    7    0      0.41      0.00
   14    8    0     -0.14      0.00
   13    9    0     -0.86      0.00
   13   10    0     -0.47      0.00
   12   11    0     -0.19      0.00
   11   13    0      1.22      0.00
   10   14    0      0.04      0.00
    9   15    0      0.21      0.00
    7   16    0      0.11      0.00
    8   16    0     -2.20      0.00
    5   17    0     -0.84      0.00
    6   17    0     -0.33      0.00
    8    1    1     -1.37      0.00
   15    1    1     -0.16      0.00
   15    2    1      0.04      0.00
  -15    4    1     -0.19      0.00
  -15    5    1      0.23      0.00
   14    5    1      0.91      0.00
  -15    6    1     -0.91      0.00
   14    6    1     -0.07      0.00
   14    7    1     -0.23      0.00
  -14    8    1      0.56      0.00
   13    8    1      1.73      0.00
  -14    9    1     -0.60      0.00
   13    9    1      0.27      0.00
  -13   10    1     -1.02      0.00
   12   10    1      0.20      0.00
  -13   11    1     -0.28      0.00
   12   11    1      1.13      0.00
  -12   12    1     -1.04      0.00
   11   12    1     -1.45      0.00
  -11   13    1     -0.04      0.00
   10   13    1     -0.65      0.00
  -10   14    1      0.59      0.00
    9   14    1      0.51      0.00
   -9   15    1     -0.15      0.00
    8   15    1      1.21      0.00
   -8   16    1      0.88      0.00
    7   16    1     -0.21      0.00
   -6   17    1     -1.01      0.00
    5   17    1     -0.22      0.00
    6   17    1      0.33      0.00
  -16    0    2      1.68      0.00
    2    0    2    -16.88      0.00
    3    0    2     -6.73      0.00
    6    0    2    -12.69      0.00
  -16    1    2     -0.33      0.00
   14    1    2      0.05      0.00
  -16    2    2      0.48      0.00
   14    2    2     -0.41      0.00
  -16    3    2     -0.58      0.00
   14    3    2     -0.09      0.00
   14    4    2     -1.23      0.00
   14    5    2      0.49      0.00
  -15    6    2     -0.60      0.00
  -15    7    2      0.74      0.00
   13    7    2     -0.94      0.00
   13    8    2      0.14      0.00
  -14    9    2     -0.30      0.00
   12    9    2     -0.07      0.00
   12   10    2     -1.20      0.00
  -13   11    2      0.69      0.00
   11   11    2      1.32      0.00
  -12   12    2     -0.05      0.00
   11   12    2      0.30      0.00
  -11   13    2      1.63      0.00
   10   13    2     -0.17      0.00
  -11   14    2      0.10      0.00
  -10   14    2      1.67      0.00
    9   14    2      0.26      0.00
   -9   15    2      1.46      0.00
    8   15    2      0.18      0.00
   -8   16    2     -1.58      0.00
    6   16    2     -0.22      0.00
    7   16    2      0.20      0.00
   -7   17    2     -1.42      0.00
   -6   17    2      1.43      0.00
    4   17    2      1.14      0.00
    5   17    2     -0.02      0.00
  -16    1    3     -1.30      0.00
    6    1    3      8.99      0.00
   14    1    3      0.36      0.00
  -16    2    3      0.51      0.00
   14    2    3      0.00      0.00
  -16    3    3     -1.30      0.00
  -16    4    3     -0.24      0.00
  -16    5    3     -0.69      0.00
   13    5    3     -1.30      0.00
   13    6    3      0.21      0.00
  -15    7    3      1.16      0.00
   13    7    3      0.00      0.00
  -15    8    3     -0.54      0.00
   12    8    3      0.50      0.00
  -14    9    3     -0.98      0.00
   12    9    3      0.60      0.00
  -14   10    3      1.21      0.00
   11   10    3     -0.53      0.00
  -13   11    3      0.35      0.00
   11   11    3     -1.20      0.00
   10   12    3      0.61      0.00
  -12   13    3      1.16      0.00
    9   13    3     -0.27      0.00
  -11   14    3      0.10      0.00
    8   14    3     -0.56      0.00
  -10   15    3      0.10      0.00
   -9   15    3     -0.68      0.00
   -8   15    3      1.80      0.00
    7   15    3      0.41      0.00
   -8   16    3      0.56      0.00
    6   16    3      0.61      0.00
   -7   17    3      0.77      0.00
   -6   17    3     -0.50      0.00
    3   17    3      0.75      0.00
    4   17    3      0.04      0.00
    2    0    4      3.94      0.00
   13    0    4      1.30      0.00
    2    1    4      0.84      0.00
   13    1    4      0.48      0.00
   13    2    4      0.13      0.00
  -16    3    4      0.55      0.00
   13    3    4      0.91      0.00
  -16    4    4      0.99      0.00
   13    4    4      0.66      0.00
  -16    5    4      0.15      0.00
   13    5    4     -0.25      0.00
  -16    6    4      0.44      0.00
  -15    7    4      0.72      0.00
   12    7    4     -0.44      0.00
  -15    8    4     -0.59      0.00
   12    8    4     -0.46      0.00
   11    9    4      0.80      0.00
  -14   10    4      0.50      0.00
   11   10    4      1.35      0.00
  -13   11    4     -0.79      0.00
   10   11    4     -1.16      0.00
  -13   12    4     -0.40      0.00
    9   12    4      0.49      0.00
  -12   13    4     -0.84      0.00
    9   13    4      0.72      0.00
  -11   14    4     -1.24      0.00
   -7   14    4      1.78      0.00
    8   14    4     -0.24      0.00
  -10   15    4     -1.18      0.00
   -8   15    4     -0.98      0.00
   -7   15    4     -1.95      0.00
    6   15    4      0.31      0.00
    7   15    4     -0.79      0.00
   -9   16    4     -0.02      0.00
   -8   16    4     -1.24      0.00
   -7   16    4     -0.96      0.00
    5   16    4      0.36      0.00
   -7   17    4     -1.78      0.00
   -6   17    4      0.04      0.00
   -5   17    4      0.31      0.00
    2   17    4      0.16      0.00
    3   17    4     -1.84      0.00
  -16    4    5     -0.54      0.00
   12    4    5      0.04      0.00
  -16    5    5     -0.34      0.00
   12    5    5     -0.21      0.00
  -16    6    5     -0.21      0.00
   12    6    5      0.36      0.00
  -15    8    5     -0.98      0.00
   11    8    5     -0.83      0.00
  -15    9    5      0.04      0.00
  -14   10    5      1.00      0.00
   10   10    5      1.16      0.00
    9   11    5     -0.21      0.00
  -13   12    5      0.03      0.00
    9   12    5     -1.17      0.00
  -12   13    5      0.39      0.00
    8   13    5     -0.32      0.00
  -11   14    5      0.70      0.00
    7   14    5      1.86      0.00
  -10   15    5      1.34      0.00
   -8   15    5      0.65      0.00
   -7   15    5      0.41      0.00
    5   15    5     -0.71      0.00
    6   15    5     -0.81      0.00
   -8   16    5     -0.05      0.00
   -7   16    5      1.31      0.00
   -6   16    5      0.50      0.00
    4   16    5      1.06      0.00
   -7   17    5     -0.35      0.00
   -6   17    5      0.16      0.00
   -5   17    5     -0.06      0.00
    1   17    5      0.86      0.00
    2   17    5      0.45      0.00
   12    0    6      0.29      0.00
   12    1    6     -0.12      0.00
   12    2    6      0.56      0.00
   12    3    6     -0.08      0.00
  -16    5    6      0.57      0.00
   11    5    6      0.59      0.00
  -16    6    6     -0.61      0.00
   11    6    6      0.14      0.00
  -16    7    6     -0.63      0.00
   11    7    6      0.05      0.00
  -15    8    6      0.24      0.00
   10    8    6      0.55      0.00
  -15    9    6      0.30      0.00
   10    9    6     -1.36      0.00
  -14   10    6      1.34      0.00
    9   10    6     -0.40      0.00
  -14   11    6     -0.88      0.00
    9   11    6      1.18      0.00
  -13   12    6     -1.05      0.00
    8   12    6      0.23      0.00
  -12   13    6      0.23      0.00
    7   13    6     -1.45      0.00
  -11   14    6     -0.03      0.00
    6   14    6      0.49      0.00
  -10   15    6     -0.19      0.00
   -9   15    6      0.97      0.00
   -8   15    6      0.28      0.00
   -7   15    6     -0.73      0.00
    5   15    6      0.08      0.00
   -8   16    6      0.36      0.00
   -7   16    6      0.46      0.00
    3   16    6     -1.52      0.00
   -6   17    6     -0.14      0.00
   -5   17    6      1.23      0.00
   -4   17    6     -0.03      0.00
   -3   17    6     -0.85      0.00
   -2   17    6      0.78      0.00
   -1   17    6      0.50      0.00
    0   17    6     -0.76      0.00
    1   17    6      1.13      0.00
   11    1    7      0.75      0.00
   11    2    7      0.45      0.00
   11    3    7      1.00      0.00
   11    4    7     -0.19      0.00
  -16    5    7      1.17      0.00
   11    5    7      0.37      0.00
  -16    6    7     -0.13      0.00
   10    6    7      0.11      0.00
  -16    7    7      0.69      0.00
   10    7    7      0.33      0.00
  -15    8    7     -0.06      0.00
  -15    9    7     -0.56      0.00
    9    9    7      0.94      0.00
  -14   10    7      1.23      0.00
  -14   11    7     -0.79      0.00
    8   11    7      0.45      0.00
  -13   12    7      0.32      0.00
    7   12    7     -0.22      0.00
  -12   13    7      0.41      0.00
    6   13    7      0.38      0.00
  -11   14    7     -0.22      0.00
    5   14    7      0.04      0.00
  -10   15    7      0.27      0.00
   -9   15    7      0.47      0.00
   -8   15    7      0.66      0.00
    3   15    7      0.45      0.00
    4   15    7     -0.59      0.00
   -8   16    7     -0.04      0.00
   -7   16    7     -0.40      0.00
    1   16    7     -0.50      0.00
    2   16    7     -0.44      0.00
   -5   17    7     -0.27      0.00
   -4   17    7      0.72      0.00
   -3   17    7      1.25      0.00
   -2   17    7      0.51      0.00
   -1   17    7     -0.60      0.00
    0   17    7     -0.40      0.00
    1    2    8     -1.68      0.00
   10    2    8      1.01      0.00
   10    3    8      0.56      0.00
   10    4    8      0.25      0.00
  -16    5    8      0.57      0.00
   10    5    8      0.65      0.00
  -16    6    8     -1.05      0.00
  -16    7    8      0.85      0.00
    9    7    8      0.97      0.00
  -15    8    8      0.04      0.00
    9    8    8     -0.14      0.00
  -15    9    8      0.61      0.00
    8    9    8     -1.42      0.00
  -14   10    8      0.95      0.00
    8   10    8      0.35      0.00
  -13   11    8      0.26      0.00
    7   11    8     -0.38      0.00
  -13   12    8      0.03      0.00
   -2   12    8     -0.07      0.00
    6   12    8      0.88      0.00
  -12   13    8      0.02      0.00
    5   13    8     -0.78      0.00
  -11   14    8      0.03      0.00
  -10   14    8     -0.14      0.00
   -8   14    8     -0.32      0.00
    4   14    8      0.92      0.00
   -9   15    8     -0.27      0.00
   -8   15    8     -0.38      0.00
    2   15    8      0.50      0.00
    3   15    8     -0.48      0.00
   -7   16    8     -0.59      0.00
   -6   16    8      0.32      0.00
   -5   16    8      1.46      0.00
   -4   16    8     -0.50      0.00
   -2   16    8     -0.96      0.00
   -1   16    8      0.07      0.00
    0   16    8     -0.96      0.00
    1   16    8     -0.70      0.00
    9    3    9      0.12      0.00
    0    4    9      0.21      0.00
    9    4    9      1.12      0.00
  -16    5    9      0.70      0.00
    9    5    9     -0.21      0.00
  -16    6    9     -0.36      0.00
    9    6    9      0.16      0.00
    8    7    9     -0.63      0.00
  -15    8    9     -1.39      0.00
    8    8    9      0.38      0.00
  -15    9    9     -0.17      0.00
    7    9    9      1.16      0.00
  -14   10    9     -0.07      0.00
    7   10    9      0.48      0.00
  -13   11    9     -0.90      0.00
    6   11    9     -1.76      0.00
  -12   12    9     -0.50      0.00
    5   12    9      0.89      0.00
  -11   13    9     -0.65      0.00
    4   13    9     -0.04      0.00
  -10   14    9      0.22      0.00
    2   14    9     -1.64      0.00
    3   14    9     -0.51      0.00
   -9   15    9      0.05      0.00
   -8   15    9      0.75      0.00
   -7   15    9      1.15      0.00
    0   15    9      1.43      0.00
    1   15    9      1.80      0.00
   -6   16    9     -0.88      0.00
   -5   16    9      0.89      0.00
   -4   16    9      0.55      0.00
   -3   16    9     -0.65      0.00
   -2   16    9     -0.09      0.00
   -1   16    9     -0.33      0.00
    9    0   10     -1.02      0.00
    9    1   10      0.04      0.00
  -16    4   10     -0.53      0.00
    8    4   10     -0.24      0.00
  -16    5   10     -0.85      0.00
    8    5   10     -0.52      0.00
  -16    6   10     -0.27      0.00
    8    6   10      0.39      0.00
  -15    7   10      0.66      0.00
    7    7   10      1.05      0.00
  -15    8   10      0.51      0.00
    7    8   10     -0.82      0.00
  -14    9   10      1.48      0.00
    6    9   10      0.82      0.00
  -14   10   10      0.54      0.00
    6   10   10      1.08      0.00
  -13   11   10      1.90      0.00
    5   11   10     -0.07      0.00
  -12   12   10      0.29      0.00
    4   12   10     -0.72      0.00
  -11   13   10      0.37      0.00
  -10   13   10      0.15      0.00
    2   13   10      1.36      0.00
    3   13   10      0.33      0.00
  -10   14   10     -0.12      0.00
   -9   14   10     -0.27      0.00
    0   14   10     -1.59      0.00
    1   14   10     -1.81      0.00
    2   14   10     -0.66      0.00
   -8   15   10     -0.83      0.00
   -7   15   10      0.77      0.00
   -6   15   10      1.82      0.00
   -5   15   10     -1.05      0.00
   -4   15   10     -0.46      0.00
   -3   15   10      0.35      0.00
   -2   15   10      0.07      0.00
   -1   15   10      0.57      0.00
    0   15   10      0.41      0.00
    8    1   11      0.13      0.00
    8    2   11      0.20      0.00
  -16    3   11      1.09      0.00
  -16    4   11     -0.21      0.00
    7    4   11     -1.20      0.00
  -16    5   11      0.45      0.00
    7    5   11     -0.46      0.00
  -16    6   11      0.26      0.00
    7    6   11     -1.26      0.00
  -15    7   11     -1.22      0.00
    6    7   11      0.13      0.00
  -15    8   11      0.02      0.00
    6    8   11     -0.05      0.00
  -14    9   11     -0.15      0.00
    5    9   11      0.39      0.00
  -13   10   11     -1.87      0.00
    4   10   11      0.03      0.00
  -13   11   11     -1.84      0.00
  -12   11   11      0.00      0.00
    3   11   11     -0.53      0.00
    4   11   11      1.07      0.00
  -12   12   11     -1.29      0.00
  -11   12   11     -0.17      0.00
    2   12   11     -1.05      0.00
    3   12   11     -0.46      0.00
  -10   13   11     -0.10      0.00
   -9   13   11      0.21      0.00
    1   13   11      1.79      0.00
   -9   14   11     -0.98      0.00
   -8   14   11      0.42      0.00
   -7   14   11     -0.65      0.00
   -6   14   11     -1.44      0.00
   -3   14   11     -0.45      0.00
   -2   14   11     -0.18      0.00
   -1   14   11     -0.04      0.00
    0   14   11     -0.25      0.00
   -5   15   11      0.25      0.00
   -4   15   11      0.45      0.00
   -3   15   11      0.08      0.00
  -16    0   12     -0.76      0.00
    7    0   12     -0.38      0.00
  -16    1   12     -0.34      0.00
    7    1   12     -0.12      0.00
  -16    2   12      0.01      0.00
  -16    3   12      0.77      0.00
    6    3   12      0.13      0.00
  -16    4   12     -0.20      0.00
    6    4   12      1.42      0.00
  -16    5   12      0.66      0.00
    6    5   12     -0.42      0.00
  -15    6   12      0.18      0.00
    5    6   12     -0.28      0.00
  -15    7   12      0.41      0.00
    5    7   12     -1.38      0.00
  -14    8   12      0.79      0.00
    4    8   12      0.60      0.00
    5    8   12      0.52      0.00
  -14    9   12     -0.21      0.00
  -13    9   12      1.01      0.00
    4    9   12     -0.69      0.00
  -13   10   12      0.87      0.00
    3   10   12      1.35      0.00
  -12   11   12     -0.25      0.00
  -11   11   12      0.37      0.00
    2   11   12     -0.33      0.00
  -11   12   12      0.26      0.00
  -10   12   12      0.51      0.00
    0   12   12     -0.73      0.00
    1   12   12     -1.37      0.00
   -9   13   12      0.86      0.00
   -8   13   12      0.05      0.00
   -7   13   12      0.43      0.00
   -2   13   12      1.19      0.00
   -1   13   12      0.32      0.00
    0   13   12      0.28      0.00
   -7   14   12     -0.27      0.00
   -6   14   12      0.22      0.00
   -5   14   12     -0.53      0.00
   -4   14   12     -0.85      0.00
   -3   14   12     -0.83      0.00
  -16    1   13      0.57      0.00
    5    1   13      0.74      0.00
  -16    2   13     -0.51      0.00
    5    2   13     -1.46      0.00
  -16    3   13     -0.81      0.00
    5    3   13     -0.46      0.00
  -15    4   13      0.45      0.00
    5    4   13     -0.47      0.00
  -15    5   13      0.08      0.00
    5    5   13      0.77      0.00
  -15    6   13     -0.27      0.00
    4    6   13     -0.81      0.00
  -14    7   13      0.68      0.00
    4    7   13      0.39      0.00
  -14    8   13      0.15      0.00
  -13    8   13      0.35      0.00
    3    8   13     -1.29      0.00
  -13    9   13     -0.36      0.00
    2    9   13      0.73      0.00
  -12   10   13      0.85      0.00
    1   10   13     -0.53      0.00
    2   10   13     -0.42      0.00
  -11   11   13     -0.67      0.00
  -10   11   13     -0.42      0.00
    0   11   13      0.81      0.00
    1   11   13      1.97      0.00
  -10   12   13     -0.32      0.00
   -9   12   13     -0.17      0.00
   -8   12   13      0.25      0.00
   -3   12   13      0.47      0.00
   -2   12   13     -1.03      0.00
   -1   12   13     -0.46      0.00
   -7   13   13      0.32      0.00
   -6   13   13      0.49      0.00
   -5   13   13      0.16      0.00
   -4   13   13     -0.29      0.00
   -3   13   13      0.48      0.00
  -15    0   14      0.29      0.00
    4    0   14      1.16      0.00
  -15    1   14     -0.95      0.00
    4    1   14      0.49      0.00
  -15    2   14      0.32      0.00
    4    2   14     -1.35      0.00
  -15    3   14     -0.82      0.00
    4    3   14     -0.13      0.00
  -15    4   14     -0.51      0.00
    3    4   14     -0.32      0.00
    4    4   14     -0.78      0.00
  -15    5   14     -0.66      0.00
  -14    5   14     -0.98      0.00
    3    5   14      0.03      0.00
  -14    6   14     -0.41      0.00
    3    6   14      0.43      0.00
  -14    7   14     -0.26      0.00
  -13    7   14      0.06      0.00
    2    7   14      0.54      0.00
  -13    8   14     -0.98      0.00
    1    8   14      0.14      0.00
    2    8   14     -0.44      0.00
  -12    9   14     -0.95      0.00
    0    9   14     -1.65      0.00
    1    9   14     -0.48      0.00
  -11   10   14      0.66      0.00
  -10   10   14      1.22      0.00
   -1   10   14      0.33      0.00
    0   10   14      0.26      0.00
  -10   11   14     -0.06      0.00
   -9   11   14      0.38      0.00
   -8   11   14     -0.16      0.00
   -7   11   14     -1.02      0.00
   -4   11   14     -0.10      0.00
   -3   11   14     -0.48      0.00
   -2   11   14      0.70      0.00
   -8   12   14      0.22      0.00
   -7   12   14      0.12      0.00
   -6   12   14     -1.89      0.00
   -5   12   14     -0.83      0.00
   -4   12   14      0.27      0.00
  -15    1   15     -0.45      0.00
    2    1   15      0.02      0.00
    3    1   15     -0.50      0.00
  -15    2   15      0.79      0.00
  -14    2   15     -0.42      0.00
    2    2   15     -0.34      0.00
  -14    3   15      0.04      0.00
    2    3   15     -0.96      0.00
  -14    4   15      0.38      0.00
    2    4   15     -0.74      0.00
  -14    5   15      0.43      0.00
  -13    5   15      0.34      0.00
    1    5   15     -1.27      0.00
    2    5   15      0.04      0.00
  -13    6   15      1.24      0.00
    1    6   15      0.57      0.00
  -13    7   15      0.54      0.00
  -12    7   15      1.12      0.00
    0    7   15     -0.39      0.00
    1    7   15     -0.44      0.00
  -12    8   15      0.07      0.00
  -11    8   15      0.10      0.00
   -1    8   15     -0.63      0.00
    0    8   15      1.40      0.00
  -11    9   15      0.15      0.00
  -10    9   15     -0.32      0.00
   -3    9   15      0.09      0.00
   -2    9   15     -0.20      0.00
   -1    9   15      0.54      0.00
  -10   10   15      0.95      0.00
   -9   10   15      0.53      0.00
   -8   10   15     -0.04      0.00
   -7   10   15      1.20      0.00
   -6   10   15      0.45      0.00
   -5   10   15     -1.54      0.00
   -4   10   15      0.34      0.00
   -3   10   15      0.06      0.00
   -7   11   15     -0.76      0.00
   -6   11   15      0.99      0.00
   -5   11   15      0.70      0.00
  -14    0   16     -0.54      0.00
    1    0   16     -1.99      0.00
  -14    1   16      0.23      0.00
  -13    1   16     -0.47      0.00
    1    1   16      0.10      0.00
  -14    2   16      0.12      0.00
  -13    2   16     -1.05      0.00
    0    2   16     -0.70      0.00
    1    2   16     -1.82      0.00
  -14    3   16     -0.02      0.00
  -13    3   16     -0.18      0.00
    0    3   16      0.51      0.00
    1    3   16      0.61      0.00
  -13    4   16     -1.17      0.00
    0    4   16     -0.90      0.00
  -13    5   16     -0.65      0.00
  -12    5   16     -1.15      0.00
   -1    5   16      1.08      0.00
    0    5   16     -0.13      0.00
  -12    6   16     -0.62      0.00
  -11    6   16     -2.18      0.00
   -2    6   16     -0.13      0.00
   -1    6   16     -0.89      0.00
  -11    7   16     -0.58      0.00
  -10    7   16     -0.94      0.00
   -3    7   16     -0.45      0.00
   -2    7   16     -0.06      0.00
  -10    8   16     -0.20      0.00
   -9    8   16      0.66      0.00
   -8    8   16     -0.79      0.00
   -7    8   16     -0.30      0.00
   -6    8   16      0.20      0.00
   -5    8   16      0.30      0.00
   -4    8   16     -1.05      0.00
   -3    8   16      0.24      0.00
   -9    9   16     -0.39      0.00
   -8    9   16     -0.37      0.00
   -7    9   16      0.23      0.00
   -6    9   16      0.51      0.00
   -5    9   16      0.88      0.00
   -4    9   16     -0.58      0.00
  -13    1   17      0.25      0.00
  -12    1   17      1.29      0.00
   -2    1   17      0.85      0.00
   -1    1   17     -0.84      0.00
  -13    2   17      0.45      0.00
  -12    2   17     -1.56      0.00
   -2    2   17      0.74      0.00
   -1    2   17     -0.29      0.00
  -12    3   17      2.37      0.00
  -11    3   17     -1.08      0.00
   -3    3   17     -0.03      0.00
   -2    3   17      0.75      0.00
  -12    4   17     -0.16      0.00
  -11    4   17      1.06      0.00
  -10    4   17      0.05      0.00
   -3    4   17     -0.21      0.00
   -2    4   17      0.34      0.00
  -11    5   17      0.66      0.00
  -10    5   17      0.43      0.00
   -9    5   17     -1.22      0.00
   -5    5   17      0.36      0.00
   -4    5   17      0.98      0.00
   -3    5   17      0.22      0.00
  -10    6   17      0.21      0.00
   -9    6   17      0.56      0.00
   -8    6   17      0.32      0.00
   -7    6   17     -0.96      0.00
   -6    6   17      0.01      0.00
   -5    6   17     -1.35      0.00
   -4    6   17      0.61      0.00
   -3    6   17      0.66      0.00
   -9    7   17     -1.01      0.00
   -8    7   17     -0.13      0.00
   -7    7   17     -0.20      0.00
   -6    7   17     -0.06      0.00
   -5    7   17     -0.11      0.00
    0    0    0      0.00      0.00
# SQUEEZE RESULTS (Version =  30715)
# Note: Data are Listed for all Voids in the P1 Unit Cell
# i.e. Centre of Gravity, Solvent Accessible Volume,
# Recovered number of Electrons in the Void and
# Details about the Squeezed Material
loop_
  _platon_squeeze_void_nr
  _platon_squeeze_void_average_x
  _platon_squeeze_void_average_y
  _platon_squeeze_void_average_z
  _platon_squeeze_void_volume
  _platon_squeeze_void_count_electrons
  _platon_squeeze_void_content
   1 -0.007  0.500  0.000       304        83 ' '
   2  0.003  0.000  0.500       304        83 ' '
# Missing Reflections Below sin(th)/lambda = 0.25
loop_
  _platon_missing_refln_index_h
  _platon_missing_refln_index_k
  _platon_missing_refln_index_l
  _platon_missing_refln_theta
    1    0    0     1.706
    2    0    2     5.594
    3    0    2     7.122
    2    0    4     8.452
    2    1    4     8.573
_platon_squeeze_void_probe_radius                  1.20
_platon_squeeze_details
)
TITL mo_gs33_0ma_a.res in P2(1)/c
CELL   13.2582   14.3270   14.2378     90.00    115.83     90.00
SPGR P21/c
# Solvent Accessible Volume =     624.9
# Electrons Found in S.A.V. =     166.7
# Note: Atoms in Void as Cxxx and Qxxx all others
C101 0.248 0.920 0.458 !       3.44 eA-3
Q102 0.960 0.105 0.282 !       2.84 eA-3
Q103 0.093 0.527 0.315 !       2.58 eA-3
C104 0.390 0.489 0.048 !       2.19 eA-3
C105 0.709 0.019 0.460 !       2.11 eA-3
C106 0.315 0.877 0.414 !       2.10 eA-3
Q107 0.064 0.130 0.322 !       2.06 eA-3
C108 0.865 0.404 0.089 !       1.99 eA-3
Q109 0.886 0.687 0.079 !       1.75 eA-3
Q110 0.018 0.484 0.309 !       1.73 eA-3
Q111 0.066 0.750 0.142 !       1.63 eA-3
Q112 0.723 0.553 0.109 !       1.59 eA-3
Q113 0.894 0.488 0.249 !       1.57 eA-3
C114 0.334 0.968 0.363 !       1.52 eA-3
Q115 0.058 0.249 0.426 !       1.48 eA-3
C116 0.734 0.391 0.146 !       1.43 eA-3
Q117 0.847 0.554 0.173 !       1.40 eA-3
C118 0.591 0.410 0.030 !       1.36 eA-3
Q119 0.113 0.680 0.215 !       1.31 eA-3
C120 0.325 0.033 0.477 !       1.14 eA-3
Q121 0.878 0.090 0.221 !       1.00 eA-3
C122 0.932 0.374 0.175 !       0.99 eA-3
Q123 0.668 0.550 0.204 !       0.96 eA-3
Q124 0.925 0.171 0.433 !       0.96 eA-3
Q125 0.825 0.404 0.269 !       0.92 eA-3
C126 0.404 0.971 0.404 !       0.91 eA-3
Q127 0.192 0.543 0.358 !       0.87 eA-3
Q128 0.125 0.628 0.136 !       0.86 eA-3
Q129 0.565 0.106 0.231 !       0.83 eA-3
Q130 0.520 0.028 0.049 !       0.78 eA-3
C131 0.846 0.438 0.156 !       0.77 eA-3
Q132 0.290 0.012 0.220 !       0.74 eA-3
Q133 0.233 0.060 0.469 !       0.71 eA-3
Q134 0.888 0.295 0.098 !       0.70 eA-3
Q135 0.997 0.735 0.050 !       0.68 eA-3
C136 0.149 0.878 0.486 !       0.65 eA-3
Q137 0.501 0.457 0.506 !       0.64 eA-3
Q138 0.428 0.676 0.203 !       0.62 eA-3
Q139 0.419 0.552 0.523 !       0.61 eA-3
Q140 0.581 0.448 0.477 !       0.61 eA-3
Q141 0.169 0.989 0.167 !       0.60 eA-3
Q142 0.271 0.611 0.448 !       0.59 eA-3
Q143 0.174 0.046 0.487 !       0.57 eA-3
Q144 0.636 0.303 0.216 !       0.57 eA-3
Q145 0.090 0.477 0.293 !       0.57 eA-3
Q146 0.684 0.950 0.162 !       0.57 eA-3
Q147 0.109 0.024 0.439 !       0.56 eA-3
Q148 0.700 0.025 0.061 !       0.55 eA-3
Q149 0.548 0.579 0.494 !       0.54 eA-3
Q150 0.583 0.544 0.491 !       0.54 eA-3
Q151 0.531 0.253 0.263 !       0.54 eA-3
Q152 0.527 0.394 0.385 !       0.53 eA-3
C153 0.079 0.954 0.464 !       0.53 eA-3
C154 0.516 0.951 0.442 !       0.52 eA-3
C155 0.856 0.047 0.436 !       0.52 eA-3
Q156 0.963 0.895 0.274 !       0.52 eA-3
Q157 0.301 0.126 0.403 !       0.52 eA-3
Q158 0.589 1.006 0.045 !       0.52 eA-3
Q159 0.375 0.605 0.487 !       0.51 eA-3
Q160 0.115 0.091 0.481 !       0.51 eA-3
Q161 0.831 0.110 0.417 !       0.51 eA-3
Q162 0.952 0.690 0.357 !       0.50 eA-3
Q163 0.540 0.272 0.193 !       0.50 eA-3
)
;
_shelx_fab_checksum              17759
loop_
_space_group_symop_operation_xyz
'x, y, z'
'-x, y+1/2, -z+1/2'
'-x, -y, -z'
'x, -y-1/2, z-1/2'
loop_
_atom_site_label
_atom_site_type_symbol
_atom_site_fract_x
_atom_site_fract_y
_atom_site_fract_z
_atom_site_U_iso_or_equiv
_atom_site_adp_type
_atom_site_occupancy
_atom_site_site_symmetry_order
_atom_site_calc_flag
_atom_site_refinement_flags_posn
_atom_site_refinement_flags_adp
_atom_site_refinement_flags_occupancy
Zn1 Zn 0.5000 0.5000 0.5000 0.0214(4) Uani 1 2 d S . P
N1 N 0.5162(5) 0.8863(4) 0.8887(4) 0.0312(13) Uani 1 1 d . . .
N2 N 0.6251(4) 0.5605(4) 0.6310(4) 0.0254(12) Uani 1 1 d . . .
N3 N 0.3843(4) 0.5872(3) 0.5166(4) 0.0237(12) Uani 1 1 d . . .
C1 C 0.6132(5) 0.6296(4) 0.6910(5) 0.0254(14) Uani 1 1 d . . .
C2 C 0.7232(6) 0.6473(5) 0.7784(5) 0.0362(17) Uani 1 1 d . . .
H2 H 0.7395 0.6921 0.8322 0.043 Uiso 1 1 calc R U .
C3 C 0.5115(6) 0.6729(4) 0.6751(5) 0.0282(15) Uani 1 1 d . . .
C4 C 0.2719(6) 0.5886(5) 0.4493(5) 0.0354(17) Uani 1 1 d . . .
C5 C 0.4058(6) 0.6523(5) 0.5922(5) 0.0287(15) Uani 1 1 d . . .
C6 C 0.7362(5) 0.5342(5) 0.6775(5) 0.0304(15) Uani 1 1 d . . .
C7 C 0.5301(7) 0.7953(5) 0.9143(5) 0.0386(18) Uani 1 1 d . . .
H7 H 0.5421 0.7784 0.9829 0.046 Uiso 1 1 calc R U .
C8 C 0.5167(5) 0.7455(4) 0.7494(4) 0.0291(16) Uani 1 1 d . . .
C9 C 0.7940(6) 0.5902(6) 0.7682(6) 0.0431(19) Uani 1 1 d . . .
H9 H 0.8716 0.5864 0.8138 0.052 Uiso 1 1 calc R U .
C10 C 0.2182(5) 0.5377(6) 0.3605(5) 0.0341(16) Uani 1 1 d . . .
C11 C 0.5282(7) 0.7263(5) 0.8484(5) 0.0373(17) Uani 1 1 d . . .
H11 H 0.5348 0.6632 0.8710 0.045 Uiso 1 1 calc R U .
C12 C 0.3013(7) 0.7001(6) 0.5719(6) 0.054(2) Uani 1 1 d . . .
H12 H 0.2915 0.7484 0.6129 0.065 Uiso 1 1 calc R U .
C13 C 0.2229(7) 0.6639(6) 0.4863(6) 0.055(2) Uani 1 1 d . . .
H13 H 0.1468 0.6834 0.4537 0.066 Uiso 1 1 calc R U .
C14 C 0.5126(10) 0.9066(5) 0.7962(7) 0.063(3) Uani 1 1 d . . .
H14 H 0.5121 0.9705 0.7783 0.076 Uiso 1 1 calc R U .
C15 C 0.5095(10) 0.8400(5) 0.7242(7) 0.062(3) Uani 1 1 d . . .
H15 H 0.5025 0.8589 0.6576 0.074 Uiso 1 1 calc R U .
C16 C -0.0980(14) 0.7933(12) -0.0120(14) 0.126(6) Uani 1 1 d . . .
H16 H -0.1004 0.8286 -0.0694 0.152 Uiso 1 1 d R U .
C17 C 0.0981(10) 0.5760(9) 0.2849(9) 0.084(3) Uiso 1 1 d . . .
C18 C 0.1021(11) 0.6418(9) 0.2004(10) 0.089(3) Uiso 1 1 d . . .
H18 H 0.1698 0.6539 0.1949 0.107 Uiso 1 1 d R U .
C19 C -0.0016(11) 0.6832(9) 0.1313(10) 0.088(4) Uiso 1 1 d . . .
C20 C -0.0024(15) 0.7381(12) 0.0524(13) 0.117(5) Uiso 1 1 d . . .
H20 H 0.0623 0.7399 0.0397 0.141 Uiso 1 1 d R U .
C21 C -0.1862(12) 0.7920(10) 0.0146(11) 0.094(4) Uiso 1 1 d . . .
H21 H -0.2486 0.8321 -0.0202 0.112 Uiso 1 1 d R U .
C22 C -0.1837(12) 0.7331(11) 0.0910(11) 0.106(4) Uiso 1 1 d . . .
H22 H -0.2479 0.7313 0.1044 0.127 Uiso 1 1 d R U .
C23 C -0.0919(11) 0.6742(10) 0.1516(11) 0.095(4) Uiso 1 1 d . . .
C24 C -0.0998(12) 0.6145(10) 0.2268(12) 0.102(4) Uiso 1 1 d . . .
C25 C -0.1911(18) 0.6025(14) 0.2460(16) 0.147(6) Uiso 1 1 d . . .
H25 H -0.2563 0.6392 0.2097 0.176 Uiso 1 1 d R U .
C26 C -0.189(2) 0.532(2) 0.324(2) 0.177(9) Uiso 1 1 d . . .
H26 H -0.2554 0.5187 0.3312 0.213 Uiso 1 1 d R U .
C27 C -0.094(2) 0.4878(17) 0.385(2) 0.182(11) Uiso 1 1 d . . .
H27 H -0.0922 0.4453 0.4371 0.219 Uiso 1 1 d R U .
C28 C 0.0081(12) 0.5711(11) 0.3024(11) 0.101(4) Uiso 1 1 d . . .
C29 C 0.0140(16) 0.5070(10) 0.3691(14) 0.105(5) Uiso 1 1 d . . .
H29 H 0.0811 0.4729 0.4067 0.126 Uiso 1 1 d R U .
loop_
_atom_site_aniso_label
_atom_site_aniso_U_11
_atom_site_aniso_U_22
_atom_site_aniso_U_33
_atom_site_aniso_U_23
_atom_site_aniso_U_13
_atom_site_aniso_U_12
Zn1 0.0339(6) 0.0133(6) 0.0174(6) -0.0022(4) 0.0117(4) 0.0019(4)
N1 0.060(3) 0.013(3) 0.025(3) -0.005(2) 0.022(3) 0.001(2)
N2 0.038(3) 0.019(3) 0.018(2) 0.001(2) 0.011(2) 0.004(2)
N3 0.035(3) 0.016(3) 0.024(3) 0.000(2) 0.016(2) 0.002(2)
C1 0.047(4) 0.013(3) 0.019(3) 0.001(2) 0.017(3) -0.005(3)
C2 0.045(4) 0.036(4) 0.028(3) -0.014(3) 0.016(3) -0.019(3)
C3 0.057(4) 0.009(3) 0.026(3) 0.001(3) 0.024(3) 0.002(3)
C4 0.048(4) 0.033(4) 0.031(4) 0.005(3) 0.023(3) 0.009(3)
C5 0.047(4) 0.015(3) 0.032(3) 0.000(3) 0.025(3) 0.014(3)
C6 0.034(3) 0.034(4) 0.021(3) 0.001(3) 0.010(3) -0.004(3)
C7 0.079(5) 0.022(4) 0.027(4) 0.008(3) 0.035(3) 0.007(4)
C8 0.040(4) 0.025(4) 0.022(3) -0.002(3) 0.013(3) 0.004(3)
C9 0.035(3) 0.058(5) 0.035(4) -0.015(4) 0.014(3) -0.007(4)
C10 0.033(3) 0.041(4) 0.033(4) 0.000(3) 0.019(3) 0.007(3)
C11 0.071(5) 0.017(4) 0.036(4) -0.002(3) 0.035(4) 0.003(3)
C12 0.068(5) 0.053(5) 0.042(4) -0.012(4) 0.023(4) 0.029(4)
C13 0.048(4) 0.061(6) 0.046(5) -0.012(4) 0.012(4) 0.027(4)
C14 0.144(9) 0.015(4) 0.042(5) 0.001(3) 0.052(5) 0.011(5)
C15 0.137(9) 0.021(4) 0.039(4) 0.002(4) 0.048(5) 0.008(5)
C16 0.114(11) 0.122(13) 0.126(13) 0.040(11) 0.037(10) 0.007(10)
loop_
_atom_type_symbol
_atom_type_description
_atom_type_scat_dispersion_real
_atom_type_scat_dispersion_imag
_atom_type_scat_source
C C 0.0033 0.0016 'International Tables Vol C Tables 4.2.6.8 and 6.1.1.4'
H H 0.0000 0.0000 'International Tables Vol C Tables 4.2.6.8 and 6.1.1.4'
N N 0.0061 0.0033 'International Tables Vol C Tables 4.2.6.8 and 6.1.1.4'
Zn Zn 0.2839 1.4301 'International Tables Vol C Tables 4.2.6.8 and 6.1.1.4'
loop_
_geom_angle_atom_site_label_1
_geom_angle_atom_site_label_2
_geom_angle_atom_site_label_3
_geom_angle
_geom_angle_site_symmetry_1
_geom_angle_site_symmetry_3
N3 Zn1 N3 180.0 3_666 .
N3 Zn1 N2 89.3(2) 3_666 3_666
N3 Zn1 N2 90.7(2) . 3_666
N3 Zn1 N2 90.7(2) 3_666 .
N3 Zn1 N2 89.3(2) . .
N2 Zn1 N2 180.0 3_666 .
N3 Zn1 N1 92.9(2) 3_666 4_575
N3 Zn1 N1 87.1(2) . 4_575
N2 Zn1 N1 87.5(2) 3_666 4_575
N2 Zn1 N1 92.5(2) . 4_575
N3 Zn1 N1 87.1(2) 3_666 2_646
N3 Zn1 N1 92.9(2) . 2_646
N2 Zn1 N1 92.5(2) 3_666 2_646
N2 Zn1 N1 87.5(2) . 2_646
N1 Zn1 N1 180.00(19) 4_575 2_646
C14 N1 C7 115.0(6) . .
C14 N1 Zn1 122.9(5) . 2_656
C7 N1 Zn1 122.1(4) . 2_656
C1 N2 C6 106.8(5) . .
C1 N2 Zn1 127.1(4) . .
C6 N2 Zn1 126.0(4) . .
C5 N3 C4 109.4(5) . .
C5 N3 Zn1 126.5(4) . .
C4 N3 Zn1 124.1(4) . .
N2 C1 C3 125.7(6) . .
N2 C1 C2 108.3(6) . .
C3 C1 C2 125.9(6) . .
C9 C2 C1 107.2(6) . .
C9 C2 H2 126.4 . .
C1 C2 H2 126.4 . .
C1 C3 C5 124.9(6) . .
C1 C3 C8 117.1(6) . .
C5 C3 C8 118.0(6) . .
C10 C4 N3 127.4(6) . .
C10 C4 C13 126.3(7) . .
N3 C4 C13 106.0(6) . .
N3 C5 C3 126.4(6) . .
N3 C5 C12 108.2(6) . .
C3 C5 C12 125.3(6) . .
N2 C6 C10 124.1(6) . 3_666
N2 C6 C9 108.7(6) . .
C10 C6 C9 127.3(6) 3_666 .
N1 C7 C11 124.1(6) . .
N1 C7 H7 118.0 . .
C11 C7 H7 118.0 . .
C11 C8 C15 115.0(6) . .
C11 C8 C3 123.2(6) . .
C15 C8 C3 121.9(6) . .
C2 C9 C6 109.0(6) . .
C2 C9 H9 125.5 . .
C6 C9 H9 125.5 . .
C4 C10 C6 127.4(6) . 3_666
C4 C10 C17 114.2(7) . .
C6 C10 C17 117.6(7) 3_666 .
C7 C11 C8 121.5(6) . .
C7 C11 H11 119.2 . .
C8 C11 H11 119.3 . .
C13 C12 C5 107.4(7) . .
C13 C12 H12 126.3 . .
C5 C12 H12 126.3 . .
C12 C13 C4 109.1(7) . .
C12 C13 H13 125.5 . .
C4 C13 H13 125.5 . .
N1 C14 C15 124.0(7) . .
N1 C14 H14 118.0 . .
C15 C14 H14 118.0 . .
C14 C15 C8 120.1(7) . .
C14 C15 H15 120.0 . .
C8 C15 H15 120.0 . .
C21 C16 C20 115.9(15) . .
C21 C16 H16 122.0 . .
C20 C16 H16 122.1 . .
C28 C17 C18 121.2(11) . .
C28 C17 C10 125.2(11) . .
C18 C17 C10 112.1(9) . .
C19 C18 C17 116.2(11) . .
C19 C18 H18 122.0 . .
C17 C18 H18 121.9 . .
C23 C19 C20 122.6(13) . .
C23 C19 C18 119.3(13) . .
C20 C19 C18 117.8(13) . .
C19 C20 C16 122.0(16) . .
C19 C20 H20 119.1 . .
C16 C20 H20 118.9 . .
C22 C21 C16 119.9(14) . .
C22 C21 H21 120.1 . .
C16 C21 H21 120.0 . .
C21 C22 C23 124.5(14) . .
C21 C22 H22 117.7 . .
C23 C22 H22 117.8 . .
C19 C23 C24 125.8(13) . .
C19 C23 C22 114.6(14) . .
C24 C23 C22 119.6(13) . .
C25 C24 C23 126.5(15) . .
C25 C24 C28 117.1(15) . .
C23 C24 C28 115.7(13) . .
C24 C25 C26 120(2) . .
C24 C25 H25 119.9 . .
C26 C25 H25 119.9 . .
C27 C26 C25 121(3) . .
C27 C26 H26 119.7 . .
C25 C26 H26 119.4 . .
C26 C27 C29 119(3) . .
C26 C27 H27 120.6 . .
C29 C27 H27 120.6 . .
C29 C28 C17 113.8(15) . .
C29 C28 C24 123.6(15) . .
C17 C28 C24 119.9(13) . .
C28 C29 C27 117.5(18) . .
C28 C29 H29 121.3 . .
C27 C29 H29 121.2 . .
loop_
_geom_bond_atom_site_label_1
_geom_bond_atom_site_label_2
_geom_bond_distance
_geom_bond_site_symmetry_2
Zn1 N3 2.070(5) 3_666
Zn1 N3 2.070(5) .
Zn1 N2 2.070(5) 3_666
Zn1 N2 2.070(5) .
Zn1 N1 2.348(5) 4_575
Zn1 N1 2.348(5) 2_646
N1 C14 1.329(10) .
N1 C7 1.344(9) .
N1 Zn1 2.348(5) 2_656
N2 C1 1.361(8) .
N2 C6 1.379(8) .
N3 C5 1.357(8) .
N3 C4 1.376(8) .
C1 C3 1.410(10) .
C1 C2 1.469(9) .
C2 C9 1.299(11) .
C2 H2 0.9500 .
C3 C5 1.415(10) .
C3 C8 1.464(9) .
C4 C10 1.361(10) .
C4 C13 1.471(11) .
C5 C12 1.457(10) .
C6 C10 1.414(11) 3_666
C6 C9 1.428(10) .
C7 C11 1.355(10) .
C7 H7 0.9500 .
C8 C11 1.379(9) .
C8 C15 1.393(10) .
C9 H9 0.9500 .
C10 C6 1.414(11) 3_666
C10 C17 1.582(13) .
C11 H11 0.9500 .
C12 C13 1.315(12) .
C12 H12 0.9500 .
C13 H13 0.9500 .
C14 C15 1.388(11) .
C14 H14 0.9500 .
C15 H15 0.9500 .
C16 C21 1.38(2) .
C16 C20 1.43(2) .
C16 H16 0.9500 .
C17 C28 1.324(17) .
C17 C18 1.547(17) .
C18 C19 1.425(17) .
C18 H18 0.9500 .
C19 C23 1.355(17) .
C19 C20 1.368(19) .
C20 H20 0.9500 .
C21 C22 1.366(19) .
C21 H21 0.9500 .
C22 C23 1.422(19) .
C22 H22 0.9500 .
C23 C24 1.409(19) .
C24 C25 1.36(2) .
C24 C28 1.500(19) .
C25 C26 1.50(3) .
C25 H25 0.9500 .
C26 C27 1.33(3) .
C26 H26 0.9500 .
C27 C29 1.57(3) .
C27 H27 0.9500 .
C28 C29 1.298(19) .
C29 H29 0.9500 .
loop_
_platon_squeeze_void_nr
_platon_squeeze_void_average_x
_platon_squeeze_void_average_y
_platon_squeeze_void_average_z
_platon_squeeze_void_volume
_platon_squeeze_void_count_electrons
_platon_squeeze_void_content
1 -0.007 0.500 0.000 304 83 'disordered DMF '
2 0.003 0.000 0.500 304 83 'disordered DMF '
