#------------------------------------------------------------------------------
#$Date: 2017-10-31 05:27:58 +0200 (Tue, 31 Oct 2017) $
#$Revision: 202440 $
#$URL: file:///home/coder/svn-repositories/cod/cif/7/22/94/7229434.cif $
#------------------------------------------------------------------------------
#
# This file is available in the Crystallography Open Database (COD),
# http://www.crystallography.net/
#
# All data on this site have been placed in the public domain by the
# contributors.
#
data_7229434
loop_
_publ_author_name
'Goswami, Soumyabrata'
'Tripuramallu, Bharat Kumar'
'Goldberg, Israel'
_publ_section_title
;
 New meso-substituted trans-A2B2 porphyrins: Synthesis and structure of
 their metal-mediated supramolecular assemblies&#x2020;
;
_journal_name_full               CrystEngComm
_journal_paper_doi               10.1039/C7CE01642E
_journal_year                    2017
_chemical_formula_moiety         'C50 H34 N8 O9 Zn3'
_chemical_formula_sum            'C50 H34 N8 O9 Zn3'
_chemical_formula_weight         1086.96
_chemical_properties_physical    Air-sensitive,Moisture-sensitive
_space_group_crystal_system      monoclinic
_space_group_IT_number           15
_space_group_name_Hall           '-C 2yc'
_space_group_name_H-M_alt        'C 1 2/c 1'
_symmetry_space_group_name_Hall  '-C 2yc'
_symmetry_space_group_name_H-M   'C 1 2/c 1'
_atom_sites_solution_hydrogens   geom
_atom_sites_solution_primary     direct
_atom_sites_solution_secondary   difmap
_audit_creation_method           SHELXL-2014/7
_audit_update_record
;
2017-09-11 deposited with the CCDC.
2017-10-30 downloaded from the CCDC.
;
_cell_angle_alpha                90
_cell_angle_beta                 101.522(2)
_cell_angle_gamma                90
_cell_formula_units_Z            4
_cell_length_a                   26.3576(17)
_cell_length_b                   10.1239(6)
_cell_length_c                   27.0731(17)
_cell_measurement_reflns_used    4677
_cell_measurement_temperature    110(2)
_cell_measurement_theta_max      25.1
_cell_measurement_theta_min      1.58
_cell_volume                     7078.7(8)
_computing_cell_refinement       'Saint, Bruker-AXS'
_computing_data_collection       'Apex2, Bruker-AXS'
_computing_data_reduction        'Saint, Bruker-AXS'
_computing_structure_refinement  'SHELXL-2014/7 (Sheldrick, 2015)'
_computing_structure_solution    'SHELXT-2014 (Sheldrick, 2015)'
_diffrn_ambient_temperature      110(2)
_diffrn_detector_area_resol_mean 1.75
_diffrn_measured_fraction_theta_full 0.993
_diffrn_measured_fraction_theta_max 0.993
_diffrn_measurement_device_type  'ApexDuo, Bruker-AXS'
_diffrn_measurement_method       '1 deg. \f and \w scans'
_diffrn_radiation_type           MoK\a
_diffrn_radiation_wavelength     0.71073
_diffrn_reflns_av_R_equivalents  0.0431
_diffrn_reflns_av_unetI/netI     0.0508
_diffrn_reflns_Laue_measured_fraction_full 0.993
_diffrn_reflns_Laue_measured_fraction_max 0.993
_diffrn_reflns_limit_h_max       31
_diffrn_reflns_limit_h_min       -30
_diffrn_reflns_limit_k_max       8
_diffrn_reflns_limit_k_min       -12
_diffrn_reflns_limit_l_max       32
_diffrn_reflns_limit_l_min       -30
_diffrn_reflns_number            25125
_diffrn_reflns_point_group_measured_fraction_full 0.993
_diffrn_reflns_point_group_measured_fraction_max 0.993
_diffrn_reflns_theta_full        25.112
_diffrn_reflns_theta_max         25.112
_diffrn_reflns_theta_min         1.577
_diffrn_source                   'ImuS micro-focus'
_exptl_absorpt_coefficient_mu    1.052
_exptl_absorpt_correction_T_max  0.867
_exptl_absorpt_correction_T_min  0.772
_exptl_absorpt_correction_type   multi-scan
_exptl_absorpt_process_details   'Sadabs, Bruker-AXS'
_exptl_crystal_colour            red
_exptl_crystal_density_diffrn    1.020
_exptl_crystal_description       plate
_exptl_crystal_F_000             2208
_exptl_crystal_size_max          0.260
_exptl_crystal_size_mid          0.220
_exptl_crystal_size_min          0.140
_refine_diff_density_max         1.339
_refine_diff_density_min         -0.578
_refine_diff_density_rms         0.124
_refine_ls_extinction_method     none
_refine_ls_goodness_of_fit_ref   1.102
_refine_ls_hydrogen_treatment    constr
_refine_ls_matrix_type           full
_refine_ls_number_parameters     329
_refine_ls_number_reflns         6260
_refine_ls_number_restraints     0
_refine_ls_restrained_S_all      1.102
_refine_ls_R_factor_all          0.1014
_refine_ls_R_factor_gt           0.0776
_refine_ls_shift/su_max          0.006
_refine_ls_shift/su_mean         0.000
_refine_ls_structure_factor_coef Fsqd
_refine_ls_weighting_details
'w=1/[\s^2^(Fo^2^)+(0.0845P)^2^+82.9406P] where P=(Fo^2^+2Fc^2^)/3'
_refine_ls_weighting_scheme      calc
_refine_ls_wR_factor_gt          0.2064
_refine_ls_wR_factor_ref         0.2205
_reflns_Friedel_coverage         0.000
_reflns_number_gt                4677
_reflns_number_total             6260
_reflns_threshold_expression     'I > 2\s(I)'
_cod_data_source_file            c7ce01642e2.cif
_cod_data_source_block           gs42_sq
_cod_original_cell_volume        7078.6(8)
_cod_database_code               7229434
_shelx_shelxl_version_number     2014/7
_shelx_space_group_comment
;
The symmetry employed for this shelxl refinement is uniquely defined
by the following loop, which should always be used as a source of
symmetry information in preference to the above space-group names.
They are only intended as comments.
;
_shelx_estimated_absorpt_t_min   0.771
_shelx_estimated_absorpt_t_max   0.867
_platon_squeeze_void_probe_radius 1.20
_shelx_res_file
;

    gs42_sq.res created by SHELXL-2014/7


TITL mo_gs42a_0m_a.res in C2/c
REM Old TITL mo_gs42a_0m in C2/c

REM SHELXT solution in C2/c
REM R1 0.257,  Rweak 0.015,  Alpha 0.060,  Orientation as input
REM Formula found by SHELXT:  C55 N8 O8 Zn3

CELL  0.71073  26.3576  10.1239  27.0731   90.000  101.522   90.000
ZERR    4.000   0.0017   0.0006   0.0017    0.000    0.002    0.000
LATT  7
SYMM -X, Y, 1/2-Z
SFAC C H N O ZN
UNIT 200 136 32 36 12
TEMP -163.00
size 0.26 0.22 0.14
L.S. 5 0   85
BOND $H
FMAP 2
acta
list 4
PLAN -20
ABIN
WGHT    0.084500   82.940605
FVAR       0.12088
ZN1   5    0.334178    0.960886    0.485060    11.00000    0.02255    0.02646 =
         0.03729    0.00274    0.00990   -0.00076
ZN2   5    0.500000    0.506825    0.250000    10.37000    0.01980    0.02218 =
         0.02426    0.00000    0.00847    0.00000
ZN2'  5    0.500000    0.424392    0.250000    10.13000    0.02185    0.02819 =
         0.01032    0.00000    0.00472    0.00000
O1    4    0.500000    0.715231    0.250000    10.37000    0.08703    0.04389 =
         0.05082    0.00000    0.01308    0.00000
O1'   4    0.500000    0.186019    0.250000    10.13000    0.06666    0.07674 =
         0.01887    0.00000    0.00986    0.00000
O2    4    0.367204    0.802795    0.461757    11.00000    0.03038    0.02071 =
         0.04122    0.00332    0.01272    0.00023
O3    4    0.375108    0.098922    0.457532    11.00000    0.03802    0.02471 =
         0.05540    0.00293    0.01716   -0.00027
O4    4    0.321985    0.682173    0.506112    11.00000    0.05186    0.03577 =
         0.05727   -0.00036    0.03741    0.00207
O5    4    0.327332    0.204512    0.503646    11.00000    0.03648    0.03030 =
         0.05229    0.00568    0.02365   -0.00706
N1    3    0.523724    0.469661    0.326340    11.00000    0.01860    0.04228 =
         0.02467   -0.00196    0.00846   -0.00396
N2    3    0.236136    0.464537    0.063903    11.00000    0.02192    0.02931 =
         0.02259    0.00074    0.00866    0.00151
N3    3    0.424493    0.471141    0.257884    11.00000    0.02059    0.04135 =
         0.02290    0.00158    0.00685    0.00191
C1    1    0.357156    0.449191    0.472258    11.00000    0.01858    0.01838 =
         0.02855    0.00100    0.00584   -0.00621
AFIX  43
H1    2    0.338006    0.445859    0.498468    11.00000   -1.20000
AFIX   0
C2    1    0.369234    0.569835    0.454109    11.00000    0.01494    0.02948 =
         0.02538    0.00055    0.00247   -0.00015
C3    1    0.372452    0.333351    0.452937    11.00000    0.02235    0.01960 =
         0.03392    0.00009    0.00740   -0.00594
C4    1    0.350971    0.694747    0.475691    11.00000    0.02053    0.01691 =
         0.03822    0.00071    0.00639    0.00227
C5    1    0.397081    0.573622    0.414884    11.00000    0.02282    0.02156 =
         0.02766    0.00478    0.00510   -0.00376
AFIX  43
H5    2    0.406033    0.656396    0.402472    11.00000   -1.20000
AFIX   0
C6    1    0.573595    0.464451    0.352690    11.00000    0.02398    0.03654 =
         0.02596    0.00176    0.00691    0.00015
C7    1    0.249794    0.366555    0.097184    11.00000    0.02498    0.02965 =
         0.03952   -0.00173    0.00961   -0.00522
AFIX  43
H7    2    0.226273    0.295403    0.097073    11.00000   -1.20000
AFIX   0
C8    1    0.331013    0.469383    0.132687    11.00000    0.02581    0.04092 =
         0.02167   -0.00112    0.01162    0.00823
C9    1    0.493026    0.458600    0.361260    11.00000    0.02557    0.03589 =
         0.02438   -0.00203    0.01025   -0.00198
C10   1    0.411515    0.458410    0.394272    11.00000    0.01793    0.03297 =
         0.02159    0.00332    0.00438    0.00323
C11   1    0.381919    0.468472    0.168644    11.00000    0.02503    0.04290 =
         0.02337   -0.00114    0.00684   -0.00123
C12   1    0.399632    0.337722    0.413711    11.00000    0.02552    0.02749 =
         0.02842   -0.00413    0.00900   -0.00250
AFIX  43
H12   2    0.410068    0.257882    0.400222    11.00000   -1.20000
AFIX   0
C13   1    0.524443    0.442917    0.410663    11.00000    0.02801    0.05528 =
         0.02214    0.00443    0.00716   -0.00077
AFIX  43
H13   2    0.512424    0.431590    0.441218    11.00000   -1.20000
AFIX   0
C14   1    0.295793    0.363174    0.131388    11.00000    0.02450    0.03687 =
         0.03522    0.00310    0.00553   -0.00060
AFIX  43
H14   2    0.303915    0.290706    0.153870    11.00000   -1.20000
AFIX   0
C15   1    0.406715    0.469294    0.302329    11.00000    0.02768    0.04203 =
         0.02592   -0.00194    0.01062   -0.00171
C16   1    0.269157    0.565235    0.065120    11.00000    0.02484    0.02789 =
         0.03356    0.00405    0.01649    0.00574
AFIX  43
H16   2    0.259816    0.635902    0.042006    11.00000   -1.20000
AFIX   0
C17   1    0.438527    0.463938    0.350567    11.00000    0.02343    0.03053 =
         0.02576   -0.00210    0.00813    0.00100
C18   1    0.380871    0.471855    0.220290    11.00000    0.02478    0.04539 =
         0.03012   -0.00115    0.00858    0.00157
C19   1    0.574674    0.447327    0.405498    11.00000    0.02471    0.05925 =
         0.02386    0.00202    0.00483   -0.00084
AFIX  43
H19   2    0.604531    0.440445    0.431638    11.00000   -1.20000
AFIX   0
C20   1    0.357293    0.204727    0.473204    11.00000    0.02460    0.03190 =
         0.03790    0.00201   -0.00080   -0.00126
C21   1    0.351608    0.475060    0.292351    11.00000    0.02093    0.06352 =
         0.03168   -0.00478    0.01304   -0.00439
AFIX  43
H21   2    0.330259    0.476868    0.316766    11.00000   -1.20000
AFIX   0
C22   1    0.316338    0.571430    0.098477    11.00000    0.02472    0.02430 =
         0.03270   -0.00274    0.01100   -0.00605
AFIX  43
H22   2    0.338569    0.645073    0.097982    11.00000   -1.20000
AFIX   0
C23   1    0.335298    0.477485    0.241777    11.00000    0.02054    0.06593 =
         0.03650    0.00351    0.01128    0.00260
AFIX  43
H23   2    0.300452    0.482032    0.223891    11.00000   -1.20000
AFIX   0
rem  dimethylamine
N5    3    0.329060    0.930734    0.557069    11.00000    0.06991    0.06488 =
         0.03453   -0.00009    0.01670    0.01082
C24   1    0.283290    0.987998    0.570735    11.00000    0.05270    0.07562 =
         0.05960    0.01994    0.02600    0.00286
AFIX 137
H24A  2    0.279910    0.955528    0.604025    11.00000   -1.50000
H24B  2    0.252579    0.962677    0.545727    11.00000   -1.50000
H24C  2    0.286479    1.084452    0.571678    11.00000   -1.50000
AFIX   0
C25   1    0.377642    0.964301    0.592024    11.00000    0.06332    0.19473 =
         0.07948   -0.00990   -0.02553    0.01636
AFIX 137
H25A  2    0.375750    1.055251    0.603918    11.00000   -1.50000
H25B  2    0.406675    0.956170    0.574562    11.00000   -1.50000
H25C  2    0.382846    0.903833    0.620863    11.00000   -1.50000
AFIX   0
HKLF 4

REM  mo_gs42a_0m_a.res in C2/c
REM R1 =  0.0776 for    4677 Fo > 4sig(Fo)  and  0.1014 for all    6260 data
REM    329 parameters refined using      0 restraints

END

WGHT      0.0843     82.8310

REM Highest difference peak  1.339,  deepest hole -0.578,  1-sigma level  0.124
Q1    1   0.3293  0.9645  0.5182  11.00000  0.05    1.34
Q2    1   0.4737  0.1536  0.2102  11.00000  0.05    1.33
Q3    1   0.5388  0.1542  0.2500  11.00000  0.05    1.20
Q4    1   0.2864  0.9063  0.5402  11.00000  0.05    1.05
Q5    1   0.3388  1.0548  0.4857  11.00000  0.05    1.03
Q6    1   0.3980  0.9644  0.5514  11.00000  0.05    0.91
Q7    1   0.5000  0.6188  0.2500  10.50000  0.05    0.89
Q8    1   0.5000  0.2223  0.2500  10.50000  0.05    0.83
Q9    1   0.5121  0.7896  0.2288  11.00000  0.05    0.79
Q10   1   0.5000  0.3379  0.2500  10.50000  0.05    0.77
Q11   1   0.3366  0.8724  0.4924  11.00000  0.05    0.70
Q12   1   0.3390  0.7751  0.4906  11.00000  0.05    0.67
Q13   1   0.5090  0.3654  0.4517  11.00000  0.05    0.53
Q14   1   0.2982  0.9738  0.4631  11.00000  0.05    0.51
Q15   1   0.3324  0.8072  0.4531  11.00000  0.05    0.43
Q16   1   0.2583  1.0391  0.4342  11.00000  0.05    0.41
Q17   1   0.3175  0.8133  0.5474  11.00000  0.05    0.40
Q18   1   0.4266  0.5009  0.1972  11.00000  0.05    0.39
Q19   1   0.3630  0.5166  0.4709  11.00000  0.05    0.38
Q20   1   0.3240  0.3816  0.1296  11.00000  0.05    0.38
;
_shelx_res_checksum              80306
_shelx_fab_file
;
    2    0    0    100.94      0.00
    4    0    0    148.85      0.00
    6    0    0    136.90      0.00
    8    0    0     58.14      0.00
   10    0    0     55.62      0.00
   12    0    0     31.82      0.00
   14    0    0     26.68      0.00
   16    0    0     18.80      0.00
   18    0    0     21.54      0.00
   20    0    0     -3.97      0.00
   22    0    0     -3.95      0.00
   24    0    0      4.76      0.00
   26    0    0     -1.96      0.00
   28    0    0      2.41      0.00
   30    0    0      0.20      0.00
    1    1    0   -276.03      0.00
    3    1    0     13.91      0.00
    5    1    0   -122.80      0.00
    7    1    0    -48.31      0.00
    9    1    0    -26.27      0.00
   11    1    0    -20.86      0.00
   13    1    0    -15.14      0.00
   15    1    0     -7.69      0.00
   17    1    0    -10.03      0.00
   19    1    0     -5.38      0.00
   21    1    0      6.39      0.00
   23    1    0      0.03      0.00
   25    1    0      0.32      0.00
   27    1    0     -0.78      0.00
   29    1    0     -0.45      0.00
    0    2    0    -48.24      0.00
    2    2    0    -33.96      0.00
    4    2    0    -49.15      0.00
    6    2    0      9.44      0.00
    8    2    0    -22.79      0.00
   10    2    0    -32.33      0.00
   12    2    0     -7.76      0.00
   14    2    0    -14.72      0.00
   16    2    0    -12.18      0.00
   18    2    0     -6.55      0.00
   20    2    0     -3.35      0.00
   22    2    0     -5.50      0.00
   24    2    0     -6.05      0.00
   26    2    0      1.14      0.00
   28    2    0     -2.42      0.00
   30    2    0     -2.98      0.00
    1    3    0    123.58      0.00
    3    3    0     46.68      0.00
    5    3    0     62.50      0.00
    7    3    0     29.16      0.00
    9    3    0     56.62      0.00
   11    3    0     34.08      0.00
   13    3    0     22.28      0.00
   15    3    0     19.00      0.00
   17    3    0     19.45      0.00
   19    3    0      9.99      0.00
   21    3    0      4.96      0.00
   23    3    0      8.89      0.00
   25    3    0      6.20      0.00
   27    3    0      2.88      0.00
   29    3    0      8.53      0.00
    0    4    0    -63.53      0.00
    2    4    0     -7.85      0.00
    4    4    0    -24.29      0.00
    6    4    0    -19.73      0.00
    8    4    0    -18.49      0.00
   10    4    0    -25.38      0.00
   12    4    0    -17.31      0.00
   14    4    0     -7.01      0.00
   16    4    0    -14.01      0.00
   18    4    0    -12.76      0.00
   20    4    0     -5.10      0.00
   22    4    0      3.71      0.00
   24    4    0     -3.08      0.00
   26    4    0     -2.95      0.00
   28    4    0     -1.77      0.00
    1    5    0    -31.15      0.00
    3    5    0    -29.82      0.00
    5    5    0     -8.67      0.00
    7    5    0    -12.39      0.00
    9    5    0     -8.57      0.00
   11    5    0     -1.75      0.00
   13    5    0     -2.99      0.00
   15    5    0     -4.07      0.00
   17    5    0      5.81      0.00
   19    5    0      0.33      0.00
   21    5    0     -2.20      0.00
   23    5    0    -11.22      0.00
   25    5    0     -3.79      0.00
   27    5    0    -10.19      0.00
    0    6    0     34.07      0.00
    2    6    0     35.61      0.00
    4    6    0     25.00      0.00
    6    6    0      8.55      0.00
    8    6    0     18.65      0.00
   10    6    0     10.34      0.00
   12    6    0      6.98      0.00
   14    6    0      4.13      0.00
   16    6    0     10.04      0.00
   18    6    0     -0.96      0.00
   20    6    0      2.39      0.00
   22    6    0     -5.53      0.00
   24    6    0      3.24      0.00
   26    6    0     12.89      0.00
    1    7    0     -5.88      0.00
    3    7    0    -26.69      0.00
    5    7    0      5.33      0.00
    7    7    0     -8.43      0.00
    9    7    0    -13.70      0.00
   11    7    0      7.23      0.00
   13    7    0     -2.37      0.00
   15    7    0     -5.30      0.00
   17    7    0     -6.08      0.00
   19    7    0      2.73      0.00
   21    7    0      4.76      0.00
   23    7    0      9.96      0.00
   25    7    0     -1.59      0.00
    0    8    0    -13.32      0.00
    2    8    0     14.50      0.00
    4    8    0     -4.52      0.00
    6    8    0     -5.17      0.00
    8    8    0      9.67      0.00
   10    8    0     -2.23      0.00
   12    8    0    -12.23      0.00
   14    8    0      9.08      0.00
   16    8    0     -1.38      0.00
   18    8    0      1.22      0.00
   20    8    0     -5.47      0.00
   22    8    0      4.21      0.00
    1    9    0     -2.95      0.00
    3    9    0      2.65      0.00
    5    9    0      3.34      0.00
    7    9    0      2.83      0.00
    9    9    0     -3.54      0.00
   11    9    0      4.05      0.00
   13    9    0      2.30      0.00
   15    9    0     -8.76      0.00
   17    9    0      8.37      0.00
   19    9    0     -6.99      0.00
    0   10    0     -4.98      0.00
    2   10    0     -1.99      0.00
    4   10    0      0.11      0.00
    6   10    0     -5.33      0.00
    8   10    0     -3.77      0.00
   10   10    0      4.72      0.00
   12   10    0     -3.19      0.00
   14   10    0      1.40      0.00
   16   10    0     -4.07      0.00
    1   11    0      5.37      0.00
    3   11    0     -0.68      0.00
    5   11    0     -2.20      0.00
    7   11    0     10.61      0.00
    9   11    0     -1.92      0.00
   11   11    0     -1.32      0.00
    0   12    0      0.12      0.00
    2   12    0     -4.86      0.00
  -29    1    1     -5.38      0.00
  -27    1    1     -3.18      0.00
  -25    1    1    -14.65      0.00
  -23    1    1     -3.98      0.00
  -21    1    1      4.71      0.00
  -19    1    1     -2.19      0.00
  -17    1    1     -4.79      0.00
  -15    1    1     -9.02      0.00
  -13    1    1    -10.75      0.00
  -11    1    1    -10.89      0.00
   -9    1    1    -16.20      0.00
   -7    1    1     -7.01      0.00
   -5    1    1    -34.08      0.00
   -3    1    1    -35.03      0.00
   -1    1    1    -83.61      0.00
    1    1    1    -62.79      0.00
    3    1    1      0.71      0.00
    5    1    1    -28.49      0.00
    7    1    1    -15.83      0.00
    9    1    1    -12.36      0.00
   11    1    1     -5.29      0.00
   13    1    1     -1.58      0.00
   15    1    1     -1.41      0.00
   17    1    1     -4.07      0.00
   19    1    1      1.98      0.00
   21    1    1      0.46      0.00
   23    1    1     -3.26      0.00
   25    1    1     -7.63      0.00
   27    1    1      3.43      0.00
   29    1    1      2.56      0.00
  -30    2    1      7.99      0.00
  -28    2    1      5.12      0.00
  -26    2    1     11.07      0.00
  -24    2    1     10.16      0.00
  -22    2    1      0.87      0.00
  -20    2    1     -1.46      0.00
  -18    2    1     -1.51      0.00
  -16    2    1     -1.02      0.00
  -14    2    1      7.27      0.00
  -12    2    1      6.59      0.00
  -10    2    1     10.15      0.00
   -8    2    1      9.54      0.00
   -6    2    1     25.60      0.00
   -4    2    1     -7.01      0.00
   -2    2    1     69.10      0.00
    0    2    1      7.26      0.00
    2    2    1     49.86      0.00
    4    2    1      4.34      0.00
    6    2    1     43.81      0.00
    8    2    1     23.75      0.00
   10    2    1      9.08      0.00
   12    2    1     -0.32      0.00
   14    2    1      3.80      0.00
   16    2    1      2.18      0.00
   18    2    1     -1.73      0.00
   20    2    1      1.21      0.00
   22    2    1      3.16      0.00
   24    2    1      6.52      0.00
   26    2    1      4.35      0.00
   28    2    1     -0.22      0.00
   30    2    1      3.02      0.00
  -29    3    1     -4.24      0.00
  -27    3    1     -6.44      0.00
  -25    3    1     -4.43      0.00
  -23    3    1      1.36      0.00
  -21    3    1      0.33      0.00
  -19    3    1      6.76      0.00
  -17    3    1      9.95      0.00
  -15    3    1     10.48      0.00
  -13    3    1      1.44      0.00
  -11    3    1      8.86      0.00
   -9    3    1     17.00      0.00
   -7    3    1    -18.09      0.00
   -5    3    1     42.54      0.00
   -3    3    1    -12.05      0.00
   -1    3    1     42.05      0.00
    1    3    1     31.92      0.00
    3    3    1    -33.91      0.00
    5    3    1      6.32      0.00
    7    3    1    -33.75      0.00
    9    3    1     -2.54      0.00
   11    3    1      0.87      0.00
   13    3    1     -4.24      0.00
   15    3    1     -2.92      0.00
   17    3    1      0.81      0.00
   19    3    1      1.15      0.00
   21    3    1     -5.29      0.00
   23    3    1     -0.10      0.00
   25    3    1     -5.32      0.00
   27    3    1     -3.88      0.00
   29    3    1     -3.02      0.00
  -28    4    1     -2.83      0.00
  -26    4    1      3.46      0.00
  -24    4    1     -6.77      0.00
  -22    4    1     -4.54      0.00
  -20    4    1     -2.71      0.00
  -18    4    1     -4.98      0.00
  -16    4    1     -9.05      0.00
  -14    4    1     -8.77      0.00
  -12    4    1     -5.59      0.00
  -10    4    1    -33.78      0.00
   -8    4    1     -9.99      0.00
   -6    4    1    -34.67      0.00
   -4    4    1    -23.01      0.00
   -2    4    1    -25.20      0.00
    0    4    1    -71.74      0.00
    2    4    1     -3.62      0.00
    4    4    1     -6.47      0.00
    6    4    1    -13.24      0.00
    8    4    1     -2.19      0.00
   10    4    1    -10.82      0.00
   12    4    1      1.34      0.00
   14    4    1     -0.71      0.00
   16    4    1     -2.79      0.00
   18    4    1     -4.45      0.00
   20    4    1     -2.27      0.00
   22    4    1     -3.17      0.00
   24    4    1     -4.73      0.00
   26    4    1      4.38      0.00
   28    4    1     -3.33      0.00
  -27    5    1      0.53      0.00
  -25    5    1      2.50      0.00
  -23    5    1      4.13      0.00
  -21    5    1     -0.02      0.00
  -19    5    1     -3.48      0.00
  -17    5    1     -2.58      0.00
  -15    5    1      3.49      0.00
  -13    5    1     -3.18      0.00
  -11    5    1     13.04      0.00
   -9    5    1     12.46      0.00
   -7    5    1     22.75      0.00
   -5    5    1     19.71      0.00
   -3    5    1      7.02      0.00
   -1    5    1     27.19      0.00
    1    5    1     24.03      0.00
    3    5    1      2.60      0.00
    5    5    1     16.15      0.00
    7    5    1     18.14      0.00
    9    5    1      9.79      0.00
   11    5    1      8.23      0.00
   13    5    1      5.37      0.00
   15    5    1      9.16      0.00
   17    5    1      7.11      0.00
   19    5    1      6.30      0.00
   21    5    1      6.00      0.00
   23    5    1      6.55      0.00
   25    5    1      3.29      0.00
   27    5    1      5.40      0.00
  -26    6    1      1.67      0.00
  -24    6    1     -3.48      0.00
  -22    6    1      3.74      0.00
  -20    6    1      4.94      0.00
  -18    6    1      6.79      0.00
  -16    6    1      1.56      0.00
  -14    6    1      3.80      0.00
  -12    6    1     -0.47      0.00
  -10    6    1      2.91      0.00
   -8    6    1     -5.09      0.00
   -6    6    1     -4.70      0.00
   -4    6    1      3.28      0.00
   -2    6    1     -1.45      0.00
    0    6    1     18.27      0.00
    2    6    1     -4.06      0.00
    4    6    1      2.91      0.00
    6    6    1     -5.32      0.00
    8    6    1     -4.45      0.00
   10    6    1     -1.10      0.00
   12    6    1     -5.83      0.00
   14    6    1     -7.58      0.00
   16    6    1     -5.88      0.00
   18    6    1     -0.93      0.00
   20    6    1     -4.77      0.00
   22    6    1      0.79      0.00
   24    6    1     -2.81      0.00
   26    6    1     -5.03      0.00
  -25    7    1      2.09      0.00
  -23    7    1      2.11      0.00
  -21    7    1     -7.91      0.00
  -19    7    1     -5.66      0.00
  -17    7    1      0.06      0.00
  -15    7    1     -4.75      0.00
  -13    7    1      2.96      0.00
  -11    7    1      0.53      0.00
   -9    7    1     -6.41      0.00
   -7    7    1     -3.66      0.00
   -5    7    1    -11.57      0.00
   -3    7    1      1.11      0.00
   -1    7    1    -23.13      0.00
    1    7    1    -20.82      0.00
    3    7    1     -2.10      0.00
    5    7    1    -10.70      0.00
    7    7    1     -3.79      0.00
    9    7    1     -6.07      0.00
   11    7    1      0.68      0.00
   13    7    1      5.09      0.00
   15    7    1     -2.75      0.00
   17    7    1     -0.25      0.00
   19    7    1     -1.67      0.00
   21    7    1     -3.50      0.00
   23    7    1     -2.45      0.00
  -22    8    1      5.22      0.00
  -20    8    1      5.34      0.00
  -18    8    1     -1.03      0.00
  -16    8    1      1.34      0.00
  -14    8    1      3.77      0.00
  -12    8    1     -6.49      0.00
  -10    8    1      3.41      0.00
   -8    8    1     11.60      0.00
   -6    8    1      5.28      0.00
   -4    8    1      6.19      0.00
   -2    8    1      5.03      0.00
    0    8    1     13.19      0.00
    2    8    1      3.10      0.00
    4    8    1      9.19      0.00
    6    8    1      0.07      0.00
    8    8    1      9.70      0.00
   10    8    1      3.99      0.00
   12    8    1     -9.28      0.00
   14    8    1      4.01      0.00
   16    8    1     -0.28      0.00
   18    8    1     -3.93      0.00
   20    8    1      3.01      0.00
   22    8    1      4.43      0.00
  -19    9    1      5.20      0.00
  -17    9    1     -1.18      0.00
  -15    9    1     -4.95      0.00
  -13    9    1     -5.35      0.00
  -11    9    1      0.62      0.00
   -9    9    1    -15.23      0.00
   -7    9    1     -0.44      0.00
   -5    9    1     -2.70      0.00
   -3    9    1     -0.67      0.00
   -1    9    1     -3.15      0.00
    1    9    1     -1.78      0.00
    3    9    1      1.39      0.00
    5    9    1     -4.65      0.00
    7    9    1      0.76      0.00
    9    9    1    -14.69      0.00
   11    9    1      4.80      0.00
   13    9    1      4.84      0.00
   15    9    1      3.43      0.00
   17    9    1      7.67      0.00
   19    9    1      8.71      0.00
  -16   10    1      4.29      0.00
  -14   10    1     13.43      0.00
  -12   10    1      4.98      0.00
  -10   10    1     10.24      0.00
   -8   10    1      8.87      0.00
   -6   10    1     -1.46      0.00
   -4   10    1      1.59      0.00
   -2   10    1      0.37      0.00
    0   10    1      3.79      0.00
    2   10    1     -0.28      0.00
    4   10    1      5.71      0.00
    6   10    1      2.21      0.00
    8   10    1      8.06      0.00
   10   10    1      4.76      0.00
   12   10    1     -7.99      0.00
   14   10    1     -8.00      0.00
   16   10    1     -3.65      0.00
  -11   11    1      1.06      0.00
   -9   11    1    -11.38      0.00
   -7   11    1     -7.61      0.00
   -5   11    1     -5.24      0.00
   -3   11    1     -8.99      0.00
   -1   11    1     -4.91      0.00
    1   11    1      1.06      0.00
    3   11    1    -10.96      0.00
    5   11    1     -4.10      0.00
    7   11    1     -1.57      0.00
    9   11    1     -6.10      0.00
   11   11    1     11.09      0.00
   -2   12    1      6.09      0.00
    0   12    1      9.35      0.00
    2   12    1     -0.69      0.00
  -30    0    2      1.96      0.00
  -28    0    2     -2.65      0.00
  -26    0    2      3.36      0.00
  -24    0    2     -7.61      0.00
  -22    0    2     -2.45      0.00
  -20    0    2      5.52      0.00
  -18    0    2    -10.71      0.00
  -16    0    2     -1.42      0.00
  -14    0    2      0.69      0.00
  -12    0    2     12.96      0.00
  -10    0    2     11.85      0.00
   -8    0    2     56.42      0.00
   -6    0    2     20.36      0.00
   -4    0    2     48.10      0.00
   -2    0    2    195.75      0.00
    2    0    2    124.38      0.00
    4    0    2     86.83      0.00
    6    0    2     21.70      0.00
    8    0    2     30.41      0.00
   10    0    2     15.92      0.00
   12    0    2     13.01      0.00
   14    0    2     11.81      0.00
   16    0    2     10.84      0.00
   18    0    2      4.35      0.00
   20    0    2      9.05      0.00
   22    0    2      7.82      0.00
   24    0    2      4.05      0.00
   26    0    2      4.36      0.00
   28    0    2      7.73      0.00
   30    0    2      2.92      0.00
  -31    1    2     -1.84      0.00
  -29    1    2     -0.42      0.00
  -27    1    2     -0.77      0.00
  -25    1    2     -0.36      0.00
  -23    1    2      6.40      0.00
  -21    1    2     -3.49      0.00
  -19    1    2      4.90      0.00
  -17    1    2      3.69      0.00
  -15    1    2     -0.74      0.00
  -13    1    2     -3.70      0.00
  -11    1    2     -6.15      0.00
   -9    1    2    -26.12      0.00
   -7    1    2    -45.89      0.00
   -5    1    2     28.91      0.00
   -3    1    2   -163.59      0.00
   -1    1    2     60.56      0.00
    1    1    2     84.32      0.00
    3    1    2    -83.97      0.00
    5    1    2      0.61      0.00
    7    1    2     -0.81      0.00
    9    1    2     -4.95      0.00
   11    1    2     -4.31      0.00
   13    1    2      0.18      0.00
   15    1    2     -4.33      0.00
   17    1    2     -1.76      0.00
   19    1    2      0.09      0.00
   21    1    2     -4.35      0.00
   23    1    2     -4.32      0.00
   25    1    2     -2.54      0.00
   27    1    2     -1.31      0.00
   29    1    2     -4.91      0.00
  -30    2    2      2.83      0.00
  -28    2    2      4.26      0.00
  -26    2    2      0.12      0.00
  -24    2    2     -0.26      0.00
  -22    2    2      0.27      0.00
  -20    2    2     -4.56      0.00
  -18    2    2     -0.87      0.00
  -16    2    2      0.30      0.00
  -14    2    2      1.86      0.00
  -12    2    2     -9.86      0.00
  -10    2    2     13.97      0.00
   -8    2    2     25.64      0.00
   -6    2    2    -25.25      0.00
   -4    2    2     42.90      0.00
   -2    2    2     32.18      0.00
    0    2    2      3.80      0.00
    2    2    2    -36.18      0.00
    4    2    2    -29.11      0.00
    6    2    2    -35.73      0.00
    8    2    2    -30.58      0.00
   10    2    2    -12.17      0.00
   12    2    2    -18.54      0.00
   14    2    2    -11.57      0.00
   16    2    2     -6.17      0.00
   18    2    2     -7.41      0.00
   20    2    2     -7.02      0.00
   22    2    2     -1.10      0.00
   24    2    2      2.05      0.00
   26    2    2     -4.05      0.00
   28    2    2     -0.48      0.00
  -29    3    2     -5.85      0.00
  -27    3    2      0.28      0.00
  -25    3    2     -0.42      0.00
  -23    3    2      0.70      0.00
  -21    3    2      4.75      0.00
  -19    3    2      4.02      0.00
  -17    3    2     -3.80      0.00
  -15    3    2      3.96      0.00
  -13    3    2     12.12      0.00
  -11    3    2      2.60      0.00
   -9    3    2    -19.03      0.00
   -7    3    2     20.96      0.00
   -5    3    2    -12.62      0.00
   -3    3    2      1.80      0.00
   -1    3    2    -64.30      0.00
    1    3    2    -20.56      0.00
    3    3    2     31.84      0.00
    5    3    2     19.97      0.00
    7    3    2     29.20      0.00
    9    3    2     16.27      0.00
   11    3    2     20.50      0.00
   13    3    2     12.90      0.00
   15    3    2     10.33      0.00
   17    3    2      6.81      0.00
   19    3    2      4.44      0.00
   21    3    2      7.98      0.00
   23    3    2      1.22      0.00
   25    3    2      2.08      0.00
   27    3    2      3.49      0.00
   29    3    2      0.49      0.00
  -28    4    2     -3.41      0.00
  -26    4    2      1.32      0.00
  -24    4    2      1.97      0.00
  -22    4    2     -6.48      0.00
  -20    4    2     -1.88      0.00
  -18    4    2      5.75      0.00
  -16    4    2      1.51      0.00
  -14    4    2    -11.86      0.00
  -12    4    2     -8.89      0.00
  -10    4    2     10.26      0.00
   -8    4    2     -7.85      0.00
   -6    4    2      4.56      0.00
   -4    4    2      4.43      0.00
   -2    4    2      9.14      0.00
    0    4    2     52.58      0.00
    2    4    2      0.60      0.00
    4    4    2     17.14      0.00
    6    4    2     -3.90      0.00
    8    4    2      1.69      0.00
   10    4    2     -7.19      0.00
   12    4    2      2.33      0.00
   14    4    2     -6.37      0.00
   16    4    2     -2.74      0.00
   18    4    2      2.79      0.00
   20    4    2      3.79      0.00
   22    4    2     -4.43      0.00
   24    4    2      1.91      0.00
   26    4    2      2.32      0.00
   28    4    2     -2.77      0.00
  -27    5    2      4.47      0.00
  -25    5    2     -3.38      0.00
  -23    5    2      3.97      0.00
  -21    5    2     -2.11      0.00
  -19    5    2     -5.69      0.00
  -17    5    2     -6.11      0.00
  -15    5    2      1.59      0.00
  -13    5    2      7.58      0.00
  -11    5    2     -5.23      0.00
   -9    5    2     -0.47      0.00
   -7    5    2     -7.56      0.00
   -5    5    2    -17.05      0.00
   -3    5    2      3.85      0.00
   -1    5    2     -9.59      0.00
    1    5    2     -5.60      0.00
    3    5    2     -8.53      0.00
    5    5    2    -10.12      0.00
    7    5    2     -3.75      0.00
    9    5    2     -3.47      0.00
   11    5    2     -2.50      0.00
   13    5    2     -5.39      0.00
   15    5    2      7.85      0.00
   17    5    2     -3.83      0.00
   19    5    2     -7.49      0.00
   21    5    2     -7.61      0.00
   23    5    2      0.48      0.00
   25    5    2     -7.60      0.00
   27    5    2      4.17      0.00
  -26    6    2     -3.46      0.00
  -24    6    2     -8.97      0.00
  -22    6    2      6.21      0.00
  -20    6    2      0.65      0.00
  -18    6    2     -0.13      0.00
  -16    6    2     -6.55      0.00
  -14    6    2     -2.51      0.00
  -12    6    2      2.25      0.00
  -10    6    2      4.67      0.00
   -8    6    2     -0.70      0.00
   -6    6    2     22.69      0.00
   -4    6    2      5.08      0.00
   -2    6    2     -3.59      0.00
    0    6    2     -2.17      0.00
    2    6    2     -6.98      0.00
    4    6    2     -7.49      0.00
    6    6    2      2.70      0.00
    8    6    2     -1.83      0.00
   10    6    2     -1.74      0.00
   12    6    2      0.04      0.00
   14    6    2     -1.90      0.00
   16    6    2     -9.63      0.00
   18    6    2      3.22      0.00
   20    6    2      2.84      0.00
   22    6    2      1.76      0.00
   24    6    2      6.35      0.00
   26    6    2    -11.53      0.00
  -25    7    2      4.14      0.00
  -23    7    2      2.92      0.00
  -21    7    2     -3.48      0.00
  -19    7    2      2.75      0.00
  -17    7    2     11.74      0.00
  -15    7    2     12.67      0.00
  -13    7    2      2.36      0.00
  -11    7    2     -7.08      0.00
   -9    7    2      3.28      0.00
   -7    7    2      5.19      0.00
   -5    7    2    -24.87      0.00
   -3    7    2     10.55      0.00
   -1    7    2     -8.07      0.00
    1    7    2     -9.35      0.00
    3    7    2     11.53      0.00
    5    7    2     -4.15      0.00
    7    7    2     -7.62      0.00
    9    7    2      8.62      0.00
   11    7    2     -7.86      0.00
   13    7    2      0.36      0.00
   15    7    2      4.66      0.00
   17    7    2      3.11      0.00
   19    7    2      0.17      0.00
   21    7    2      6.75      0.00
   23    7    2     -5.75      0.00
  -22    8    2     -8.50      0.00
  -20    8    2      5.20      0.00
  -18    8    2     -2.81      0.00
  -16    8    2     -5.25      0.00
  -14    8    2    -16.93      0.00
  -12    8    2      7.75      0.00
  -10    8    2      4.44      0.00
   -8    8    2    -13.13      0.00
   -6    8    2      3.05      0.00
   -4    8    2      8.97      0.00
   -2    8    2     -9.04      0.00
    0    8    2     21.01      0.00
    2    8    2      3.33      0.00
    4    8    2      3.64      0.00
    6    8    2      9.11      0.00
    8    8    2     -3.12      0.00
   10    8    2      0.93      0.00
   12    8    2      9.09      0.00
   14    8    2      0.72      0.00
   16    8    2      4.34      0.00
   18    8    2      1.12      0.00
   20    8    2     -3.59      0.00
   22    8    2     -6.58      0.00
  -19    9    2      1.30      0.00
  -17    9    2    -15.17      0.00
  -15    9    2      8.89      0.00
  -13    9    2      2.86      0.00
  -11    9    2    -15.28      0.00
   -9    9    2      3.39      0.00
   -7    9    2     -1.00      0.00
   -5    9    2     -1.54      0.00
   -3    9    2      2.65      0.00
   -1    9    2      0.34      0.00
    1    9    2     -0.83      0.00
    3    9    2     -1.94      0.00
    5    9    2      0.36      0.00
    7    9    2      0.12      0.00
    9    9    2     -1.50      0.00
   11    9    2      4.85      0.00
   13    9    2    -11.76      0.00
   15    9    2     -2.67      0.00
   17    9    2    -11.23      0.00
   19    9    2      4.23      0.00
  -16   10    2     11.93      0.00
  -14   10    2     -4.82      0.00
  -12   10    2     10.38      0.00
  -10   10    2      0.42      0.00
   -8   10    2      5.52      0.00
   -6   10    2      1.00      0.00
   -4   10    2     -4.27      0.00
   -2   10    2     -7.66      0.00
    0   10    2     -4.09      0.00
    2   10    2     -5.00      0.00
    4   10    2     -9.32      0.00
    6   10    2      6.04      0.00
    8   10    2      4.61      0.00
   10   10    2     -7.14      0.00
   12   10    2      0.93      0.00
   14   10    2      5.46      0.00
   16   10    2      9.46      0.00
  -11   11    2      3.79      0.00
   -9   11    2      0.38      0.00
   -7   11    2     -6.50      0.00
   -5   11    2      6.73      0.00
   -3   11    2      4.65      0.00
   -1   11    2      4.45      0.00
    1   11    2     -1.75      0.00
    3   11    2      7.71      0.00
    5   11    2      2.78      0.00
    7   11    2    -11.19      0.00
    9   11    2      6.39      0.00
   11   11    2      2.73      0.00
   -2   12    2      4.18      0.00
    0   12    2      1.50      0.00
    2   12    2      3.15      0.00
  -31    1    3     -2.73      0.00
  -29    1    3     -7.53      0.00
  -27    1    3     -9.54      0.00
  -25    1    3      1.97      0.00
  -23    1    3      0.83      0.00
  -21    1    3     -7.86      0.00
  -19    1    3     -0.03      0.00
  -17    1    3     -4.63      0.00
  -15    1    3     -7.04      0.00
  -13    1    3     -2.93      0.00
  -11    1    3     -7.88      0.00
   -9    1    3     -4.56      0.00
   -7    1    3    -23.33      0.00
   -5    1    3    -23.54      0.00
   -3    1    3    -13.74      0.00
   -1    1    3    -24.99      0.00
    1    1    3    -42.70      0.00
    3    1    3    -70.26      0.00
    5    1    3    -12.16      0.00
    7    1    3     -9.16      0.00
    9    1    3    -19.78      0.00
   11    1    3    -21.08      0.00
   13    1    3    -16.83      0.00
   15    1    3    -17.84      0.00
   17    1    3     -9.63      0.00
   19    1    3    -12.59      0.00
   21    1    3     -5.96      0.00
   23    1    3     -1.67      0.00
   25    1    3     -3.82      0.00
   27    1    3     -7.65      0.00
   29    1    3     -6.77      0.00
  -30    2    3      0.40      0.00
  -28    2    3      8.35      0.00
  -26    2    3      4.47      0.00
  -24    2    3      0.23      0.00
  -22    2    3      6.12      0.00
  -20    2    3      2.25      0.00
  -18    2    3      2.42      0.00
  -16    2    3     10.75      0.00
  -14    2    3      4.87      0.00
  -12    2    3      4.31      0.00
  -10    2    3     -0.30      0.00
   -8    2    3     12.50      0.00
   -6    2    3      1.77      0.00
   -4    2    3     29.71      0.00
   -2    2    3    -27.40      0.00
    0    2    3     57.51      0.00
    2    2    3     31.21      0.00
    4    2    3     42.63      0.00
    6    2    3     -4.73      0.00
    8    2    3      7.95      0.00
   10    2    3     16.06      0.00
   12    2    3     19.89      0.00
   14    2    3     11.84      0.00
   16    2    3      9.89      0.00
   18    2    3     12.23      0.00
   20    2    3      7.99      0.00
   22    2    3      3.13      0.00
   24    2    3      1.07      0.00
   26    2    3      3.34      0.00
   28    2    3      6.40      0.00
  -29    3    3     -2.11      0.00
  -27    3    3     -0.95      0.00
  -25    3    3     -1.93      0.00
  -23    3    3     -2.29      0.00
  -21    3    3      0.76      0.00
  -19    3    3      4.76      0.00
  -17    3    3     -1.20      0.00
  -15    3    3     -3.04      0.00
  -13    3    3      9.07      0.00
  -11    3    3      9.81      0.00
   -9    3    3     -0.96      0.00
   -7    3    3     31.90      0.00
   -5    3    3    -12.85      0.00
   -3    3    3     37.95      0.00
   -1    3    3    -10.81      0.00
    1    3    3     -7.43      0.00
    3    3    3     18.92      0.00
    5    3    3      0.95      0.00
    7    3    3     19.41      0.00
    9    3    3      8.67      0.00
   11    3    3      2.58      0.00
   13    3    3      1.33      0.00
   15    3    3      3.92      0.00
   17    3    3     -3.88      0.00
   19    3    3     -4.99      0.00
   21    3    3     -1.29      0.00
   23    3    3     -2.17      0.00
   25    3    3      4.57      0.00
   27    3    3      1.77      0.00
   29    3    3      1.10      0.00
  -28    4    3     -1.78      0.00
  -26    4    3     -4.15      0.00
  -24    4    3     -0.64      0.00
  -22    4    3     -1.09      0.00
  -20    4    3     -7.74      0.00
  -18    4    3     -9.68      0.00
  -16    4    3     -6.13      0.00
  -14    4    3    -12.91      0.00
  -12    4    3    -25.88      0.00
  -10    4    3     -3.08      0.00
   -8    4    3    -35.24      0.00
   -6    4    3    -12.66      0.00
   -4    4    3    -27.83      0.00
   -2    4    3    -17.51      0.00
    0    4    3      4.36      0.00
    2    4    3    -41.77      0.00
    4    4    3    -20.28      0.00
    6    4    3    -19.58      0.00
    8    4    3    -16.23      0.00
   10    4    3    -20.67      0.00
   12    4    3    -14.80      0.00
   14    4    3    -13.11      0.00
   16    4    3     -7.37      0.00
   18    4    3     -1.88      0.00
   20    4    3     -3.98      0.00
   22    4    3     -1.73      0.00
   24    4    3     -3.82      0.00
   26    4    3     -8.65      0.00
   28    4    3     -3.84      0.00
  -27    5    3      7.23      0.00
  -25    5    3      0.21      0.00
  -23    5    3     -0.19      0.00
  -21    5    3      2.42      0.00
  -19    5    3      7.62      0.00
  -17    5    3      9.91      0.00
  -15    5    3      5.71      0.00
  -13    5    3     20.70      0.00
  -11    5    3      6.55      0.00
   -9    5    3     16.48      0.00
   -7    5    3     10.15      0.00
   -5    5    3     13.22      0.00
   -3    5    3     14.54      0.00
   -1    5    3      4.52      0.00
    1    5    3     11.79      0.00
    3    5    3     18.45      0.00
    5    5    3      7.96      0.00
    7    5    3      5.90      0.00
    9    5    3     12.24      0.00
   11    5    3     13.10      0.00
   13    5    3     11.08      0.00
   15    5    3     10.90      0.00
   17    5    3      5.49      0.00
   19    5    3      6.26      0.00
   21    5    3      5.10      0.00
   23    5    3      4.55      0.00
   25    5    3      4.56      0.00
   27    5    3      2.19      0.00
  -26    6    3     -6.21      0.00
  -24    6    3      2.57      0.00
  -22    6    3     -1.62      0.00
  -20    6    3     -2.22      0.00
  -18    6    3     -4.63      0.00
  -16    6    3      1.02      0.00
  -14    6    3     -6.81      0.00
  -12    6    3      1.70      0.00
  -10    6    3     -3.75      0.00
   -8    6    3      4.66      0.00
   -6    6    3      1.45      0.00
   -4    6    3      4.67      0.00
   -2    6    3      6.18      0.00
    0    6    3     -8.03      0.00
    2    6    3      7.67      0.00
    4    6    3      2.43      0.00
    6    6    3      5.67      0.00
    8    6    3      0.81      0.00
   10    6    3     -0.01      0.00
   12    6    3     -2.49      0.00
   14    6    3     -2.82      0.00
   16    6    3     -3.11      0.00
   18    6    3     -4.01      0.00
   20    6    3      1.50      0.00
   22    6    3     -2.94      0.00
   24    6    3     -1.89      0.00
  -25    7    3      6.56      0.00
  -23    7    3     -1.31      0.00
  -21    7    3      3.80      0.00
  -19    7    3      2.24      0.00
  -17    7    3     -4.98      0.00
  -15    7    3      2.18      0.00
  -13    7    3     -3.22      0.00
  -11    7    3     -4.52      0.00
   -9    7    3     -4.92      0.00
   -7    7    3     -7.79      0.00
   -5    7    3     -5.92      0.00
   -3    7    3    -19.96      0.00
   -1    7    3     -2.02      0.00
    1    7    3     -7.33      0.00
    3    7    3    -14.56      0.00
    5    7    3    -11.85      0.00
    7    7    3     -9.63      0.00
    9    7    3     -5.22      0.00
   11    7    3     -4.07      0.00
   13    7    3     -2.69      0.00
   15    7    3      1.07      0.00
   17    7    3      0.21      0.00
   19    7    3     -2.01      0.00
   21    7    3     -2.43      0.00
   23    7    3      1.14      0.00
  -22    8    3     -3.19      0.00
  -20    8    3     -2.26      0.00
  -18    8    3      3.08      0.00
  -16    8    3     -0.12      0.00
  -14    8    3      0.48      0.00
  -12    8    3      1.06      0.00
  -10    8    3      0.89      0.00
   -8    8    3      0.73      0.00
   -6    8    3      3.41      0.00
   -4    8    3      7.62      0.00
   -2    8    3      8.24      0.00
    0    8    3      6.98      0.00
    2    8    3     15.37      0.00
    4    8    3      7.05      0.00
    6    8    3     15.65      0.00
    8    8    3      2.98      0.00
   10    8    3     -1.19      0.00
   12    8    3      5.92      0.00
   14    8    3     -4.67      0.00
   16    8    3     -0.23      0.00
   18    8    3      1.43      0.00
   20    8    3     -1.97      0.00
   22    8    3     -1.81      0.00
  -19    9    3     -1.86      0.00
  -17    9    3      1.11      0.00
  -15    9    3     -2.00      0.00
  -13    9    3      1.63      0.00
  -11    9    3      0.87      0.00
   -9    9    3      7.03      0.00
   -7    9    3     -1.64      0.00
   -5    9    3      0.84      0.00
   -3    9    3      1.62      0.00
   -1    9    3     -0.60      0.00
    1    9    3     -3.32      0.00
    3    9    3     -4.89      0.00
    5    9    3     -1.07      0.00
    7    9    3     -4.34      0.00
    9    9    3      6.67      0.00
   11    9    3      0.93      0.00
   13    9    3     -0.81      0.00
   15    9    3      3.01      0.00
   17    9    3     -0.37      0.00
   19    9    3      1.45      0.00
  -16   10    3      6.83      0.00
  -14   10    3     -7.53      0.00
  -12   10    3      0.75      0.00
  -10   10    3     -1.07      0.00
   -8   10    3     -3.32      0.00
   -6   10    3      1.56      0.00
   -4   10    3     -5.32      0.00
   -2   10    3     -4.30      0.00
    0   10    3     -6.39      0.00
    2   10    3      1.89      0.00
    4   10    3     -2.68      0.00
    6   10    3      1.42      0.00
    8   10    3     -4.69      0.00
   10   10    3     -5.97      0.00
   12   10    3      1.06      0.00
   14   10    3      3.74      0.00
   16   10    3     -4.07      0.00
  -13   11    3     13.61      0.00
  -11   11    3     -6.59      0.00
   -9   11    3      0.07      0.00
   -7   11    3      2.53      0.00
   -5   11    3      2.68      0.00
   -3   11    3      0.25      0.00
   -1   11    3      7.49      0.00
    1   11    3     -9.36      0.00
    3   11    3      1.74      0.00
    5   11    3     -1.16      0.00
    7   11    3     -2.07      0.00
    9   11    3     14.45      0.00
   11   11    3     -0.21      0.00
   -2   12    3      4.47      0.00
    0   12    3      1.58      0.00
  -30    0    4     -2.35      0.00
  -28    0    4     -1.05      0.00
  -26    0    4     -9.66      0.00
  -24    0    4     -4.33      0.00
  -22    0    4      1.66      0.00
  -20    0    4     -1.12      0.00
  -18    0    4      2.92      0.00
  -16    0    4     -1.98      0.00
  -14    0    4     -4.00      0.00
  -12    0    4    -15.83      0.00
  -10    0    4     -9.08      0.00
   -8    0    4    -54.36      0.00
   -6    0    4    -23.27      0.00
   -4    0    4    -32.43      0.00
   -2    0    4   -115.79      0.00
    0    0    4     61.75      0.00
    2    0    4    -53.02      0.00
    4    0    4    -53.67      0.00
    6    0    4    -21.98      0.00
    8    0    4    -19.47      0.00
   10    0    4    -23.67      0.00
   12    0    4     -2.04      0.00
   14    0    4     -2.46      0.00
   16    0    4      0.77      0.00
   18    0    4     -0.67      0.00
   20    0    4      3.18      0.00
   22    0    4      1.61      0.00
   24    0    4     -1.32      0.00
   26    0    4      4.54      0.00
   28    0    4     -6.19      0.00
  -31    1    4     -1.41      0.00
  -29    1    4      1.48      0.00
  -27    1    4      3.68      0.00
  -25    1    4      7.82      0.00
  -23    1    4     -0.96      0.00
  -21    1    4      1.27      0.00
  -19    1    4     -4.45      0.00
  -17    1    4      1.00      0.00
  -15    1    4     -0.41      0.00
  -13    1    4      5.52      0.00
  -11    1    4     -1.85      0.00
   -9    1    4     12.65      0.00
   -7    1    4     31.21      0.00
   -5    1    4    -39.60      0.00
   -3    1    4     78.31      0.00
   -1    1    4     -7.94      0.00
    1    1    4      1.84      0.00
    3    1    4     43.22      0.00
    5    1    4     36.24      0.00
    7    1    4     18.86      0.00
    9    1    4     19.08      0.00
   11    1    4     15.09      0.00
   13    1    4      2.22      0.00
   15    1    4      0.08      0.00
   17    1    4      1.28      0.00
   19    1    4     -1.02      0.00
   21    1    4     -1.75      0.00
   23    1    4      1.06      0.00
   25    1    4     -2.55      0.00
   27    1    4     -1.53      0.00
   29    1    4      5.74      0.00
  -30    2    4      1.96      0.00
  -28    2    4     -1.66      0.00
  -26    2    4     -2.35      0.00
  -24    2    4      3.03      0.00
  -22    2    4     -0.72      0.00
  -20    2    4      7.74      0.00
  -18    2    4      2.05      0.00
  -16    2    4      5.34      0.00
  -14    2    4      5.28      0.00
  -12    2    4     21.41      0.00
  -10    2    4     17.70      0.00
   -8    2    4      7.78      0.00
   -6    2    4     63.69      0.00
   -4    2    4     35.98      0.00
   -2    2    4     12.29      0.00
    0    2    4     10.95      0.00
    2    2    4      1.98      0.00
    4    2    4     -1.04      0.00
    6    2    4    -22.25      0.00
    8    2    4     -4.49      0.00
   10    2    4     -8.23      0.00
   12    2    4     -6.53      0.00
   14    2    4     -0.10      0.00
   16    2    4     -0.28      0.00
   18    2    4     -0.21      0.00
   20    2    4      0.96      0.00
   22    2    4      0.25      0.00
   24    2    4      0.73      0.00
   26    2    4      4.26      0.00
   28    2    4     -2.22      0.00
  -29    3    4     -2.82      0.00
  -27    3    4     -0.29      0.00
  -25    3    4     -1.64      0.00
  -23    3    4     -2.86      0.00
  -21    3    4     -4.83      0.00
  -19    3    4     -5.72      0.00
  -17    3    4     -2.73      0.00
  -15    3    4    -11.95      0.00
  -13    3    4    -25.48      0.00
  -11    3    4    -25.74      0.00
   -9    3    4    -17.86      0.00
   -7    3    4    -54.29      0.00
   -5    3    4    -49.29      0.00
   -3    3    4    -53.29      0.00
   -1    3    4     -4.09      0.00
    1    3    4    -28.82      0.00
    3    3    4    -22.89      0.00
    5    3    4    -11.80      0.00
    7    3    4     -2.81      0.00
    9    3    4     -8.39      0.00
   11    3    4     -7.65      0.00
   13    3    4     -0.32      0.00
   15    3    4     -1.97      0.00
   17    3    4     -5.27      0.00
   19    3    4     -0.54      0.00
   21    3    4     -4.93      0.00
   23    3    4     -2.59      0.00
   25    3    4     -0.12      0.00
   27    3    4      0.94      0.00
  -28    4    4      7.90      0.00
  -26    4    4     -2.99      0.00
  -24    4    4     -3.93      0.00
  -22    4    4      4.96      0.00
  -20    4    4      3.60      0.00
  -18    4    4     -2.98      0.00
  -16    4    4      4.01      0.00
  -14    4    4     15.87      0.00
  -12    4    4     18.06      0.00
  -10    4    4      4.11      0.00
   -8    4    4     24.95      0.00
   -6    4    4     16.14      0.00
   -4    4    4     21.90      0.00
   -2    4    4      9.77      0.00
    0    4    4     -8.32      0.00
    2    4    4     17.33      0.00
    4    4    4      0.37      0.00
    6    4    4     17.70      0.00
    8    4    4      4.67      0.00
   10    4    4     20.87      0.00
   12    4    4      2.62      0.00
   14    4    4      5.52      0.00
   16    4    4      8.45      0.00
   18    4    4      4.86      0.00
   20    4    4      2.14      0.00
   22    4    4      8.93      0.00
   24    4    4      1.25      0.00
   26    4    4     -4.00      0.00
   28    4    4      0.69      0.00
  -27    5    4     -3.92      0.00
  -25    5    4      5.82      0.00
  -23    5    4     -1.18      0.00
  -21    5    4     -2.26      0.00
  -19    5    4      5.25      0.00
  -17    5    4      3.84      0.00
  -15    5    4     -0.92      0.00
  -13    5    4     -8.15      0.00
  -11    5    4      7.25      0.00
   -9    5    4     -4.01      0.00
   -7    5    4      4.14      0.00
   -5    5    4     13.77      0.00
   -3    5    4      3.04      0.00
   -1    5    4     23.03      0.00
    1    5    4     16.44      0.00
    3    5    4     15.68      0.00
    5    5    4      2.09      0.00
    7    5    4      0.92      0.00
    9    5    4     -2.52      0.00
   11    5    4     -6.30      0.00
   13    5    4      5.40      0.00
   15    5    4     -7.98      0.00
   17    5    4     -3.15      0.00
   19    5    4      2.75      0.00
   21    5    4      1.62      0.00
   23    5    4     -6.71      0.00
   25    5    4      4.39      0.00
   27    5    4     -4.67      0.00
  -26    6    4     -0.04      0.00
  -24    6    4      4.90      0.00
  -22    6    4     -5.38      0.00
  -20    6    4     -5.72      0.00
  -18    6    4     -4.99      0.00
  -16    6    4     -1.00      0.00
  -14    6    4      5.27      0.00
  -12    6    4     -4.31      0.00
  -10    6    4     -6.34      0.00
   -8    6    4      5.21      0.00
   -6    6    4    -19.63      0.00
   -4    6    4     -6.39      0.00
   -2    6    4    -13.08      0.00
    0    6    4    -21.53      0.00
    2    6    4    -17.18      0.00
    4    6    4     -7.51      0.00
    6    6    4    -11.57      0.00
    8    6    4    -12.69      0.00
   10    6    4     -3.19      0.00
   12    6    4    -10.13      0.00
   14    6    4     -5.54      0.00
   16    6    4      1.17      0.00
   18    6    4     -4.98      0.00
   20    6    4     -9.63      0.00
   22    6    4      0.15      0.00
   24    6    4     -5.64      0.00
  -25    7    4      1.27      0.00
  -23    7    4     -2.20      0.00
  -21    7    4      5.87      0.00
  -19    7    4      1.44      0.00
  -17    7    4      1.95      0.00
  -15    7    4    -13.55      0.00
  -13    7    4     -4.41      0.00
  -11    7    4      2.74      0.00
   -9    7    4     -2.35      0.00
   -7    7    4     -8.30      0.00
   -5    7    4     11.21      0.00
   -3    7    4    -10.65      0.00
   -1    7    4      2.50      0.00
    1    7    4     12.44      0.00
    3    7    4     -6.01      0.00
    5    7    4     -1.11      0.00
    7    7    4     13.57      0.00
    9    7    4     -1.88      0.00
   11    7    4      9.88      0.00
   13    7    4      9.87      0.00
   15    7    4      1.27      0.00
   17    7    4      3.44      0.00
   19    7    4      4.51      0.00
   21    7    4     -3.58      0.00
   23    7    4      5.57      0.00
  -22    8    4      9.09      0.00
  -20    8    4      5.94      0.00
  -18    8    4     -5.39      0.00
  -16    8    4      3.96      0.00
  -14    8    4     15.95      0.00
  -12    8    4     -0.32      0.00
  -10    8    4     -2.75      0.00
   -8    8    4      9.39      0.00
   -6    8    4      0.26      0.00
   -4    8    4      3.95      0.00
   -2    8    4     17.53      0.00
    0    8    4     -0.56      0.00
    2    8    4      1.23      0.00
    4    8    4     16.55      0.00
    6    8    4     -1.81      0.00
    8    8    4      2.42      0.00
   10    8    4     -1.83      0.00
   12    8    4     -4.39      0.00
   14    8    4     -3.45      0.00
   16    8    4     -2.17      0.00
   18    8    4     -1.02      0.00
   20    8    4      3.29      0.00
  -19    9    4     -7.32      0.00
  -17    9    4     13.73      0.00
  -15    9    4     -9.81      0.00
  -13    9    4     -9.42      0.00
  -11    9    4      9.63      0.00
   -9    9    4     -5.46      0.00
   -7    9    4     -0.81      0.00
   -5    9    4      1.05      0.00
   -3    9    4    -13.93      0.00
   -1    9    4     -7.27      0.00
    1    9    4     -0.88      0.00
    3    9    4     -8.22      0.00
    5    9    4     -6.70      0.00
    7    9    4     -3.95      0.00
    9    9    4      6.15      0.00
   11    9    4    -12.43      0.00
   13    9    4      3.82      0.00
   15    9    4     -0.20      0.00
   17    9    4      4.00      0.00
   19    9    4     -0.20      0.00
  -16   10    4     -8.87      0.00
  -14   10    4     12.28      0.00
  -12   10    4     -6.90      0.00
  -10   10    4      1.42      0.00
   -8   10    4      1.95      0.00
   -6   10    4     -1.99      0.00
   -4   10    4      2.99      0.00
   -2   10    4     11.15      0.00
    0   10    4     -1.17      0.00
    2   10    4     -0.64      0.00
    4   10    4     10.53      0.00
    6   10    4      0.08      0.00
    8   10    4     -1.97      0.00
   10   10    4     15.03      0.00
   12   10    4      7.81      0.00
   14   10    4      0.43      0.00
   16   10    4     -4.32      0.00
  -11   11    4     -1.43      0.00
   -9   11    4     -3.08      0.00
   -7   11    4      1.25      0.00
   -5   11    4     -0.24      0.00
   -3   11    4     -3.85      0.00
   -1   11    4     -7.66      0.00
    1   11    4      5.64      0.00
    3   11    4     -7.17      0.00
    5   11    4     -4.67      0.00
    7   11    4      7.52      0.00
    9   11    4     -9.89      0.00
   11   11    4     -6.81      0.00
  -31    1    5     -8.71      0.00
  -29    1    5     -5.72      0.00
  -27    1    5     -4.02      0.00
  -25    1    5     -7.11      0.00
  -23    1    5    -10.84      0.00
  -21    1    5     -2.76      0.00
  -19    1    5      0.63      0.00
  -17    1    5      3.51      0.00
  -15    1    5      7.74      0.00
  -13    1    5     -2.17      0.00
  -11    1    5     -4.92      0.00
   -9    1    5      0.95      0.00
   -7    1    5      9.84      0.00
   -5    1    5     22.97      0.00
   -3    1    5    -17.43      0.00
   -1    1    5     17.14      0.00
    1    1    5     -4.62      0.00
    3    1    5     13.39      0.00
    5    1    5    -22.80      0.00
    7    1    5    -18.09      0.00
    9    1    5     -0.59      0.00
   11    1    5     -1.56      0.00
   13    1    5     -4.29      0.00
   15    1    5      0.17      0.00
   17    1    5     -5.58      0.00
   19    1    5     -6.07      0.00
   21    1    5     -5.80      0.00
   23    1    5     -9.44      0.00
   25    1    5     -0.81      0.00
   27    1    5     -0.28      0.00
   29    1    5      2.93      0.00
  -30    2    5      6.21      0.00
  -28    2    5      4.70      0.00
  -26    2    5      2.24      0.00
  -24    2    5     10.06      0.00
  -22    2    5      4.46      0.00
  -20    2    5      4.58      0.00
  -18    2    5     -0.22      0.00
  -16    2    5     -9.87      0.00
  -14    2    5     -3.36      0.00
  -12    2    5      1.83      0.00
  -10    2    5     14.30      0.00
   -8    2    5     -2.13      0.00
   -6    2    5     -0.29      0.00
   -4    2    5     -1.38      0.00
   -2    2    5     13.64      0.00
    0    2    5    -27.43      0.00
    2    2    5     -9.61      0.00
    4    2    5     -7.19      0.00
    6    2    5     23.00      0.00
    8    2    5      2.95      0.00
   10    2    5     -2.34      0.00
   12    2    5     -6.35      0.00
   14    2    5      0.85      0.00
   16    2    5      0.01      0.00
   18    2    5      3.36      0.00
   20    2    5      1.32      0.00
   22    2    5      3.98      0.00
   24    2    5      3.04      0.00
   26    2    5     -0.49      0.00
   28    2    5     -0.41      0.00
  -29    3    5     -1.49      0.00
  -27    3    5     -1.38      0.00
  -25    3    5     -0.43      0.00
  -23    3    5     -1.71      0.00
  -21    3    5      1.49      0.00
  -19    3    5     -3.23      0.00
  -17    3    5      5.55      0.00
  -15    3    5      7.21      0.00
  -13    3    5     -1.06      0.00
  -11    3    5    -10.30      0.00
   -9    3    5     -7.10      0.00
   -7    3    5    -19.10      0.00
   -5    3    5     -5.82      0.00
   -3    3    5    -25.89      0.00
   -1    3    5     17.99      0.00
    1    3    5      1.94      0.00
    3    3    5     13.10      0.00
    5    3    5      0.29      0.00
    7    3    5      3.02      0.00
    9    3    5      4.02      0.00
   11    3    5      8.36      0.00
   13    3    5      6.25      0.00
   15    3    5     -0.16      0.00
   17    3    5      3.46      0.00
   19    3    5      2.97      0.00
   21    3    5      3.83      0.00
   23    3    5      1.55      0.00
   25    3    5     -1.90      0.00
   27    3    5      0.98      0.00
  -28    4    5      1.37      0.00
  -26    4    5     -5.28      0.00
  -24    4    5     -4.56      0.00
  -22    4    5     -7.33      0.00
  -20    4    5     -4.55      0.00
  -18    4    5     -0.35      0.00
  -16    4    5     -3.56      0.00
  -14    4    5      0.09      0.00
  -12    4    5     10.35      0.00
  -10    4    5     -4.26      0.00
   -8    4    5     13.48      0.00
   -6    4    5      3.41      0.00
   -4    4    5     23.07      0.00
   -2    4    5      3.12      0.00
    0    4    5      2.58      0.00
    2    4    5     17.51      0.00
    4    4    5     -9.00      0.00
    6    4    5     -0.48      0.00
    8    4    5     -8.55      0.00
   10    4    5      0.65      0.00
   12    4    5     -4.77      0.00
   14    4    5      1.71      0.00
   16    4    5     -1.14      0.00
   18    4    5     -4.67      0.00
   20    4    5     -3.00      0.00
   22    4    5     -4.49      0.00
   24    4    5     -0.64      0.00
   26    4    5     -0.83      0.00
  -27    5    5      1.22      0.00
  -25    5    5      8.32      0.00
  -23    5    5      6.43      0.00
  -21    5    5      5.00      0.00
  -19    5    5      2.20      0.00
  -17    5    5     -3.47      0.00
  -15    5    5      1.33      0.00
  -13    5    5     -7.27      0.00
  -11    5    5      2.44      0.00
   -9    5    5     -0.62      0.00
   -7    5    5      1.47      0.00
   -5    5    5     -7.84      0.00
   -3    5    5     -7.17      0.00
   -1    5    5     -8.98      0.00
    1    5    5    -17.31      0.00
    3    5    5     -8.31      0.00
    5    5    5     -0.08      0.00
    7    5    5      0.32      0.00
    9    5    5     -1.93      0.00
   11    5    5     -0.79      0.00
   13    5    5     -1.26      0.00
   15    5    5     -6.39      0.00
   17    5    5      2.72      0.00
   19    5    5     -0.61      0.00
   21    5    5      0.77      0.00
   23    5    5      0.57      0.00
   25    5    5      2.77      0.00
  -26    6    5      0.26      0.00
  -24    6    5     -3.48      0.00
  -22    6    5     -1.62      0.00
  -20    6    5     -2.37      0.00
  -18    6    5      2.22      0.00
  -16    6    5     -3.26      0.00
  -14    6    5      2.04      0.00
  -12    6    5     -4.82      0.00
  -10    6    5      1.69      0.00
   -8    6    5     -4.15      0.00
   -6    6    5      3.11      0.00
   -4    6    5     -5.00      0.00
   -2    6    5     -0.58      0.00
    0    6    5      9.37      0.00
    2    6    5      2.39      0.00
    4    6    5      0.16      0.00
    6    6    5     -3.55      0.00
    8    6    5      4.11      0.00
   10    6    5     -2.90      0.00
   12    6    5      3.00      0.00
   14    6    5      4.71      0.00
   16    6    5      2.21      0.00
   18    6    5      1.26      0.00
   20    6    5      0.95      0.00
   22    6    5      2.06      0.00
   24    6    5      1.38      0.00
  -25    7    5     -2.27      0.00
  -23    7    5      0.16      0.00
  -21    7    5      3.89      0.00
  -19    7    5     -3.11      0.00
  -17    7    5      4.25      0.00
  -15    7    5     -0.39      0.00
  -13    7    5      3.55      0.00
  -11    7    5      2.02      0.00
   -9    7    5      2.95      0.00
   -7    7    5     -1.17      0.00
   -5    7    5      1.12      0.00
   -3    7    5      9.00      0.00
   -1    7    5      0.19      0.00
    1    7    5      0.82      0.00
    3    7    5     -0.84      0.00
    5    7    5      4.80      0.00
    7    7    5     -1.44      0.00
    9    7    5      0.20      0.00
   11    7    5      2.63      0.00
   13    7    5     -1.53      0.00
   15    7    5     -0.10      0.00
   17    7    5      0.10      0.00
   19    7    5     -1.61      0.00
   21    7    5     -0.23      0.00
   23    7    5     -2.54      0.00
  -22    8    5      3.21      0.00
  -20    8    5      4.61      0.00
  -18    8    5     -0.56      0.00
  -16    8    5      1.49      0.00
  -14    8    5     -3.33      0.00
  -12    8    5     -0.30      0.00
  -10    8    5      0.08      0.00
   -8    8    5     -3.93      0.00
   -6    8    5      2.52      0.00
   -4    8    5      1.10      0.00
   -2    8    5      2.05      0.00
    0    8    5      0.64      0.00
    2    8    5      3.55      0.00
    4    8    5      7.30      0.00
    6    8    5      1.19      0.00
    8    8    5      2.35      0.00
   10    8    5      0.30      0.00
   12    8    5     -8.03      0.00
   14    8    5     -1.57      0.00
   16    8    5     -5.87      0.00
   18    8    5     -1.17      0.00
   20    8    5      1.62      0.00
  -19    9    5      2.01      0.00
  -17    9    5      3.82      0.00
  -15    9    5      7.81      0.00
  -13    9    5      3.51      0.00
  -11    9    5     -4.75      0.00
   -9    9    5     -1.72      0.00
   -7    9    5      5.70      0.00
   -5    9    5     -2.10      0.00
   -3    9    5     -3.46      0.00
   -1    9    5     -0.90      0.00
    1    9    5     -1.57      0.00
    3    9    5     -5.84      0.00
    5    9    5     -1.94      0.00
    7    9    5     -1.12      0.00
    9    9    5      0.54      0.00
   11    9    5      0.11      0.00
   13    9    5      3.70      0.00
   15    9    5      3.47      0.00
   17    9    5      6.29      0.00
  -16   10    5    -19.83      0.00
  -14   10    5     -2.24      0.00
  -12   10    5      2.55      0.00
  -10   10    5      2.05      0.00
   -8   10    5      1.63      0.00
   -6   10    5     -4.80      0.00
   -4   10    5     -0.15      0.00
   -2   10    5     -4.42      0.00
    0   10    5      0.73      0.00
    2   10    5     -1.28      0.00
    4   10    5      3.30      0.00
    6   10    5     -1.75      0.00
    8   10    5      2.58      0.00
   10   10    5      8.23      0.00
   12   10    5      5.34      0.00
   14   10    5      1.26      0.00
  -11   11    5      4.60      0.00
   -9   11    5      2.36      0.00
   -7   11    5      0.37      0.00
   -5   11    5      2.82      0.00
   -3   11    5     12.35      0.00
   -1   11    5     -3.54      0.00
    1   11    5      7.79      0.00
    3   11    5     -3.20      0.00
    5   11    5     -6.59      0.00
    7   11    5      3.91      0.00
    9   11    5    -18.34      0.00
  -30    0    6     -1.01      0.00
  -28    0    6     -6.66      0.00
  -26    0    6     -2.54      0.00
  -24    0    6      0.40      0.00
  -22    0    6     -8.97      0.00
  -20    0    6     -7.05      0.00
  -18    0    6      0.03      0.00
  -16    0    6      0.06      0.00
  -14    0    6     -0.59      0.00
  -12    0    6      5.30      0.00
  -10    0    6      1.16      0.00
   -8    0    6     32.93      0.00
   -6    0    6     11.07      0.00
   -4    0    6     15.55      0.00
   -2    0    6    -16.35      0.00
    0    0    6     11.36      0.00
    2    0    6    -10.64      0.00
    4    0    6      5.98      0.00
    6    0    6      9.57      0.00
    8    0    6     -1.70      0.00
   10    0    6     16.74      0.00
   12    0    6     -4.46      0.00
   14    0    6      1.98      0.00
   16    0    6     -2.86      0.00
   18    0    6      3.12      0.00
   20    0    6     -2.42      0.00
   22    0    6     -2.10      0.00
   24    0    6     -2.91      0.00
   26    0    6    -10.98      0.00
   28    0    6      1.95      0.00
  -31    1    6      2.76      0.00
  -29    1    6      2.39      0.00
  -27    1    6      3.90      0.00
  -25    1    6     -0.43      0.00
  -23    1    6      2.91      0.00
  -21    1    6      5.01      0.00
  -19    1    6      4.72      0.00
  -17    1    6     -3.54      0.00
  -15    1    6      1.28      0.00
  -13    1    6     -7.66      0.00
  -11    1    6      5.05      0.00
   -9    1    6     -7.87      0.00
   -7    1    6    -12.66      0.00
   -5    1    6     17.25      0.00
   -3    1    6      7.28      0.00
   -1    1    6     32.10      0.00
    1    1    6     -1.83      0.00
    3    1    6     25.55      0.00
    5    1    6     -6.52      0.00
    7    1    6      5.47      0.00
    9    1    6     -4.79      0.00
   11    1    6     -5.82      0.00
   13    1    6     -0.26      0.00
   15    1    6      1.90      0.00
   17    1    6      0.05      0.00
   19    1    6     -1.49      0.00
   21    1    6     -0.01      0.00
   23    1    6     -1.76      0.00
   25    1    6      6.40      0.00
   27    1    6      3.86      0.00
   29    1    6     -1.47      0.00
  -30    2    6     -3.80      0.00
  -28    2    6     -0.58      0.00
  -26    2    6      3.37      0.00
  -24    2    6     -2.47      0.00
  -22    2    6      5.91      0.00
  -20    2    6     -0.57      0.00
  -18    2    6      7.85      0.00
  -16    2    6      4.16      0.00
  -14    2    6      9.86      0.00
  -12    2    6     -2.80      0.00
  -10    2    6     -8.26      0.00
   -8    2    6     -4.16      0.00
   -6    2    6    -30.15      0.00
   -4    2    6    -41.91      0.00
   -2    2    6    -31.75      0.00
    0    2    6    -38.64      0.00
    2    2    6    -15.73      0.00
    4    2    6    -25.69      0.00
    6    2    6     -0.11      0.00
    8    2    6     -7.69      0.00
   10    2    6      0.76      0.00
   12    2    6      5.22      0.00
   14    2    6      2.18      0.00
   16    2    6      1.27      0.00
   18    2    6      2.20      0.00
   20    2    6      4.80      0.00
   22    2    6      2.71      0.00
   24    2    6      0.63      0.00
   26    2    6     -4.04      0.00
   28    2    6      3.88      0.00
  -29    3    6      7.57      0.00
  -27    3    6     -4.67      0.00
  -25    3    6     -3.02      0.00
  -23    3    6     -3.95      0.00
  -21    3    6     -6.56      0.00
  -19    3    6     -9.78      0.00
  -17    3    6    -10.02      0.00
  -15    3    6     -8.79      0.00
  -13    3    6      0.55      0.00
  -11    3    6      1.68      0.00
   -9    3    6      4.00      0.00
   -7    3    6     16.01      0.00
   -5    3    6     33.34      0.00
   -3    3    6     36.88      0.00
   -1    3    6     21.09      0.00
    1    3    6     33.74      0.00
    3    3    6      7.01      0.00
    5    3    6     13.21      0.00
    7    3    6     -0.05      0.00
    9    3    6      5.60      0.00
   11    3    6     -0.73      0.00
   13    3    6     -6.91      0.00
   15    3    6     -8.07      0.00
   17    3    6     -4.66      0.00
   19    3    6     -6.68      0.00
   21    3    6     -3.53      0.00
   23    3    6      0.54      0.00
   25    3    6     -0.49      0.00
   27    3    6     -1.79      0.00
  -28    4    6     -7.90      0.00
  -26    4    6      2.52      0.00
  -24    4    6      6.97      0.00
  -22    4    6      2.25      0.00
  -20    4    6      2.61      0.00
  -18    4    6      8.61      0.00
  -16    4    6      4.76      0.00
  -14    4    6     -0.72      0.00
  -12    4    6      0.15      0.00
  -10    4    6      7.85      0.00
   -8    4    6     -2.85      0.00
   -6    4    6     -2.43      0.00
   -4    4    6    -18.24      0.00
   -2    4    6    -11.11      0.00
    0    4    6    -12.33      0.00
    2    4    6    -10.64      0.00
    4    4    6      2.78      0.00
    6    4    6     -9.69      0.00
    8    4    6      7.08      0.00
   10    4    6     -6.50      0.00
   12    4    6      7.40      0.00
   14    4    6      7.61      0.00
   16    4    6      4.74      0.00
   18    4    6      3.72      0.00
   20    4    6      6.28      0.00
   22    4    6      0.26      0.00
   24    4    6      3.55      0.00
   26    4    6      4.11      0.00
  -27    5    6      8.31      0.00
  -25    5    6     -1.00      0.00
  -23    5    6     -7.49      0.00
  -21    5    6      1.78      0.00
  -19    5    6     -3.22      0.00
  -17    5    6     -5.12      0.00
  -15    5    6     -0.82      0.00
  -13    5    6      5.14      0.00
  -11    5    6     -9.22      0.00
   -9    5    6      1.57      0.00
   -7    5    6     -6.01      0.00
   -5    5    6     -5.65      0.00
   -3    5    6      2.69      0.00
   -1    5    6     -7.50      0.00
    1    5    6     -1.40      0.00
    3    5    6     -8.81      0.00
    5    5    6      3.78      0.00
    7    5    6     -3.01      0.00
    9    5    6     -0.77      0.00
   11    5    6      5.05      0.00
   13    5    6     -5.20      0.00
   15    5    6      1.22      0.00
   17    5    6      2.67      0.00
   19    5    6     -1.42      0.00
   21    5    6     -4.39      0.00
   23    5    6      1.25      0.00
   25    5    6     -7.35      0.00
  -26    6    6     -3.23      0.00
  -24    6    6      1.88      0.00
  -22    6    6      9.92      0.00
  -20    6    6      0.47      0.00
  -18    6    6      4.28      0.00
  -16    6    6      6.05      0.00
  -14    6    6     -9.86      0.00
  -12    6    6      1.99      0.00
  -10    6    6      2.76      0.00
   -8    6    6     -6.59      0.00
   -6    6    6      6.39      0.00
   -4    6    6     -1.56      0.00
   -2    6    6      6.07      0.00
    0    6    6      9.74      0.00
    2    6    6      7.12      0.00
    4    6    6     -0.86      0.00
    6    6    6     -0.08      0.00
    8    6    6      3.24      0.00
   10    6    6    -10.64      0.00
   12    6    6      0.32      0.00
   14    6    6     -2.27      0.00
   16    6    6     -3.94      0.00
   18    6    6     -4.41      0.00
   20    6    6      1.87      0.00
   22    6    6     -3.56      0.00
   24    6    6     -0.05      0.00
  -25    7    6     -5.90      0.00
  -23    7    6     -5.27      0.00
  -21    7    6     -5.25      0.00
  -19    7    6      4.84      0.00
  -17    7    6    -11.76      0.00
  -15    7    6     11.53      0.00
  -13    7    6      5.82      0.00
  -11    7    6     -4.32      0.00
   -9    7    6      2.30      0.00
   -7    7    6      4.38      0.00
   -5    7    6      6.38      0.00
   -3    7    6      5.72      0.00
   -1    7    6      7.52      0.00
    1    7    6     -7.18      0.00
    3    7    6      8.46      0.00
    5    7    6      6.58      0.00
    7    7    6    -11.67      0.00
    9    7    6      4.71      0.00
   11    7    6     -4.38      0.00
   13    7    6     -8.34      0.00
   15    7    6      0.82      0.00
   17    7    6     -0.68      0.00
   19    7    6      0.11      0.00
   21    7    6      4.32      0.00
   23    7    6     -1.07      0.00
  -22    8    6     -0.95      0.00
  -20    8    6    -15.34      0.00
  -18    8    6     10.56      0.00
  -16    8    6     -0.19      0.00
  -14    8    6    -11.20      0.00
  -12    8    6      1.11      0.00
  -10    8    6      1.93      0.00
   -8    8    6     -0.32      0.00
   -6    8    6      3.33      0.00
   -4    8    6     -6.86      0.00
   -2    8    6    -11.46      0.00
    0    8    6     -5.48      0.00
    2    8    6      5.20      0.00
    4    8    6    -17.15      0.00
    6    8    6      8.58      0.00
    8    8    6      5.60      0.00
   10    8    6      7.01      0.00
   12    8    6      9.35      0.00
   14    8    6      6.48      0.00
   16    8    6      4.25      0.00
   18    8    6      1.92      0.00
   20    8    6     -0.04      0.00
  -19    9    6      8.01      0.00
  -17    9    6    -12.00      0.00
  -15    9    6      2.99      0.00
  -13    9    6      2.20      0.00
  -11    9    6     -7.34      0.00
   -9    9    6      0.46      0.00
   -7    9    6     -7.92      0.00
   -5    9    6    -15.13      0.00
   -3    9    6      7.69      0.00
   -1    9    6      2.43      0.00
    1    9    6     -9.52      0.00
    3    9    6      4.20      0.00
    5    9    6     -0.84      0.00
    7    9    6     -1.18      0.00
    9    9    6    -12.63      0.00
   11    9    6      4.28      0.00
   13    9    6     -3.79      0.00
   15    9    6     -3.43      0.00
   17    9    6      1.51      0.00
  -16   10    6      6.43      0.00
  -14   10    6     -2.77      0.00
  -12   10    6      9.58      0.00
  -10   10    6      5.73      0.00
   -8   10    6     -5.17      0.00
   -6   10    6     14.24      0.00
   -4   10    6      9.47      0.00
   -2   10    6    -11.72      0.00
    0   10    6      7.10      0.00
    2   10    6      3.53      0.00
    4   10    6     -2.06      0.00
    6   10    6      1.20      0.00
    8   10    6     11.26      0.00
   10   10    6     -2.14      0.00
   12   10    6     -0.96      0.00
   14   10    6      2.24      0.00
  -11   11    6     -4.34      0.00
   -9   11    6      6.20      0.00
   -7   11    6      3.29      0.00
   -5   11    6    -12.03      0.00
   -3   11    6      3.22      0.00
   -1   11    6      8.02      0.00
    1   11    6     -7.79      0.00
    3   11    6      1.26      0.00
    5   11    6      0.72      0.00
    7   11    6     -9.39      0.00
    9   11    6     -1.62      0.00
  -31    1    7     -2.85      0.00
  -29    1    7      1.10      0.00
  -27    1    7     -3.51      0.00
  -25    1    7     -6.87      0.00
  -23    1    7      2.22      0.00
  -21    1    7      1.26      0.00
  -19    1    7     -7.59      0.00
  -17    1    7     -5.27      0.00
  -15    1    7     -5.53      0.00
  -13    1    7     -3.57      0.00
  -11    1    7      2.26      0.00
   -9    1    7     -9.60      0.00
   -7    1    7     -8.88      0.00
   -5    1    7    -16.51      0.00
   -3    1    7      6.72      0.00
   -1    1    7    -36.84      0.00
    1    1    7     -5.60      0.00
    3    1    7    -20.63      0.00
    5    1    7     -2.84      0.00
    7    1    7     -2.29      0.00
    9    1    7     -9.50      0.00
   11    1    7     -1.39      0.00
   13    1    7      1.61      0.00
   15    1    7     -0.03      0.00
   17    1    7      0.46      0.00
   19    1    7      5.66      0.00
   21    1    7      1.58      0.00
   23    1    7      7.16      0.00
   25    1    7     -3.31      0.00
   27    1    7     -3.18      0.00
  -30    2    7     -0.73      0.00
  -28    2    7     -6.65      0.00
  -26    2    7      5.88      0.00
  -24    2    7     -1.11      0.00
  -22    2    7     -1.67      0.00
  -20    2    7      0.08      0.00
  -18    2    7      0.84      0.00
  -16    2    7      4.24      0.00
  -14    2    7      2.94      0.00
  -12    2    7      4.80      0.00
  -10    2    7     -4.74      0.00
   -8    2    7      7.68      0.00
   -6    2    7     13.61      0.00
   -4    2    7    -12.72      0.00
   -2    2    7     18.72      0.00
    0    2    7      3.99      0.00
    2    2    7      4.31      0.00
    4    2    7      3.58      0.00
    6    2    7    -11.48      0.00
    8    2    7      5.96      0.00
   10    2    7     -0.59      0.00
   12    2    7      1.97      0.00
   14    2    7     -5.64      0.00
   16    2    7     -1.15      0.00
   18    2    7     -7.83      0.00
   20    2    7     -3.60      0.00
   22    2    7     -4.35      0.00
   24    2    7     -3.33      0.00
   26    2    7      2.94      0.00
   28    2    7      0.84      0.00
  -29    3    7      4.28      0.00
  -27    3    7      1.81      0.00
  -25    3    7     -2.13      0.00
  -23    3    7      2.95      0.00
  -21    3    7     -0.39      0.00
  -19    3    7      4.77      0.00
  -17    3    7      3.19      0.00
  -15    3    7     -0.10      0.00
  -13    3    7     -0.85      0.00
  -11    3    7      3.57      0.00
   -9    3    7      6.87      0.00
   -7    3    7     -8.42      0.00
   -5    3    7     12.04      0.00
   -3    3    7      8.02      0.00
   -1    3    7    -10.21      0.00
    1    3    7     24.27      0.00
    3    3    7     -3.67      0.00
    5    3    7     21.17      0.00
    7    3    7      7.34      0.00
    9    3    7      5.61      0.00
   11    3    7      0.09      0.00
   13    3    7      1.01      0.00
   15    3    7      1.05      0.00
   17    3    7      0.19      0.00
   19    3    7      1.48      0.00
   21    3    7     -0.51      0.00
   23    3    7      2.08      0.00
   25    3    7      2.78      0.00
   27    3    7     -1.74      0.00
  -28    4    7     -0.82      0.00
  -26    4    7      4.88      0.00
  -24    4    7      0.43      0.00
  -22    4    7     -2.90      0.00
  -20    4    7     -0.22      0.00
  -18    4    7     -5.00      0.00
  -16    4    7     -1.81      0.00
  -14    4    7      1.32      0.00
  -12    4    7     -2.73      0.00
  -10    4    7      0.71      0.00
   -8    4    7      2.31      0.00
   -6    4    7      0.76      0.00
   -4    4    7    -20.43      0.00
   -2    4    7      6.44      0.00
    0    4    7    -12.29      0.00
    2    4    7    -12.45      0.00
    4    4    7     -3.79      0.00
    6    4    7    -14.24      0.00
    8    4    7     -4.02      0.00
   10    4    7     -1.34      0.00
   12    4    7      4.44      0.00
   14    4    7      1.98      0.00
   16    4    7      6.35      0.00
   18    4    7      5.54      0.00
   20    4    7      2.84      0.00
   22    4    7      0.52      0.00
   24    4    7     -4.58      0.00
   26    4    7      0.02      0.00
  -27    5    7     -4.37      0.00
  -25    5    7     -5.90      0.00
  -23    5    7     -1.53      0.00
  -21    5    7      1.91      0.00
  -19    5    7      0.86      0.00
  -17    5    7      2.30      0.00
  -15    5    7     -3.15      0.00
  -13    5    7     -4.46      0.00
  -11    5    7     -6.29      0.00
   -9    5    7    -10.00      0.00
   -7    5    7     -9.56      0.00
   -5    5    7      5.16      0.00
   -3    5    7      1.81      0.00
   -1    5    7      1.39      0.00
    1    5    7      8.03      0.00
    3    5    7      0.95      0.00
    5    5    7      0.18      0.00
    7    5    7      0.57      0.00
    9    5    7     -3.30      0.00
   11    5    7     -6.74      0.00
   13    5    7     -5.15      0.00
   15    5    7     -0.64      0.00
   17    5    7     -6.94      0.00
   19    5    7     -2.06      0.00
   21    5    7     -2.20      0.00
   23    5    7      1.72      0.00
   25    5    7     -1.02      0.00
  -26    6    7      4.13      0.00
  -24    6    7      3.39      0.00
  -22    6    7      1.97      0.00
  -20    6    7     -2.81      0.00
  -18    6    7     -3.41      0.00
  -16    6    7      0.93      0.00
  -14    6    7      2.32      0.00
  -12    6    7      5.00      0.00
  -10    6    7      4.10      0.00
   -8    6    7      8.75      0.00
   -6    6    7      2.28      0.00
   -4    6    7      4.23      0.00
   -2    6    7      0.65      0.00
    0    6    7     -0.66      0.00
    2    6    7     -1.23      0.00
    4    6    7      1.35      0.00
    6    6    7      3.09      0.00
    8    6    7     -4.30      0.00
   10    6    7      6.66      0.00
   12    6    7      2.37      0.00
   14    6    7     -1.41      0.00
   16    6    7      0.49      0.00
   18    6    7     -0.57      0.00
   20    6    7     -0.10      0.00
   22    6    7      0.61      0.00
   24    6    7      2.35      0.00
  -25    7    7     -3.49      0.00
  -23    7    7      3.08      0.00
  -21    7    7     -3.21      0.00
  -19    7    7      7.93      0.00
  -17    7    7      1.32      0.00
  -15    7    7      1.34      0.00
  -13    7    7     -0.85      0.00
  -11    7    7      2.53      0.00
   -9    7    7     -1.12      0.00
   -7    7    7      6.02      0.00
   -5    7    7     -1.26      0.00
   -3    7    7      0.10      0.00
   -1    7    7     -2.15      0.00
    1    7    7     -1.48      0.00
    3    7    7      3.93      0.00
    5    7    7     -3.62      0.00
    7    7    7      8.69      0.00
    9    7    7      3.91      0.00
   11    7    7     -2.55      0.00
   13    7    7      0.22      0.00
   15    7    7     -0.26      0.00
   17    7    7      0.75      0.00
   19    7    7      4.28      0.00
   21    7    7      0.73      0.00
  -22    8    7      0.31      0.00
  -20    8    7     -2.04      0.00
  -18    8    7      1.12      0.00
  -16    8    7     -0.68      0.00
  -14    8    7      2.59      0.00
  -12    8    7      3.21      0.00
  -10    8    7     -3.00      0.00
   -8    8    7      0.11      0.00
   -6    8    7     -5.34      0.00
   -4    8    7     -0.23      0.00
   -2    8    7     -1.94      0.00
    0    8    7      4.49      0.00
    2    8    7     -3.37      0.00
    4    8    7      0.80      0.00
    6    8    7      0.37      0.00
    8    8    7     -2.88      0.00
   10    8    7     -0.90      0.00
   12    8    7      4.48      0.00
   14    8    7     -0.75      0.00
   16    8    7      2.07      0.00
   18    8    7     -3.28      0.00
   20    8    7     -3.37      0.00
  -19    9    7     -2.44      0.00
  -17    9    7     -5.75      0.00
  -15    9    7     -3.33      0.00
  -13    9    7     -6.93      0.00
  -11    9    7      0.94      0.00
   -9    9    7      0.20      0.00
   -7    9    7     -6.85      0.00
   -5    9    7     -1.39      0.00
   -3    9    7     -3.35      0.00
   -1    9    7     -2.71      0.00
    1    9    7     -0.41      0.00
    3    9    7      5.20      0.00
    5    9    7     -2.85      0.00
    7    9    7     -0.84      0.00
    9    9    7     -1.60      0.00
   11    9    7      1.18      0.00
   13    9    7      2.05      0.00
   15    9    7      0.23      0.00
   17    9    7     -2.06      0.00
  -16   10    7     13.68      0.00
  -14   10    7      3.30      0.00
  -12   10    7     -2.80      0.00
  -10   10    7      1.42      0.00
   -8   10    7     -0.16      0.00
   -6   10    7      5.62      0.00
   -4   10    7      6.45      0.00
   -2   10    7      7.32      0.00
    0   10    7      1.26      0.00
    2   10    7     -0.76      0.00
    4   10    7     -3.88      0.00
    6   10    7      1.21      0.00
    8   10    7      4.39      0.00
   10   10    7     -3.98      0.00
   12   10    7     -2.22      0.00
   14   10    7     -0.71      0.00
  -11   11    7     -1.84      0.00
   -9   11    7      1.78      0.00
   -7   11    7      7.55      0.00
   -5   11    7      0.48      0.00
   -3   11    7     -7.03      0.00
   -1   11    7      4.22      0.00
    1   11    7     -2.31      0.00
    3   11    7     -0.26      0.00
    5   11    7     10.41      0.00
    7   11    7    -11.46      0.00
    9   11    7      4.45      0.00
  -28    0    8     -2.90      0.00
  -26    0    8     -5.25      0.00
  -24    0    8    -11.13      0.00
  -22    0    8     -4.74      0.00
  -20    0    8     -3.60      0.00
  -18    0    8     -7.02      0.00
  -16    0    8      1.65      0.00
  -14    0    8     -1.82      0.00
  -12    0    8     -5.91      0.00
  -10    0    8    -19.60      0.00
   -8    0    8    -35.16      0.00
   -6    0    8    -27.62      0.00
   -4    0    8    -68.80      0.00
   -2    0    8      8.23      0.00
    0    0    8    -57.78      0.00
    2    0    8     -0.69      0.00
    4    0    8     -9.74      0.00
    6    0    8    -10.85      0.00
    8    0    8      7.50      0.00
   10    0    8     -3.51      0.00
   12    0    8     13.95      0.00
   14    0    8      5.64      0.00
   16    0    8      9.77      0.00
   18    0    8      2.76      0.00
   20    0    8      5.21      0.00
   22    0    8      3.28      0.00
   24    0    8      1.50      0.00
   26    0    8      5.05      0.00
   28    0    8     -4.77      0.00
  -31    1    8      1.43      0.00
  -29    1    8      1.78      0.00
  -27    1    8      1.64      0.00
  -25    1    8      3.89      0.00
  -23    1    8      4.56      0.00
  -21    1    8      1.61      0.00
  -19    1    8      0.68      0.00
  -17    1    8      2.98      0.00
  -15    1    8     -0.90      0.00
  -13    1    8     10.12      0.00
  -11    1    8      6.80      0.00
   -9    1    8     28.23      0.00
   -7    1    8     24.18      0.00
   -5    1    8     45.41      0.00
   -3    1    8     28.93      0.00
   -1    1    8      6.80      0.00
    1    1    8     36.14      0.00
    3    1    8     -4.77      0.00
    5    1    8     20.27      0.00
    7    1    8     -1.73      0.00
    9    1    8      3.27      0.00
   11    1    8     -2.12      0.00
   13    1    8     -2.99      0.00
   15    1    8     -3.14      0.00
   17    1    8     -3.72      0.00
   19    1    8     -1.25      0.00
   21    1    8     -1.41      0.00
   23    1    8      1.38      0.00
   25    1    8     -6.53      0.00
   27    1    8     -0.76      0.00
  -30    2    8      1.55      0.00
  -28    2    8      1.31      0.00
  -26    2    8     -0.61      0.00
  -24    2    8      5.66      0.00
  -22    2    8      1.36      0.00
  -20    2    8      6.39      0.00
  -18    2    8      1.18      0.00
  -16    2    8      2.62      0.00
  -14    2    8     -8.46      0.00
  -12    2    8     -2.38      0.00
  -10    2    8     -7.22      0.00
   -8    2    8    -14.26      0.00
   -6    2    8    -21.77      0.00
   -4    2    8    -14.65      0.00
   -2    2    8    -12.52      0.00
    0    2    8      9.33      0.00
    2    2    8    -13.28      0.00
    4    2    8      1.57      0.00
    6    2    8     -6.08      0.00
    8    2    8      2.12      0.00
   10    2    8     -3.78      0.00
   12    2    8     -2.81      0.00
   14    2    8     -3.64      0.00
   16    2    8     -3.18      0.00
   18    2    8      0.87      0.00
   20    2    8     -3.91      0.00
   22    2    8     -3.04      0.00
   24    2    8      0.12      0.00
   26    2    8      6.95      0.00
  -29    3    8     -6.17      0.00
  -27    3    8      2.46      0.00
  -25    3    8     -2.61      0.00
  -23    3    8     -5.36      0.00
  -21    3    8     -7.23      0.00
  -19    3    8     -1.48      0.00
  -17    3    8     -4.61      0.00
  -15    3    8      3.05      0.00
  -13    3    8     -4.61      0.00
  -11    3    8     -2.76      0.00
   -9    3    8     -6.80      0.00
   -7    3    8      4.30      0.00
   -5    3    8     -7.71      0.00
   -3    3    8     -2.62      0.00
   -1    3    8     -8.55      0.00
    1    3    8    -22.69      0.00
    3    3    8      0.04      0.00
    5    3    8    -16.63      0.00
    7    3    8     -7.75      0.00
    9    3    8     -5.13      0.00
   11    3    8     -1.36      0.00
   13    3    8     -0.30      0.00
   15    3    8      3.22      0.00
   17    3    8      1.14      0.00
   19    3    8     -0.23      0.00
   21    3    8      0.80      0.00
   23    3    8     -0.12      0.00
   25    3    8     -0.54      0.00
   27    3    8     -3.86      0.00
  -28    4    8     -1.80      0.00
  -26    4    8      0.20      0.00
  -24    4    8     -3.67      0.00
  -22    4    8      0.81      0.00
  -20    4    8      3.83      0.00
  -18    4    8     -0.96      0.00
  -16    4    8      0.31      0.00
  -14    4    8      3.85      0.00
  -12    4    8      5.52      0.00
  -10    4    8      6.24      0.00
   -8    4    8     11.07      0.00
   -6    4    8      5.62      0.00
   -4    4    8     17.91      0.00
   -2    4    8      6.48      0.00
    0    4    8     20.31      0.00
    2    4    8     13.60      0.00
    4    4    8      9.76      0.00
    6    4    8     22.36      0.00
    8    4    8      7.85      0.00
   10    4    8     12.52      0.00
   12    4    8      6.06      0.00
   14    4    8      4.78      0.00
   16    4    8      1.23      0.00
   18    4    8      3.47      0.00
   20    4    8      1.33      0.00
   22    4    8      5.13      0.00
   24    4    8     -1.63      0.00
   26    4    8      1.13      0.00
  -27    5    8      2.98      0.00
  -25    5    8     -3.85      0.00
  -23    5    8     13.49      0.00
  -21    5    8     -2.89      0.00
  -19    5    8     -3.76      0.00
  -17    5    8      2.51      0.00
  -15    5    8     -1.67      0.00
  -13    5    8     -4.69      0.00
  -11    5    8      3.08      0.00
   -9    5    8     -5.62      0.00
   -7    5    8      2.18      0.00
   -5    5    8     -2.36      0.00
   -3    5    8     -6.33      0.00
   -1    5    8     -0.09      0.00
    1    5    8     -8.84      0.00
    3    5    8      2.70      0.00
    5    5    8     -9.64      0.00
    7    5    8     -6.25      0.00
    9    5    8     -7.55      0.00
   11    5    8     -8.50      0.00
   13    5    8     -5.29      0.00
   15    5    8     -2.44      0.00
   17    5    8     -3.50      0.00
   19    5    8      0.57      0.00
   21    5    8      0.24      0.00
   23    5    8     -1.75      0.00
   25    5    8      2.29      0.00
  -26    6    8      5.70      0.00
  -24    6    8      6.13      0.00
  -22    6    8     -9.97      0.00
  -20    6    8      9.25      0.00
  -18    6    8      2.40      0.00
  -16    6    8     -8.10      0.00
  -14    6    8      5.27      0.00
  -12    6    8     -9.13      0.00
  -10    6    8     -8.11      0.00
   -8    6    8    -10.69      0.00
   -6    6    8     -9.89      0.00
   -4    6    8     -8.91      0.00
   -2    6    8    -12.29      0.00
    0    6    8     -7.54      0.00
    2    6    8     -8.06      0.00
    4    6    8     -4.37      0.00
    6    6    8     -2.50      0.00
    8    6    8     -3.19      0.00
   10    6    8      5.85      0.00
   12    6    8     -2.43      0.00
   14    6    8     -1.91      0.00
   16    6    8     -2.48      0.00
   18    6    8     -1.40      0.00
   20    6    8     -3.43      0.00
   22    6    8      0.58      0.00
   24    6    8      0.39      0.00
  -25    7    8    -10.31      0.00
  -23    7    8     -4.67      0.00
  -21    7    8      4.20      0.00
  -19    7    8    -12.98      0.00
  -17    7    8     14.13      0.00
  -15    7    8     -0.01      0.00
  -13    7    8      5.89      0.00
  -11    7    8     19.22      0.00
   -9    7    8     14.05      0.00
   -7    7    8     18.83      0.00
   -5    7    8      7.86      0.00
   -3    7    8     24.00      0.00
   -1    7    8      3.61      0.00
    1    7    8     12.35      0.00
    3    7    8      1.04      0.00
    5    7    8     -2.02      0.00
    7    7    8     10.65      0.00
    9    7    8     -8.65      0.00
   11    7    8     -2.01      0.00
   13    7    8      6.63      0.00
   15    7    8      1.14      0.00
   17    7    8      4.35      0.00
   19    7    8     -1.41      0.00
   21    7    8     -4.17      0.00
  -22    8    8     -6.82      0.00
  -20    8    8     13.12      0.00
  -18    8    8     -7.16      0.00
  -16    8    8     -2.75      0.00
  -14    8    8      4.27      0.00
  -12    8    8     -9.83      0.00
  -10    8    8     -7.50      0.00
   -8    8    8    -10.27      0.00
   -6    8    8    -12.44      0.00
   -4    8    8     -8.45      0.00
   -2    8    8     -4.24      0.00
    0    8    8      5.84      0.00
    2    8    8     -3.30      0.00
    4    8    8     16.60      0.00
    6    8    8     -5.77      0.00
    8    8    8      1.68      0.00
   10    8    8      7.27      0.00
   12    8    8     -0.77      0.00
   14    8    8     -0.34      0.00
   16    8    8     -0.85      0.00
   18    8    8      0.78      0.00
   20    8    8      7.84      0.00
  -19    9    8     -8.13      0.00
  -17    9    8     -1.36      0.00
  -15    9    8    -10.17      0.00
  -13    9    8     -7.13      0.00
  -11    9    8     -5.72      0.00
   -9    9    8     -9.39      0.00
   -7    9    8     -4.76      0.00
   -5    9    8      8.20      0.00
   -3    9    8    -10.32      0.00
   -1    9    8     -8.70      0.00
    1    9    8     -1.39      0.00
    3    9    8    -14.88      0.00
    5    9    8     -4.76      0.00
    7    9    8     -2.67      0.00
    9    9    8      4.77      0.00
   11    9    8      0.97      0.00
   13    9    8      2.67      0.00
   15    9    8      7.55      0.00
   17    9    8     -3.21      0.00
  -16   10    8      8.61      0.00
  -14   10    8      7.21      0.00
  -12   10    8      6.60      0.00
  -10   10    8      5.59      0.00
   -8   10    8     24.41      0.00
   -6   10    8      1.12      0.00
   -4   10    8     -0.29      0.00
   -2   10    8     17.68      0.00
    0   10    8     -5.07      0.00
    2   10    8      4.42      0.00
    4   10    8      3.60      0.00
    6   10    8      5.23      0.00
    8   10    8     -7.10      0.00
   10   10    8     -6.56      0.00
   12   10    8     -6.88      0.00
  -11   11    8      9.44      0.00
   -9   11    8     -8.80      0.00
   -7   11    8    -10.26      0.00
   -5   11    8      8.79      0.00
   -3   11    8     -8.21      0.00
   -1   11    8     -5.42      0.00
    1   11    8      5.61      0.00
    3   11    8     -0.70      0.00
    5   11    8      0.72      0.00
    7   11    8      5.81      0.00
  -29    1    9     -8.58      0.00
  -27    1    9     -2.78      0.00
  -25    1    9      5.23      0.00
  -23    1    9     -3.16      0.00
  -21    1    9     -0.18      0.00
  -19    1    9      7.81      0.00
  -17    1    9      2.90      0.00
  -15    1    9     -2.05      0.00
  -13    1    9     -2.13      0.00
  -11    1    9     -7.77      0.00
   -9    1    9     -9.93      0.00
   -7    1    9    -10.44      0.00
   -5    1    9    -11.65      0.00
   -3    1    9    -13.02      0.00
   -1    1    9     11.03      0.00
    1    1    9    -14.87      0.00
    3    1    9     -6.25      0.00
    5    1    9    -13.36      0.00
    7    1    9     -9.46      0.00
    9    1    9     -6.58      0.00
   11    1    9     -9.12      0.00
   13    1    9     -3.51      0.00
   15    1    9     -0.54      0.00
   17    1    9      5.58      0.00
   19    1    9     -3.19      0.00
   21    1    9     -2.45      0.00
   23    1    9     -4.75      0.00
   25    1    9      1.83      0.00
   27    1    9      5.92      0.00
  -30    2    9     -3.19      0.00
  -28    2    9      7.26      0.00
  -26    2    9     -6.25      0.00
  -24    2    9     -1.64      0.00
  -22    2    9     -1.06      0.00
  -20    2    9     -7.85      0.00
  -18    2    9     -6.80      0.00
  -16    2    9     -3.36      0.00
  -14    2    9     -2.53      0.00
  -12    2    9     -6.40      0.00
  -10    2    9      2.47      0.00
   -8    2    9      0.76      0.00
   -6    2    9     -8.57      0.00
   -4    2    9     16.17      0.00
   -2    2    9    -25.75      0.00
    0    2    9      2.76      0.00
    2    2    9     -6.07      0.00
    4    2    9     -2.88      0.00
    6    2    9      8.74      0.00
    8    2    9     -3.33      0.00
   10    2    9      4.53      0.00
   12    2    9     -3.38      0.00
   14    2    9     -0.61      0.00
   16    2    9     -7.79      0.00
   18    2    9     -3.85      0.00
   20    2    9     -0.64      0.00
   22    2    9      0.98      0.00
   24    2    9      1.92      0.00
   26    2    9     -5.08      0.00
  -29    3    9     -0.91      0.00
  -27    3    9      1.19      0.00
  -25    3    9      4.72      0.00
  -23    3    9      1.52      0.00
  -21    3    9      5.76      0.00
  -19    3    9      6.38      0.00
  -17    3    9      1.55      0.00
  -15    3    9      4.87      0.00
  -13    3    9      6.51      0.00
  -11    3    9      8.80      0.00
   -9    3    9      2.22      0.00
   -7    3    9     30.83      0.00
   -5    3    9     -1.32      0.00
   -3    3    9     20.58      0.00
   -1    3    9     19.25      0.00
    1    3    9      1.84      0.00
    3    3    9     24.34      0.00
    5    3    9      2.32      0.00
    7    3    9      8.53      0.00
    9    3    9      7.23      0.00
   11    3    9      9.04      0.00
   13    3    9      3.54      0.00
   15    3    9      4.96      0.00
   17    3    9      4.87      0.00
   19    3    9      4.44      0.00
   21    3    9      3.88      0.00
   23    3    9      0.36      0.00
   25    3    9     -0.69      0.00
  -28    4    9      0.32      0.00
  -26    4    9     -1.32      0.00
  -24    4    9     -2.47      0.00
  -22    4    9      1.33      0.00
  -20    4    9     -4.35      0.00
  -18    4    9      2.44      0.00
  -16    4    9      2.52      0.00
  -14    4    9      3.51      0.00
  -12    4    9      4.30      0.00
  -10    4    9      5.72      0.00
   -8    4    9    -13.93      0.00
   -6    4    9    -10.81      0.00
   -4    4    9      3.45      0.00
   -2    4    9    -20.14      0.00
    0    4    9      4.12      0.00
    2    4    9     -7.72      0.00
    4    4    9     -3.32      0.00
    6    4    9      1.85      0.00
    8    4    9     -0.93      0.00
   10    4    9     -3.30      0.00
   12    4    9     -1.54      0.00
   14    4    9      1.73      0.00
   16    4    9     -2.25      0.00
   18    4    9     -0.03      0.00
   20    4    9     -1.91      0.00
   22    4    9     -1.40      0.00
   24    4    9      1.66      0.00
   26    4    9     -1.92      0.00
  -27    5    9     -1.42      0.00
  -25    5    9      0.12      0.00
  -23    5    9     -0.79      0.00
  -21    5    9     -4.36      0.00
  -19    5    9     -7.12      0.00
  -17    5    9     -8.33      0.00
  -15    5    9    -12.06      0.00
  -13    5    9    -14.69      0.00
  -11    5    9    -16.67      0.00
   -9    5    9     -9.48      0.00
   -7    5    9     -1.77      0.00
   -5    5    9    -14.61      0.00
   -3    5    9     -8.33      0.00
   -1    5    9     -5.91      0.00
    1    5    9    -10.00      0.00
    3    5    9     -9.37      0.00
    5    5    9    -14.66      0.00
    7    5    9    -14.08      0.00
    9    5    9    -12.54      0.00
   11    5    9     -7.93      0.00
   13    5    9     -7.59      0.00
   15    5    9     -5.42      0.00
   17    5    9     -2.07      0.00
   19    5    9     -5.27      0.00
   21    5    9     -1.20      0.00
   23    5    9     -4.25      0.00
  -26    6    9     -0.70      0.00
  -24    6    9     -1.02      0.00
  -22    6    9     -0.20      0.00
  -20    6    9     10.79      0.00
  -18    6    9      8.44      0.00
  -16    6    9     10.03      0.00
  -14    6    9     10.59      0.00
  -12    6    9     13.62      0.00
  -10    6    9     11.23      0.00
   -8    6    9      8.51      0.00
   -6    6    9      9.73      0.00
   -4    6    9     13.84      0.00
   -2    6    9     11.63      0.00
    0    6    9      4.01      0.00
    2    6    9      9.31      0.00
    4    6    9     10.73      0.00
    6    6    9     10.79      0.00
    8    6    9     15.41      0.00
   10    6    9      8.65      0.00
   12    6    9      9.18      0.00
   14    6    9      9.78      0.00
   16    6    9      5.11      0.00
   18    6    9      6.68      0.00
   20    6    9      4.29      0.00
   22    6    9      3.51      0.00
  -25    7    9      4.39      0.00
  -23    7    9      0.61      0.00
  -21    7    9      1.81      0.00
  -19    7    9     -4.43      0.00
  -17    7    9     -2.85      0.00
  -15    7    9     -1.37      0.00
  -13    7    9      0.13      0.00
  -11    7    9     -2.52      0.00
   -9    7    9      3.31      0.00
   -7    7    9     -4.48      0.00
   -5    7    9      5.31      0.00
   -3    7    9     -2.35      0.00
   -1    7    9      3.70      0.00
    1    7    9      6.09      0.00
    3    7    9     -3.65      0.00
    5    7    9      3.77      0.00
    7    7    9     -8.74      0.00
    9    7    9     -3.95      0.00
   11    7    9     -1.53      0.00
   13    7    9     -3.36      0.00
   15    7    9     -2.02      0.00
   17    7    9     -5.71      0.00
   19    7    9     -4.71      0.00
   21    7    9     -2.78      0.00
  -22    8    9     -3.69      0.00
  -20    8    9     -1.34      0.00
  -18    8    9     -2.02      0.00
  -16    8    9     -0.58      0.00
  -14    8    9     -2.48      0.00
  -12    8    9     -9.28      0.00
  -10    8    9     -6.79      0.00
   -8    8    9     -3.71      0.00
   -6    8    9     -7.40      0.00
   -4    8    9    -14.70      0.00
   -2    8    9     -5.98      0.00
    0    8    9    -11.27      0.00
    2    8    9     -3.50      0.00
    4    8    9     -6.70      0.00
    6    8    9     -1.04      0.00
    8    8    9      6.31      0.00
   10    8    9      5.98      0.00
   12    8    9     -0.43      0.00
   14    8    9     -1.38      0.00
   16    8    9     -2.07      0.00
   18    8    9      4.46      0.00
  -19    9    9     -1.56      0.00
  -17    9    9      5.90      0.00
  -15    9    9     -0.96      0.00
  -13    9    9      5.11      0.00
  -11    9    9      7.43      0.00
   -9    9    9      0.08      0.00
   -7    9    9      1.79      0.00
   -5    9    9     10.44      0.00
   -3    9    9      9.31      0.00
   -1    9    9      6.65      0.00
    1    9    9      3.80      0.00
    3    9    9      5.70      0.00
    5    9    9      7.52      0.00
    7    9    9      1.79      0.00
    9    9    9     -5.90      0.00
   11    9    9     -7.58      0.00
   13    9    9     -3.32      0.00
   15    9    9      1.10      0.00
  -16   10    9    -12.29      0.00
  -14   10    9     -1.60      0.00
  -12   10    9      2.56      0.00
  -10   10    9     -3.62      0.00
   -8   10    9      8.44      0.00
   -6   10    9      5.02      0.00
   -4   10    9     -6.56      0.00
   -2   10    9     -3.87      0.00
    0   10    9     -0.93      0.00
    2   10    9     -1.90      0.00
    4   10    9     -0.11      0.00
    6   10    9      2.53      0.00
    8   10    9     -3.92      0.00
   10   10    9      6.45      0.00
   12   10    9      5.76      0.00
   -9   11    9      0.53      0.00
   -7   11    9    -14.05      0.00
   -5   11    9     -1.35      0.00
   -3   11    9      6.70      0.00
   -1   11    9      2.22      0.00
    1   11    9      3.12      0.00
    3   11    9      3.32      0.00
    5   11    9    -17.66      0.00
    7   11    9      1.46      0.00
  -28    0   10      5.29      0.00
  -26    0   10      5.06      0.00
  -24    0   10      0.54      0.00
  -22    0   10     -1.11      0.00
  -20    0   10     -6.49      0.00
  -18    0   10     -7.67      0.00
  -16    0   10    -19.17      0.00
  -14    0   10    -15.53      0.00
  -12    0   10    -26.59      0.00
  -10    0   10    -15.11      0.00
   -8    0   10    -24.60      0.00
   -6    0   10    -31.03      0.00
   -4    0   10     24.43      0.00
   -2    0   10    -26.60      0.00
    0    0   10     26.19      0.00
    2    0   10     -5.50      0.00
    4    0   10     18.90      0.00
    6    0   10     16.69      0.00
    8    0   10      5.56      0.00
   10    0   10      9.82      0.00
   12    0   10      0.13      0.00
   14    0   10      6.65      0.00
   16    0   10      7.24      0.00
   18    0   10      6.57      0.00
   20    0   10      4.88      0.00
   22    0   10      2.17      0.00
   24    0   10      3.97      0.00
   26    0   10      2.12      0.00
  -29    1   10     -3.42      0.00
  -27    1   10     -4.21      0.00
  -25    1   10     -0.91      0.00
  -23    1   10     -0.73      0.00
  -21    1   10      0.77      0.00
  -19    1   10      2.82      0.00
  -17    1   10      7.65      0.00
  -15    1   10      9.21      0.00
  -13    1   10      9.34      0.00
  -11    1   10     14.95      0.00
   -9    1   10      3.01      0.00
   -7    1   10     24.51      0.00
   -5    1   10     -6.45      0.00
   -3    1   10     -6.13      0.00
   -1    1   10      4.09      0.00
    1    1   10    -15.62      0.00
    3    1   10     -2.26      0.00
    5    1   10    -22.34      0.00
    7    1   10     -4.54      0.00
    9    1   10     -9.88      0.00
   11    1   10     -1.89      0.00
   13    1   10     -0.81      0.00
   15    1   10     -2.57      0.00
   17    1   10     -1.50      0.00
   19    1   10     -1.35      0.00
   21    1   10     -0.62      0.00
   23    1   10     -4.40      0.00
   25    1   10      0.70      0.00
   27    1   10     -5.42      0.00
  -30    2   10      0.83      0.00
  -28    2   10      0.43      0.00
  -26    2   10      0.06      0.00
  -24    2   10      0.12      0.00
  -22    2   10      2.24      0.00
  -20    2   10      3.55      0.00
  -18    2   10      4.84      0.00
  -16    2   10      3.52      0.00
  -14    2   10      8.08      0.00
  -12    2   10     -1.73      0.00
  -10    2   10      1.11      0.00
   -8    2   10      2.78      0.00
   -6    2   10      1.00      0.00
   -4    2   10      9.57      0.00
   -2    2   10     14.72      0.00
    0    2   10     -3.43      0.00
    2    2   10     13.65      0.00
    4    2   10     11.24      0.00
    6    2   10      8.78      0.00
    8    2   10      4.29      0.00
   10    2   10      5.27      0.00
   12    2   10     -2.60      0.00
   14    2   10     -5.27      0.00
   16    2   10     -2.22      0.00
   18    2   10     -6.77      0.00
   20    2   10     -2.68      0.00
   22    2   10     -0.33      0.00
   24    2   10      0.32      0.00
   26    2   10     -2.27      0.00
  -29    3   10      5.57      0.00
  -27    3   10      1.13      0.00
  -25    3   10      1.54      0.00
  -23    3   10     -0.69      0.00
  -21    3   10      1.81      0.00
  -19    3   10     -6.59      0.00
  -17    3   10     -2.21      0.00
  -15    3   10     -9.13      0.00
  -13    3   10      2.66      0.00
  -11    3   10      3.62      0.00
   -9    3   10      6.76      0.00
   -7    3   10     -5.01      0.00
   -5    3   10      5.52      0.00
   -3    3   10    -16.51      0.00
   -1    3   10     -5.14      0.00
    1    3   10      3.60      0.00
    3    3   10    -11.54      0.00
    5    3   10     -1.73      0.00
    7    3   10     -0.48      0.00
    9    3   10     -2.76      0.00
   11    3   10     -1.37      0.00
   13    3   10      5.77      0.00
   15    3   10      3.16      0.00
   17    3   10      3.76      0.00
   19    3   10      4.44      0.00
   21    3   10      3.34      0.00
   23    3   10      1.76      0.00
   25    3   10     -0.55      0.00
  -28    4   10      3.81      0.00
  -26    4   10     -4.67      0.00
  -24    4   10     -0.68      0.00
  -22    4   10     -3.91      0.00
  -20    4   10     -8.93      0.00
  -18    4   10     -5.44      0.00
  -16    4   10     -8.06      0.00
  -14    4   10    -10.25      0.00
  -12    4   10    -13.21      0.00
  -10    4   10    -11.84      0.00
   -8    4   10    -15.28      0.00
   -6    4   10     -5.35      0.00
   -4    4   10     -8.57      0.00
   -2    4   10      9.96      0.00
    0    4   10     -7.79      0.00
    2    4   10     -0.85      0.00
    4    4   10     -0.99      0.00
    6    4   10     -5.04      0.00
    8    4   10     -0.53      0.00
   10    4   10      1.55      0.00
   12    4   10      1.89      0.00
   14    4   10     -2.36      0.00
   16    4   10     -1.16      0.00
   18    4   10     -1.94      0.00
   20    4   10     -1.02      0.00
   22    4   10     -5.61      0.00
   24    4   10      3.45      0.00
  -27    5   10    -11.65      0.00
  -25    5   10      9.85      0.00
  -23    5   10     -4.62      0.00
  -21    5   10     11.32      0.00
  -19    5   10     15.86      0.00
  -17    5   10     10.74      0.00
  -15    5   10     15.42      0.00
  -13    5   10     12.31      0.00
  -11    5   10      8.15      0.00
   -9    5   10     14.46      0.00
   -7    5   10      9.14      0.00
   -5    5   10      9.29      0.00
   -3    5   10      6.57      0.00
   -1    5   10     -0.96      0.00
    1    5   10      8.27      0.00
    3    5   10     -1.09      0.00
    5    5   10      1.64      0.00
    7    5   10     -2.08      0.00
    9    5   10     -0.38      0.00
   11    5   10     -2.65      0.00
   13    5   10      1.71      0.00
   15    5   10     -0.14      0.00
   17    5   10      2.61      0.00
   19    5   10     -4.28      0.00
   21    5   10      3.11      0.00
   23    5   10      0.73      0.00
  -26    6   10      7.86      0.00
  -24    6   10     -7.00      0.00
  -22    6   10     10.22      0.00
  -20    6   10     -9.05      0.00
  -18    6   10     -8.51      0.00
  -16    6   10     -0.29      0.00
  -14    6   10     -7.64      0.00
  -12    6   10      2.72      0.00
  -10    6   10     -3.01      0.00
   -8    6   10      2.76      0.00
   -6    6   10     -3.85      0.00
   -4    6   10     -1.99      0.00
   -2    6   10      1.87      0.00
    0    6   10     -4.03      0.00
    2    6   10      0.73      0.00
    4    6   10      4.15      0.00
    6    6   10      4.98      0.00
    8    6   10      5.81      0.00
   10    6   10     -0.07      0.00
   12    6   10     -1.89      0.00
   14    6   10      1.13      0.00
   16    6   10     -0.06      0.00
   18    6   10      3.89      0.00
   20    6   10      4.96      0.00
   22    6   10      0.48      0.00
  -25    7   10     -1.59      0.00
  -23    7   10     -1.27      0.00
  -21    7   10    -16.54      0.00
  -19    7   10      8.91      0.00
  -17    7   10     -6.12      0.00
  -15    7   10      0.36      0.00
  -13    7   10     -1.07      0.00
  -11    7   10     -9.50      0.00
   -9    7   10     -5.69      0.00
   -7    7   10     -9.14      0.00
   -5    7   10      3.87      0.00
   -3    7   10    -13.88      0.00
   -1    7   10      5.56      0.00
    1    7   10     -1.12      0.00
    3    7   10     -4.07      0.00
    5    7   10      0.45      0.00
    7    7   10     -8.74      0.00
    9    7   10      1.48      0.00
   11    7   10      3.27      0.00
   13    7   10     -6.29      0.00
   15    7   10     -3.18      0.00
   17    7   10     -8.20      0.00
   19    7   10     -4.74      0.00
   21    7   10     -6.92      0.00
  -22    8   10     11.81      0.00
  -20    8   10     -3.80      0.00
  -18    8   10     -0.78      0.00
  -16    8   10     -1.08      0.00
  -14    8   10     -5.73      0.00
  -12    8   10      5.66      0.00
  -10    8   10      3.78      0.00
   -8    8   10      4.91      0.00
   -6    8   10      1.01      0.00
   -4    8   10      3.84      0.00
   -2    8   10      6.10      0.00
    0    8   10     -4.85      0.00
    2    8   10      6.42      0.00
    4    8   10     -3.89      0.00
    6    8   10      7.78      0.00
    8    8   10     -0.45      0.00
   10    8   10     -8.63      0.00
   12    8   10      0.03      0.00
   14    8   10      3.47      0.00
   16    8   10      6.26      0.00
   18    8   10      8.53      0.00
  -19    9   10      1.33      0.00
  -17    9   10      2.01      0.00
  -15    9   10      5.62      0.00
  -13    9   10     -1.36      0.00
  -11    9   10      1.19      0.00
   -9    9   10     -2.04      0.00
   -7    9   10      6.02      0.00
   -5    9   10     -3.84      0.00
   -3    9   10      1.37      0.00
   -1    9   10     -2.92      0.00
    1    9   10     -3.96      0.00
    3    9   10      4.64      0.00
    5    9   10     -3.49      0.00
    7    9   10     -3.57      0.00
    9    9   10      4.04      0.00
   11    9   10      3.73      0.00
   13    9   10      7.96      0.00
   15    9   10     -2.03      0.00
  -16   10   10     -7.15      0.00
  -14   10   10      4.01      0.00
  -12   10   10     -0.91      0.00
  -10   10   10      5.26      0.00
   -8   10   10     -9.12      0.00
   -6   10   10     -0.85      0.00
   -4   10   10      3.23      0.00
   -2   10   10     -5.58      0.00
    0   10   10      8.69      0.00
    2   10   10     -7.15      0.00
    4   10   10     -6.41      0.00
    6   10   10     -3.75      0.00
    8   10   10      2.79      0.00
   10   10   10      3.37      0.00
   12   10   10     -3.16      0.00
   -9   11   10      6.53      0.00
   -7   11   10      3.85      0.00
   -5   11   10     -6.23      0.00
   -3   11   10      3.49      0.00
   -1   11   10     -0.29      0.00
    1   11   10     -1.65      0.00
    3   11   10      8.88      0.00
    5   11   10      5.06      0.00
  -29    1   11      8.17      0.00
  -27    1   11      4.06      0.00
  -25    1   11     -2.57      0.00
  -23    1   11      4.78      0.00
  -21    1   11      2.19      0.00
  -19    1   11     -0.27      0.00
  -17    1   11      7.37      0.00
  -15    1   11      8.05      0.00
  -13    1   11     12.50      0.00
  -11    1   11     11.35      0.00
   -9    1   11     19.08      0.00
   -7    1   11     16.32      0.00
   -5    1   11      6.30      0.00
   -3    1   11      6.53      0.00
   -1    1   11     -4.62      0.00
    1    1   11      0.73      0.00
    3    1   11     -7.99      0.00
    5    1   11     -3.91      0.00
    7    1   11     -9.11      0.00
    9    1   11     -9.44      0.00
   11    1   11     -7.99      0.00
   13    1   11    -10.87      0.00
   15    1   11     -6.72      0.00
   17    1   11     -9.20      0.00
   19    1   11     -1.26      0.00
   21    1   11      4.65      0.00
   23    1   11     -0.84      0.00
   25    1   11     -0.32      0.00
  -30    2   11     -1.20      0.00
  -28    2   11     -8.64      0.00
  -26    2   11      1.82      0.00
  -24    2   11     -1.86      0.00
  -22    2   11      0.12      0.00
  -20    2   11      3.66      0.00
  -18    2   11     -1.55      0.00
  -16    2   11     -8.34      0.00
  -14    2   11    -11.60      0.00
  -12    2   11    -11.02      0.00
  -10    2   11    -17.73      0.00
   -8    2   11    -25.67      0.00
   -6    2   11    -15.28      0.00
   -4    2   11    -21.35      0.00
   -2    2   11     -6.75      0.00
    0    2   11    -18.78      0.00
    2    2   11     -3.80      0.00
    4    2   11     -3.13      0.00
    6    2   11     -5.72      0.00
    8    2   11      4.11      0.00
   10    2   11     -0.60      0.00
   12    2   11      4.42      0.00
   14    2   11     -0.20      0.00
   16    2   11      0.87      0.00
   18    2   11      1.35      0.00
   20    2   11     -5.53      0.00
   22    2   11     -2.65      0.00
   24    2   11      0.34      0.00
   26    2   11      4.61      0.00
  -29    3   11     -1.63      0.00
  -27    3   11     -5.60      0.00
  -25    3   11     -2.27      0.00
  -23    3   11     -2.47      0.00
  -21    3   11     -5.33      0.00
  -19    3   11     -7.87      0.00
  -17    3   11     -2.11      0.00
  -15    3   11     -0.38      0.00
  -13    3   11      4.03      0.00
  -11    3   11      5.81      0.00
   -9    3   11     19.20      0.00
   -7    3   11      3.49      0.00
   -5    3   11     27.92      0.00
   -3    3   11      7.80      0.00
   -1    3   11     24.28      0.00
    1    3   11     18.94      0.00
    3    3   11      5.68      0.00
    5    3   11     13.83      0.00
    7    3   11      8.42      0.00
    9    3   11     10.69      0.00
   11    3   11      5.84      0.00
   13    3   11     10.12      0.00
   15    3   11      7.19      0.00
   17    3   11      5.19      0.00
   19    3   11      3.16      0.00
   21    3   11      2.25      0.00
   23    3   11      3.83      0.00
   25    3   11     -0.27      0.00
  -28    4   11     10.82      0.00
  -26    4   11      6.34      0.00
  -24    4   11      5.08      0.00
  -22    4   11      1.83      0.00
  -20    4   11      8.79      0.00
  -18    4   11      5.61      0.00
  -16    4   11      9.96      0.00
  -14    4   11      2.88      0.00
  -12    4   11      4.58      0.00
  -10    4   11     -5.98      0.00
   -8    4   11     11.41      0.00
   -6    4   11     -1.97      0.00
   -4    4   11     -5.00      0.00
   -2    4   11      4.62      0.00
    0    4   11    -10.79      0.00
    2    4   11      3.61      0.00
    4    4   11     -3.23      0.00
    6    4   11     -2.26      0.00
    8    4   11     -5.29      0.00
   10    4   11     -4.88      0.00
   12    4   11     -5.18      0.00
   14    4   11     -7.29      0.00
   16    4   11     -2.17      0.00
   18    4   11     -2.71      0.00
   20    4   11      1.50      0.00
   22    4   11     -2.58      0.00
   24    4   11     -3.58      0.00
  -27    5   11     -2.96      0.00
  -25    5   11     -5.13      0.00
  -23    5   11     -2.80      0.00
  -21    5   11     -2.83      0.00
  -19    5   11     -1.24      0.00
  -17    5   11     -5.89      0.00
  -15    5   11     -5.02      0.00
  -13    5   11     -5.07      0.00
  -11    5   11     -6.62      0.00
   -9    5   11    -11.72      0.00
   -7    5   11    -17.75      0.00
   -5    5   11     -7.31      0.00
   -3    5   11    -14.56      0.00
   -1    5   11    -15.26      0.00
    1    5   11    -14.28      0.00
    3    5   11    -11.44      0.00
    5    5   11     -8.50      0.00
    7    5   11    -11.36      0.00
    9    5   11     -6.03      0.00
   11    5   11     -7.94      0.00
   13    5   11     -3.59      0.00
   15    5   11     -3.14      0.00
   17    5   11     -4.83      0.00
   19    5   11     -1.87      0.00
   21    5   11     -3.66      0.00
   23    5   11      2.16      0.00
  -26    6   11     -1.86      0.00
  -24    6   11      1.28      0.00
  -22    6   11     -0.20      0.00
  -20    6   11     -5.96      0.00
  -18    6   11      0.90      0.00
  -16    6   11      1.41      0.00
  -14    6   11      4.44      0.00
  -12    6   11      2.57      0.00
  -10    6   11      6.18      0.00
   -8    6   11      6.15      0.00
   -6    6   11      7.62      0.00
   -4    6   11      4.00      0.00
   -2    6   11      5.92      0.00
    0    6   11     15.08      0.00
    2    6   11      8.85      0.00
    4    6   11      9.01      0.00
    6    6   11     13.02      0.00
    8    6   11      8.47      0.00
   10    6   11     10.88      0.00
   12    6   11      8.77      0.00
   14    6   11      6.09      0.00
   16    6   11      8.02      0.00
   18    6   11      6.11      0.00
   20    6   11      3.23      0.00
   22    6   11      1.60      0.00
  -23    7   11      0.65      0.00
  -21    7   11      4.85      0.00
  -19    7   11      1.14      0.00
  -17    7   11      0.63      0.00
  -15    7   11     -1.12      0.00
  -13    7   11      0.41      0.00
  -11    7   11      4.33      0.00
   -9    7   11      2.81      0.00
   -7    7   11      9.16      0.00
   -5    7   11      1.48      0.00
   -3    7   11      9.00      0.00
   -1    7   11      5.20      0.00
    1    7   11     -3.32      0.00
    3    7   11      2.40      0.00
    5    7   11     -6.52      0.00
    7    7   11     -1.10      0.00
    9    7   11     -3.07      0.00
   11    7   11     -3.86      0.00
   13    7   11     -0.18      0.00
   15    7   11     -5.69      0.00
   17    7   11      0.31      0.00
   19    7   11     -1.96      0.00
  -22    8   11      2.12      0.00
  -20    8   11     -0.73      0.00
  -18    8   11      0.22      0.00
  -16    8   11     -1.37      0.00
  -14    8   11     -5.72      0.00
  -12    8   11     -5.11      0.00
  -10    8   11     -3.29      0.00
   -8    8   11    -16.40      0.00
   -6    8   11     -6.36      0.00
   -4    8   11     -3.22      0.00
   -2    8   11    -11.97      0.00
    0    8   11     -6.73      0.00
    2    8   11     -5.46      0.00
    4    8   11     -1.00      0.00
    6    8   11     -2.78      0.00
    8    8   11     -0.01      0.00
   10    8   11     -3.53      0.00
   12    8   11     -0.92      0.00
   14    8   11     -0.16      0.00
   16    8   11     -0.80      0.00
   18    8   11     -8.12      0.00
  -19    9   11      6.22      0.00
  -17    9   11     -1.61      0.00
  -15    9   11      5.99      0.00
  -13    9   11      9.56      0.00
  -11    9   11     -1.14      0.00
   -9    9   11      8.60      0.00
   -7    9   11     16.29      0.00
   -5    9   11     -2.97      0.00
   -3    9   11      6.06      0.00
   -1    9   11      5.15      0.00
    1    9   11      8.44      0.00
    3    9   11      0.70      0.00
    5    9   11      3.20      0.00
    7    9   11      1.90      0.00
    9    9   11      2.60      0.00
   11    9   11      7.01      0.00
   13    9   11      1.23      0.00
   15    9   11      0.54      0.00
  -14   10   11     -6.04      0.00
  -12   10   11     -5.28      0.00
  -10   10   11      8.78      0.00
   -8   10   11     -9.77      0.00
   -6   10   11     -9.81      0.00
   -4   10   11      4.08      0.00
   -2   10   11     -1.15      0.00
    0   10   11     -1.48      0.00
    2   10   11      3.39      0.00
    4   10   11      2.84      0.00
    6   10   11     -2.76      0.00
    8   10   11      5.09      0.00
   10   10   11     -2.45      0.00
   -7   11   11     11.51      0.00
   -5   11   11      5.16      0.00
   -3   11   11     -3.41      0.00
   -1   11   11      1.46      0.00
    1   11   11     -2.35      0.00
    3   11   11     -8.02      0.00
  -28    0   12     -0.29      0.00
  -26    0   12     -1.16      0.00
  -24    0   12      6.62      0.00
  -22    0   12      2.27      0.00
  -20    0   12      4.45      0.00
  -18    0   12      4.08      0.00
  -16    0   12      8.61      0.00
  -14    0   12      0.33      0.00
  -12    0   12     20.62      0.00
  -10    0   12      6.57      0.00
   -8    0   12     29.20      0.00
   -6    0   12     30.36      0.00
   -4    0   12     12.56      0.00
   -2    0   12     30.81      0.00
    0    0   12      8.92      0.00
    2    0   12     26.16      0.00
    4    0   12      0.11      0.00
    6    0   12      7.07      0.00
    8    0   12      1.74      0.00
   10    0   12     -3.99      0.00
   12    0   12     -1.53      0.00
   14    0   12      1.90      0.00
   16    0   12     -6.25      0.00
   18    0   12      2.03      0.00
   20    0   12      0.52      0.00
   22    0   12      1.70      0.00
   24    0   12     -0.49      0.00
   26    0   12      0.39      0.00
  -29    1   12     -1.94      0.00
  -27    1   12      0.74      0.00
  -25    1   12     -4.01      0.00
  -23    1   12     -1.42      0.00
  -21    1   12     -1.95      0.00
  -19    1   12     -0.76      0.00
  -17    1   12     -6.41      0.00
  -15    1   12     -2.23      0.00
  -13    1   12     -6.51      0.00
  -11    1   12    -13.32      0.00
   -9    1   12     -6.69      0.00
   -7    1   12    -30.48      0.00
   -5    1   12    -16.08      0.00
   -3    1   12    -21.10      0.00
   -1    1   12    -16.16      0.00
    1    1   12    -21.36      0.00
    3    1   12    -14.84      0.00
    5    1   12     -4.05      0.00
    7    1   12    -11.58      0.00
    9    1   12     -0.69      0.00
   11    1   12     -0.43      0.00
   13    1   12     -1.88      0.00
   15    1   12      2.31      0.00
   17    1   12      1.49      0.00
   19    1   12     -0.50      0.00
   21    1   12     -1.14      0.00
   23    1   12      2.42      0.00
   25    1   12     -1.17      0.00
  -30    2   12      0.06      0.00
  -28    2   12     -0.67      0.00
  -26    2   12      3.20      0.00
  -24    2   12      0.14      0.00
  -22    2   12     -0.21      0.00
  -20    2   12     -2.58      0.00
  -18    2   12     -1.84      0.00
  -16    2   12     -1.61      0.00
  -14    2   12     -2.93      0.00
  -12    2   12      0.34      0.00
  -10    2   12      3.35      0.00
   -8    2   12     -3.56      0.00
   -6    2   12     15.59      0.00
   -4    2   12      7.95      0.00
   -2    2   12      3.18      0.00
    0    2   12     14.34      0.00
    2    2   12     15.52      0.00
    4    2   12      5.84      0.00
    6    2   12     10.13      0.00
    8    2   12      8.56      0.00
   10    2   12      1.51      0.00
   12    2   12     -0.09      0.00
   14    2   12      1.11      0.00
   16    2   12     -2.95      0.00
   18    2   12      0.97      0.00
   20    2   12     -0.49      0.00
   22    2   12      0.21      0.00
   24    2   12     -0.90      0.00
  -29    3   12      0.19      0.00
  -27    3   12      0.62      0.00
  -25    3   12      0.49      0.00
  -23    3   12      3.51      0.00
  -21    3   12      3.69      0.00
  -19    3   12      8.75      0.00
  -17    3   12      9.09      0.00
  -15    3   12     13.31      0.00
  -13    3   12      9.98      0.00
  -11    3   12     10.31      0.00
   -9    3   12     12.91      0.00
   -7    3   12     16.51      0.00
   -5    3   12     -1.65      0.00
   -3    3   12     22.61      0.00
   -1    3   12      9.02      0.00
    1    3   12      3.27      0.00
    3    3   12      2.50      0.00
    5    3   12      4.67      0.00
    7    3   12      0.70      0.00
    9    3   12      2.10      0.00
   11    3   12      8.38      0.00
   13    3   12      1.89      0.00
   15    3   12      1.81      0.00
   17    3   12      1.49      0.00
   19    3   12      0.77      0.00
   21    3   12     -1.12      0.00
   23    3   12     -3.92      0.00
   25    3   12     -0.21      0.00
  -28    4   12     -2.94      0.00
  -26    4   12     -2.12      0.00
  -24    4   12     -5.51      0.00
  -22    4   12     -8.37      0.00
  -20    4   12     -7.41      0.00
  -18    4   12    -13.67      0.00
  -16    4   12    -13.32      0.00
  -14    4   12    -15.32      0.00
  -12    4   12    -14.34      0.00
  -10    4   12    -19.98      0.00
   -8    4   12    -16.33      0.00
   -6    4   12    -14.80      0.00
   -4    4   12    -17.85      0.00
   -2    4   12    -30.07      0.00
    0    4   12    -14.85      0.00
    2    4   12    -16.19      0.00
    4    4   12     -9.67      0.00
    6    4   12    -14.73      0.00
    8    4   12     -9.60      0.00
   10    4   12    -10.15      0.00
   12    4   12     -9.03      0.00
   14    4   12     -2.86      0.00
   16    4   12     -0.99      0.00
   18    4   12     -4.35      0.00
   20    4   12     -2.93      0.00
   22    4   12      1.76      0.00
   24    4   12     -0.14      0.00
  -27    5   12     10.82      0.00
  -25    5   12     -1.07      0.00
  -23    5   12      5.66      0.00
  -21    5   12      3.05      0.00
  -19    5   12      4.03      0.00
  -17    5   12      9.49      0.00
  -15    5   12      5.93      0.00
  -13    5   12      6.14      0.00
  -11    5   12      8.48      0.00
   -9    5   12      3.63      0.00
   -7    5   12      1.40      0.00
   -5    5   12      0.34      0.00
   -3    5   12      5.73      0.00
   -1    5   12      5.99      0.00
    1    5   12      2.99      0.00
    3    5   12      1.02      0.00
    5    5   12      3.98      0.00
    7    5   12      7.25      0.00
    9    5   12      6.90      0.00
   11    5   12      5.99      0.00
   13    5   12      4.92      0.00
   15    5   12      2.61      0.00
   17    5   12     -0.60      0.00
   19    5   12      6.91      0.00
   21    5   12      1.49      0.00
   23    5   12      5.91      0.00
  -26    6   12     -9.23      0.00
  -24    6   12      9.58      0.00
  -22    6   12     -1.40      0.00
  -20    6   12      6.06      0.00
  -18    6   12      5.54      0.00
  -16    6   12      1.87      0.00
  -14    6   12     10.01      0.00
  -12    6   12      9.39      0.00
  -10    6   12     15.09      0.00
   -8    6   12     12.79      0.00
   -6    6   12     17.95      0.00
   -4    6   12     19.70      0.00
   -2    6   12     17.22      0.00
    0    6   12     17.38      0.00
    2    6   12     13.23      0.00
    4    6   12     11.05      0.00
    6    6   12     10.45      0.00
    8    6   12      1.88      0.00
   10    6   12     -1.06      0.00
   12    6   12      3.22      0.00
   14    6   12     -4.62      0.00
   16    6   12      3.31      0.00
   18    6   12      2.09      0.00
   20    6   12     -0.80      0.00
  -23    7   12     -7.10      0.00
  -21    7   12      4.48      0.00
  -19    7   12    -13.13      0.00
  -17    7   12     -8.01      0.00
  -15    7   12    -12.60      0.00
  -13    7   12    -18.48      0.00
  -11    7   12    -16.91      0.00
   -9    7   12    -19.65      0.00
   -7    7   12    -12.59      0.00
   -5    7   12    -22.44      0.00
   -3    7   12    -13.34      0.00
   -1    7   12    -19.26      0.00
    1    7   12    -16.13      0.00
    3    7   12     -5.25      0.00
    5    7   12    -14.79      0.00
    7    7   12     -5.85      0.00
    9    7   12     -1.80      0.00
   11    7   12     -6.97      0.00
   13    7   12     -1.51      0.00
   15    7   12     -3.47      0.00
   17    7   12     -5.59      0.00
   19    7   12     -7.85      0.00
  -22    8   12     -5.77      0.00
  -20    8   12      0.85      0.00
  -18    8   12      4.95      0.00
  -16    8   12      5.77      0.00
  -14    8   12      9.74      0.00
  -12    8   12      6.52      0.00
  -10    8   12      8.12      0.00
   -8    8   12      5.31      0.00
   -6    8   12      6.10      0.00
   -4    8   12      5.79      0.00
   -2    8   12     -1.94      0.00
    0    8   12      8.94      0.00
    2    8   12     -1.31      0.00
    4    8   12      2.10      0.00
    6    8   12     -1.95      0.00
    8    8   12     -2.73      0.00
   10    8   12      3.04      0.00
   12    8   12      2.13      0.00
   14    8   12      3.55      0.00
   16    8   12      3.94      0.00
  -19    9   12      3.07      0.00
  -17    9   12     -1.90      0.00
  -15    9   12     -2.93      0.00
  -13    9   12      7.20      0.00
  -11    9   12      0.27      0.00
   -9    9   12     10.91      0.00
   -7    9   12     -0.09      0.00
   -5    9   12      3.79      0.00
   -3    9   12      6.50      0.00
   -1    9   12      8.32      0.00
    1    9   12      6.36      0.00
    3    9   12      1.88      0.00
    5    9   12      5.58      0.00
    7    9   12      8.80      0.00
    9    9   12      1.16      0.00
   11    9   12      2.27      0.00
   13    9   12     -3.64      0.00
  -14   10   12     -9.60      0.00
  -12   10   12     -3.07      0.00
  -10   10   12     -8.78      0.00
   -8   10   12     -9.20      0.00
   -6   10   12     -2.11      0.00
   -4   10   12     -8.47      0.00
   -2   10   12     -5.55      0.00
    0   10   12    -13.19      0.00
    2   10   12     -5.03      0.00
    4   10   12      0.14      0.00
    6   10   12     -3.38      0.00
    8   10   12     -4.70      0.00
   10   10   12     -4.01      0.00
   -7   11   12      4.49      0.00
   -5   11   12      2.60      0.00
   -3   11   12      0.39      0.00
   -1   11   12      0.60      0.00
    1   11   12      3.49      0.00
  -29    1   13     -2.74      0.00
  -27    1   13      0.83      0.00
  -25    1   13      4.57      0.00
  -23    1   13      2.37      0.00
  -21    1   13      3.61      0.00
  -19    1   13      5.74      0.00
  -17    1   13     -1.60      0.00
  -15    1   13      8.03      0.00
  -13    1   13      2.90      0.00
  -11    1   13      3.98      0.00
   -9    1   13     -2.88      0.00
   -7    1   13    -13.95      0.00
   -5    1   13     -4.84      0.00
   -3    1   13    -11.20      0.00
   -1    1   13    -16.60      0.00
    1    1   13    -11.93      0.00
    3    1   13     -9.96      0.00
    5    1   13    -12.40      0.00
    7    1   13     -6.41      0.00
    9    1   13     -9.08      0.00
   11    1   13    -10.14      0.00
   13    1   13     -9.68      0.00
   15    1   13     -9.49      0.00
   17    1   13     -7.58      0.00
   19    1   13     -6.36      0.00
   21    1   13    -11.97      0.00
   23    1   13     -0.30      0.00
   25    1   13     -1.27      0.00
  -30    2   13      0.19      0.00
  -28    2   13      1.26      0.00
  -26    2   13     -4.71      0.00
  -24    2   13     -0.37      0.00
  -22    2   13     -1.72      0.00
  -20    2   13     -1.76      0.00
  -18    2   13      1.88      0.00
  -16    2   13      2.04      0.00
  -14    2   13     -2.03      0.00
  -12    2   13      1.12      0.00
  -10    2   13      1.83      0.00
   -8    2   13     17.11      0.00
   -6    2   13     14.38      0.00
   -4    2   13      8.48      0.00
   -2    2   13     14.87      0.00
    0    2   13     18.21      0.00
    2    2   13      4.55      0.00
    4    2   13      8.43      0.00
    6    2   13      8.54      0.00
    8    2   13      5.16      0.00
   10    2   13      6.44      0.00
   12    2   13      3.14      0.00
   14    2   13      2.57      0.00
   16    2   13      3.86      0.00
   18    2   13      0.14      0.00
   20    2   13      4.88      0.00
   22    2   13      4.30      0.00
   24    2   13     -0.34      0.00
  -29    3   13     -1.28      0.00
  -27    3   13      4.89      0.00
  -25    3   13     -3.49      0.00
  -23    3   13     -4.38      0.00
  -21    3   13     -4.23      0.00
  -19    3   13     -5.03      0.00
  -17    3   13     -4.59      0.00
  -15    3   13     -6.16      0.00
  -13    3   13     -5.02      0.00
  -11    3   13     -5.81      0.00
   -9    3   13    -12.28      0.00
   -7    3   13    -10.10      0.00
   -5    3   13    -14.44      0.00
   -3    3   13     -1.14      0.00
   -1    3   13    -14.70      0.00
    1    3   13     -5.45      0.00
    3    3   13     -1.14      0.00
    5    3   13     -4.82      0.00
    7    3   13      0.60      0.00
    9    3   13     -0.33      0.00
   11    3   13      8.64      0.00
   13    3   13      7.24      0.00
   15    3   13      6.33      0.00
   17    3   13      5.23      0.00
   19    3   13      4.62      0.00
   21    3   13      3.96      0.00
   23    3   13     -2.01      0.00
  -28    4   13     -5.93      0.00
  -26    4   13     -3.06      0.00
  -24    4   13      0.86      0.00
  -22    4   13      4.66      0.00
  -20    4   13      1.67      0.00
  -18    4   13      4.43      0.00
  -16    4   13     -1.09      0.00
  -14    4   13      5.97      0.00
  -12    4   13     -3.60      0.00
  -10    4   13      6.06      0.00
   -8    4   13     -8.61      0.00
   -6    4   13      6.02      0.00
   -4    4   13     -3.16      0.00
   -2    4   13     -1.80      0.00
    0    4   13      3.77      0.00
    2    4   13      0.01      0.00
    4    4   13      4.77      0.00
    6    4   13     -2.91      0.00
    8    4   13     -0.45      0.00
   10    4   13     -3.82      0.00
   12    4   13     -8.38      0.00
   14    4   13     -6.64      0.00
   16    4   13     -7.47      0.00
   18    4   13     -5.67      0.00
   20    4   13     -7.08      0.00
   22    4   13     -0.34      0.00
  -27    5   13      3.20      0.00
  -25    5   13      9.31      0.00
  -23    5   13      2.67      0.00
  -21    5   13      2.74      0.00
  -19    5   13      1.93      0.00
  -17    5   13      5.90      0.00
  -15    5   13      4.97      0.00
  -13    5   13      9.89      0.00
  -11    5   13     10.32      0.00
   -9    5   13     15.92      0.00
   -7    5   13     13.80      0.00
   -5    5   13      8.99      0.00
   -3    5   13     10.70      0.00
   -1    5   13      7.48      0.00
    1    5   13      3.66      0.00
    3    5   13     -1.40      0.00
    5    5   13      1.55      0.00
    7    5   13      2.69      0.00
    9    5   13     -6.02      0.00
   11    5   13     -1.19      0.00
   13    5   13     -1.24      0.00
   15    5   13     -0.45      0.00
   17    5   13      3.92      0.00
   19    5   13      3.50      0.00
   21    5   13      1.74      0.00
  -26    6   13     -4.36      0.00
  -24    6   13     -6.86      0.00
  -22    6   13     -2.10      0.00
  -20    6   13     -3.77      0.00
  -18    6   13     -9.46      0.00
  -16    6   13     -8.78      0.00
  -14    6   13    -13.40      0.00
  -12    6   13    -11.60      0.00
  -10    6   13    -15.83      0.00
   -8    6   13    -13.28      0.00
   -6    6   13    -12.19      0.00
   -4    6   13    -10.11      0.00
   -2    6   13     -6.23      0.00
    0    6   13     -9.45      0.00
    2    6   13      0.31      0.00
    4    6   13     -1.38      0.00
    6    6   13     -5.38      0.00
    8    6   13      3.75      0.00
   10    6   13      0.73      0.00
   12    6   13      1.44      0.00
   14    6   13      6.34      0.00
   16    6   13      3.20      0.00
   18    6   13     -1.22      0.00
   20    6   13      0.58      0.00
  -23    7   13      1.11      0.00
  -21    7   13     -2.80      0.00
  -19    7   13      4.53      0.00
  -17    7   13      5.07      0.00
  -15    7   13      6.96      0.00
  -13    7   13      3.30      0.00
  -11    7   13      3.71      0.00
   -9    7   13      3.82      0.00
   -7    7   13      1.51      0.00
   -5    7   13      3.92      0.00
   -3    7   13     -2.49      0.00
   -1    7   13     -0.26      0.00
    1    7   13      0.68      0.00
    3    7   13     -3.57      0.00
    5    7   13     -1.70      0.00
    7    7   13     -0.49      0.00
    9    7   13      0.29      0.00
   11    7   13      7.70      0.00
   13    7   13     -1.18      0.00
   15    7   13      0.69      0.00
   17    7   13     -1.70      0.00
   19    7   13      1.38      0.00
  -22    8   13      0.60      0.00
  -20    8   13      4.66      0.00
  -18    8   13      1.67      0.00
  -16    8   13      0.03      0.00
  -14    8   13      4.95      0.00
  -12    8   13      8.51      0.00
  -10    8   13      1.61      0.00
   -8    8   13     12.11      0.00
   -6    8   13      0.66      0.00
   -4    8   13      6.59      0.00
   -2    8   13      8.83      0.00
    0    8   13      7.02      0.00
    2    8   13      4.08      0.00
    4    8   13      5.32      0.00
    6    8   13      8.19      0.00
    8    8   13     -1.79      0.00
   10    8   13     -0.73      0.00
   12    8   13     -3.00      0.00
   14    8   13     -2.91      0.00
   16    8   13     -2.46      0.00
  -17    9   13     -0.30      0.00
  -15    9   13     -0.71      0.00
  -13    9   13     -8.71      0.00
  -11    9   13      0.00      0.00
   -9    9   13     -5.82      0.00
   -7    9   13    -12.72      0.00
   -5    9   13      1.60      0.00
   -3    9   13     -8.56      0.00
   -1    9   13     -8.30      0.00
    1    9   13     -6.19      0.00
    3    9   13     -1.51      0.00
    5    9   13     -5.70      0.00
    7    9   13     -1.52      0.00
    9    9   13      4.51      0.00
   11    9   13     -2.80      0.00
   13    9   13      1.04      0.00
  -14   10   13     -1.75      0.00
  -12   10   13     -1.09      0.00
  -10   10   13    -10.60      0.00
   -8   10   13      5.71      0.00
   -6   10   13      6.32      0.00
   -4   10   13     -4.33      0.00
   -2   10   13      3.59      0.00
    0   10   13      2.26      0.00
    2   10   13     -4.47      0.00
    4   10   13      0.28      0.00
    6   10   13      5.05      0.00
    8   10   13     -4.20      0.00
   -3   11   13      7.51      0.00
   -1   11   13      2.65      0.00
  -28    0   14      2.19      0.00
  -26    0   14      5.84      0.00
  -24    0   14      6.48      0.00
  -22    0   14      7.50      0.00
  -20    0   14      5.41      0.00
  -18    0   14      5.18      0.00
  -16    0   14      1.93      0.00
  -14    0   14     19.17      0.00
  -12    0   14     -1.39      0.00
  -10    0   14     18.56      0.00
   -8    0   14     -0.52      0.00
   -6    0   14      5.85      0.00
   -4    0   14    -11.74      0.00
   -2    0   14     -2.99      0.00
    0    0   14     -8.47      0.00
    2    0   14    -20.30      0.00
    4    0   14     -3.41      0.00
    6    0   14    -19.73      0.00
    8    0   14    -13.11      0.00
   10    0   14    -11.89      0.00
   12    0   14     -7.84      0.00
   14    0   14    -13.48      0.00
   16    0   14      2.96      0.00
   18    0   14     -6.12      0.00
   20    0   14     -5.45      0.00
   22    0   14     -0.72      0.00
   24    0   14      3.00      0.00
  -29    1   14      0.43      0.00
  -27    1   14     -3.97      0.00
  -25    1   14      0.04      0.00
  -23    1   14     -3.96      0.00
  -21    1   14      0.39      0.00
  -19    1   14     -2.37      0.00
  -17    1   14      1.93      0.00
  -15    1   14     -6.25      0.00
  -13    1   14     -7.03      0.00
  -11    1   14     -5.17      0.00
   -9    1   14    -13.83      0.00
   -7    1   14     -5.45      0.00
   -5    1   14     -4.51      0.00
   -3    1   14      5.84      0.00
   -1    1   14    -12.19      0.00
    1    1   14     10.59      0.00
    3    1   14     -1.73      0.00
    5    1   14      1.75      0.00
    7    1   14      8.36      0.00
    9    1   14      3.78      0.00
   11    1   14      0.64      0.00
   13    1   14      5.17      0.00
   15    1   14      0.27      0.00
   17    1   14      0.43      0.00
   19    1   14      3.58      0.00
   21    1   14      4.01      0.00
   23    1   14     -0.90      0.00
  -28    2   14      2.02      0.00
  -26    2   14     -4.37      0.00
  -24    2   14     -5.40      0.00
  -22    2   14     -5.33      0.00
  -20    2   14     -5.40      0.00
  -18    2   14     -4.19      0.00
  -16    2   14     -2.29      0.00
  -14    2   14     -0.11      0.00
  -12    2   14      5.71      0.00
  -10    2   14      3.50      0.00
   -8    2   14     17.84      0.00
   -6    2   14      8.64      0.00
   -4    2   14      7.27      0.00
   -2    2   14     16.50      0.00
    0    2   14     16.86      0.00
    2    2   14      4.25      0.00
    4    2   14     13.28      0.00
    6    2   14      7.21      0.00
    8    2   14      4.12      0.00
   10    2   14      7.68      0.00
   12    2   14      8.75      0.00
   14    2   14      2.69      0.00
   16    2   14      2.82      0.00
   18    2   14     -0.79      0.00
   20    2   14      0.18      0.00
   22    2   14     -3.05      0.00
   24    2   14     -0.89      0.00
  -29    3   14     -1.19      0.00
  -27    3   14      1.23      0.00
  -25    3   14      4.35      0.00
  -23    3   14      7.04      0.00
  -21    3   14      4.41      0.00
  -19    3   14      6.83      0.00
  -17    3   14      1.57      0.00
  -15    3   14      1.60      0.00
  -13    3   14     -3.05      0.00
  -11    3   14     -1.97      0.00
   -9    3   14     -8.48      0.00
   -7    3   14    -12.22      0.00
   -5    3   14     -3.60      0.00
   -3    3   14    -16.48      0.00
   -1    3   14    -12.42      0.00
    1    3   14    -12.30      0.00
    3    3   14     -1.31      0.00
    5    3   14     -8.75      0.00
    7    3   14     -2.43      0.00
    9    3   14      1.49      0.00
   11    3   14     -6.45      0.00
   13    3   14     -4.15      0.00
   15    3   14     -0.66      0.00
   17    3   14     -2.12      0.00
   19    3   14      0.10      0.00
   21    3   14     -1.73      0.00
   23    3   14      2.01      0.00
  -28    4   14     -0.63      0.00
  -26    4   14      3.49      0.00
  -24    4   14     -4.78      0.00
  -22    4   14     -2.84      0.00
  -20    4   14     -5.29      0.00
  -18    4   14     -1.26      0.00
  -16    4   14      0.49      0.00
  -14    4   14      1.59      0.00
  -12    4   14      2.08      0.00
  -10    4   14      5.64      0.00
   -8    4   14      7.44      0.00
   -6    4   14     -2.20      0.00
   -4    4   14      6.99      0.00
   -2    4   14      5.27      0.00
    0    4   14      4.33      0.00
    2    4   14      3.74      0.00
    4    4   14     -3.59      0.00
    6    4   14     -1.55      0.00
    8    4   14     -7.55      0.00
   10    4   14     -8.25      0.00
   12    4   14     -2.75      0.00
   14    4   14     -1.26      0.00
   16    4   14     -2.19      0.00
   18    4   14      1.16      0.00
   20    4   14     -2.30      0.00
   22    4   14      2.56      0.00
  -27    5   14     -4.53      0.00
  -25    5   14      1.02      0.00
  -23    5   14      8.95      0.00
  -21    5   14      3.60      0.00
  -19    5   14      1.88      0.00
  -17    5   14     -2.88      0.00
  -15    5   14     -3.31      0.00
  -13    5   14      1.37      0.00
  -11    5   14     -3.86      0.00
   -9    5   14     -5.21      0.00
   -7    5   14      0.61      0.00
   -5    5   14      2.68      0.00
   -3    5   14     -4.44      0.00
   -1    5   14      0.80      0.00
    1    5   14     -7.45      0.00
    3    5   14      1.37      0.00
    5    5   14      1.52      0.00
    7    5   14      3.41      0.00
    9    5   14      0.05      0.00
   11    5   14      8.43      0.00
   13    5   14      2.23      0.00
   15    5   14      3.14      0.00
   17    5   14      4.01      0.00
   19    5   14      4.35      0.00
   21    5   14      3.40      0.00
  -24    6   14    -10.35      0.00
  -22    6   14     -5.77      0.00
  -20    6   14     -4.27      0.00
  -18    6   14     -2.41      0.00
  -16    6   14      6.27      0.00
  -14    6   14     -1.91      0.00
  -12    6   14     -1.26      0.00
  -10    6   14      0.37      0.00
   -8    6   14      3.54      0.00
   -6    6   14      0.99      0.00
   -4    6   14      1.73      0.00
   -2    6   14     -0.03      0.00
    0    6   14      5.57      0.00
    2    6   14      5.21      0.00
    4    6   14      1.89      0.00
    6    6   14     -0.49      0.00
    8    6   14      7.96      0.00
   10    6   14      8.03      0.00
   12    6   14     -1.17      0.00
   14    6   14      4.07      0.00
   16    6   14     -2.53      0.00
   18    6   14     -7.85      0.00
   20    6   14     -6.04      0.00
  -23    7   14      1.19      0.00
  -21    7   14      2.09      0.00
  -19    7   14      9.40      0.00
  -17    7   14      0.81      0.00
  -15    7   14      1.61      0.00
  -13    7   14      5.50      0.00
  -11    7   14      2.79      0.00
   -9    7   14      4.73      0.00
   -7    7   14     -6.84      0.00
   -5    7   14     -2.36      0.00
   -3    7   14      1.77      0.00
   -1    7   14     -0.01      0.00
    1    7   14      1.66      0.00
    3    7   14     -8.94      0.00
    5    7   14      4.43      0.00
    7    7   14     -2.00      0.00
    9    7   14     -6.38      0.00
   11    7   14     -4.73      0.00
   13    7   14     -5.81      0.00
   15    7   14     -4.43      0.00
   17    7   14      3.14      0.00
  -20    8   14     -4.41      0.00
  -18    8   14     -2.80      0.00
  -16    8   14     -3.38      0.00
  -14    8   14     -2.67      0.00
  -12    8   14     -1.38      0.00
  -10    8   14     -6.38      0.00
   -8    8   14     -3.91      0.00
   -6    8   14      3.04      0.00
   -4    8   14     -2.50      0.00
   -2    8   14      0.26      0.00
    0    8   14     -9.18      0.00
    2    8   14      0.63      0.00
    4    8   14     -0.23      0.00
    6    8   14     -4.20      0.00
    8    8   14     -1.94      0.00
   10    8   14     -2.64      0.00
   12    8   14      1.03      0.00
   14    8   14      1.16      0.00
   16    8   14     -0.07      0.00
  -17    9   14     -1.00      0.00
  -15    9   14     -1.41      0.00
  -13    9   14    -10.25      0.00
  -11    9   14      2.30      0.00
   -9    9   14      0.07      0.00
   -7    9   14      5.52      0.00
   -5    9   14      2.54      0.00
   -3    9   14     -2.24      0.00
   -1    9   14      4.09      0.00
    1    9   14      2.40      0.00
    3    9   14      1.45      0.00
    5    9   14      3.58      0.00
    7    9   14     -0.02      0.00
    9    9   14      2.05      0.00
   11    9   14      1.39      0.00
  -12   10   14      3.59      0.00
  -10   10   14      0.29      0.00
   -8   10   14      3.88      0.00
   -6   10   14     -4.37      0.00
   -4   10   14      2.97      0.00
   -2   10   14      2.63      0.00
    0   10   14      2.34      0.00
    2   10   14      6.22      0.00
    4   10   14     -2.02      0.00
    6   10   14     -2.01      0.00
    8   10   14      3.72      0.00
  -29    1   15      2.28      0.00
  -27    1   15     -2.39      0.00
  -25    1   15     -3.87      0.00
  -23    1   15     -4.63      0.00
  -21    1   15     -3.15      0.00
  -19    1   15     -3.61      0.00
  -17    1   15      4.68      0.00
  -15    1   15     -6.21      0.00
  -13    1   15     -6.29      0.00
  -11    1   15     -5.88      0.00
   -9    1   15    -10.79      0.00
   -7    1   15     -3.44      0.00
   -5    1   15     -6.36      0.00
   -3    1   15    -15.56      0.00
   -1    1   15     -1.37      0.00
    1    1   15     -9.54      0.00
    3    1   15     -5.31      0.00
    5    1   15      0.94      0.00
    7    1   15     -6.23      0.00
    9    1   15      1.26      0.00
   11    1   15     -1.72      0.00
   13    1   15     -3.82      0.00
   15    1   15     -7.36      0.00
   17    1   15     -4.13      0.00
   19    1   15     -9.49      0.00
   21    1   15     -6.09      0.00
   23    1   15     -9.53      0.00
  -28    2   15     -2.91      0.00
  -26    2   15      1.22      0.00
  -24    2   15      1.74      0.00
  -22    2   15      5.11      0.00
  -20    2   15      4.44      0.00
  -18    2   15      0.66      0.00
  -16    2   15     -1.68      0.00
  -14    2   15      8.04      0.00
  -12    2   15      5.66      0.00
  -10    2   15     13.37      0.00
   -8    2   15     10.45      0.00
   -6    2   15      4.74      0.00
   -4    2   15     17.16      0.00
   -2    2   15     10.12      0.00
    0    2   15      5.69      0.00
    2    2   15     12.44      0.00
    4    2   15      1.71      0.00
    6    2   15      4.71      0.00
    8    2   15      2.47      0.00
   10    2   15      1.93      0.00
   12    2   15      0.99      0.00
   14    2   15      4.98      0.00
   16    2   15      2.46      0.00
   18    2   15      3.50      0.00
   20    2   15      7.51      0.00
   22    2   15      3.46      0.00
  -29    3   15      6.94      0.00
  -27    3   15      1.47      0.00
  -25    3   15      1.79      0.00
  -23    3   15      1.30      0.00
  -21    3   15     -3.09      0.00
  -19    3   15     -0.76      0.00
  -17    3   15     -2.23      0.00
  -15    3   15      0.25      0.00
  -13    3   15     -4.47      0.00
  -11    3   15     -4.59      0.00
   -9    3   15     -8.46      0.00
   -7    3   15     -4.19      0.00
   -5    3   15     -6.66      0.00
   -3    3   15    -11.22      0.00
   -1    3   15     -4.20      0.00
    1    3   15     -6.68      0.00
    3    3   15     -1.97      0.00
    5    3   15     -3.06      0.00
    7    3   15     -2.74      0.00
    9    3   15      0.00      0.00
   11    3   15     -1.47      0.00
   13    3   15      0.23      0.00
   15    3   15      1.46      0.00
   17    3   15      0.93      0.00
   19    3   15      0.72      0.00
   21    3   15     -0.66      0.00
   23    3   15      2.23      0.00
  -28    4   15     -4.85      0.00
  -26    4   15      0.51      0.00
  -24    4   15     -0.98      0.00
  -22    4   15     -4.30      0.00
  -20    4   15     -3.54      0.00
  -18    4   15     -2.98      0.00
  -16    4   15     -0.36      0.00
  -14    4   15     -5.46      0.00
  -12    4   15     -0.29      0.00
  -10    4   15     -6.51      0.00
   -8    4   15      1.95      0.00
   -6    4   15     -5.86      0.00
   -4    4   15      1.41      0.00
   -2    4   15     -0.51      0.00
    0    4   15      2.22      0.00
    2    4   15     -1.64      0.00
    4    4   15     -2.83      0.00
    6    4   15      2.56      0.00
    8    4   15     -4.71      0.00
   10    4   15     -3.36      0.00
   12    4   15     -0.63      0.00
   14    4   15     -2.38      0.00
   16    4   15     -4.40      0.00
   18    4   15     -1.86      0.00
   20    4   15     -2.61      0.00
   22    4   15     -4.04      0.00
  -27    5   15      0.77      0.00
  -25    5   15     -6.08      0.00
  -23    5   15      1.76      0.00
  -21    5   15      6.19      0.00
  -19    5   15      7.66      0.00
  -17    5   15      5.43      0.00
  -15    5   15     10.45      0.00
  -13    5   15      6.20      0.00
  -11    5   15     11.93      0.00
   -9    5   15      5.67      0.00
   -7    5   15     10.04      0.00
   -5    5   15      6.66      0.00
   -3    5   15      7.54      0.00
   -1    5   15      1.06      0.00
    1    5   15      4.01      0.00
    3    5   15      5.57      0.00
    5    5   15      2.02      0.00
    7    5   15      3.59      0.00
    9    5   15     10.69      0.00
   11    5   15      3.60      0.00
   13    5   15      2.63      0.00
   15    5   15      4.69      0.00
   17    5   15      2.67      0.00
   19    5   15     -0.61      0.00
   21    5   15      2.24      0.00
  -24    6   15      1.14      0.00
  -22    6   15     -5.20      0.00
  -20    6   15     -4.38      0.00
  -18    6   15     -4.77      0.00
  -16    6   15     -8.56      0.00
  -14    6   15     -5.52      0.00
  -12    6   15     -8.18      0.00
  -10    6   15     -4.01      0.00
   -8    6   15     -7.59      0.00
   -6    6   15     -4.40      0.00
   -4    6   15     -3.65      0.00
   -2    6   15     -2.01      0.00
    0    6   15     -0.67      0.00
    2    6   15     -9.58      0.00
    4    6   15     -5.00      0.00
    6    6   15     -1.54      0.00
    8    6   15    -10.07      0.00
   10    6   15     -6.99      0.00
   12    6   15     -4.00      0.00
   14    6   15     -7.35      0.00
   16    6   15     -2.82      0.00
   18    6   15      2.67      0.00
  -23    7   15      3.71      0.00
  -21    7   15      3.29      0.00
  -19    7   15      0.41      0.00
  -17    7   15      1.21      0.00
  -15    7   15     -0.42      0.00
  -13    7   15      1.72      0.00
  -11    7   15     -2.02      0.00
   -9    7   15     -1.93      0.00
   -7    7   15     -3.88      0.00
   -5    7   15     -6.31      0.00
   -3    7   15     -0.99      0.00
   -1    7   15     -7.90      0.00
    1    7   15      1.14      0.00
    3    7   15      1.30      0.00
    5    7   15      2.10      0.00
    7    7   15      0.75      0.00
    9    7   15      7.10      0.00
   11    7   15     -0.68      0.00
   13    7   15      6.88      0.00
   15    7   15      4.77      0.00
   17    7   15      0.46      0.00
  -20    8   15     -1.86      0.00
  -18    8   15      1.72      0.00
  -16    8   15      3.57      0.00
  -14    8   15      4.00      0.00
  -12    8   15      2.24      0.00
  -10    8   15      8.07      0.00
   -8    8   15      7.34      0.00
   -6    8   15     15.45      0.00
   -4    8   15      3.53      0.00
   -2    8   15      7.11      0.00
    0    8   15      7.08      0.00
    2    8   15      9.43      0.00
    4    8   15      3.20      0.00
    6    8   15     -0.30      0.00
    8    8   15      0.39      0.00
   10    8   15      1.67      0.00
   12    8   15      2.40      0.00
   14    8   15      0.27      0.00
  -17    9   15     -0.95      0.00
  -15    9   15     -5.88      0.00
  -13    9   15     -2.89      0.00
  -11    9   15     -4.37      0.00
   -9    9   15     -2.95      0.00
   -7    9   15     -7.36      0.00
   -5    9   15     -6.94      0.00
   -3    9   15     -5.61      0.00
   -1    9   15      1.06      0.00
    1    9   15    -10.31      0.00
    3    9   15     -7.94      0.00
    5    9   15     -0.55      0.00
    7    9   15      0.34      0.00
    9    9   15     -4.45      0.00
   11    9   15     -2.56      0.00
  -12   10   15     -0.14      0.00
  -10   10   15     -1.51      0.00
   -8   10   15     -4.36      0.00
   -6   10   15     -3.14      0.00
   -4   10   15      6.77      0.00
   -2   10   15     -2.49      0.00
    0   10   15     -0.78      0.00
    2   10   15     11.13      0.00
    4   10   15      3.61      0.00
    6   10   15     -1.68      0.00
  -28    0   16     -1.15      0.00
  -26    0   16      0.98      0.00
  -24    0   16     -3.88      0.00
  -22    0   16     -2.22      0.00
  -20    0   16      0.29      0.00
  -18    0   16     -0.84      0.00
  -16    0   16      6.22      0.00
  -14    0   16     -6.40      0.00
  -12    0   16     11.36      0.00
  -10    0   16      0.15      0.00
   -8    0   16     -1.22      0.00
   -6    0   16    -10.21      0.00
   -4    0   16      4.35      0.00
   -2    0   16    -19.09      0.00
    0    0   16     -4.03      0.00
    2    0   16     -5.65      0.00
    4    0   16    -14.86      0.00
    6    0   16     -4.37      0.00
    8    0   16     -9.28      0.00
   10    0   16     -7.79      0.00
   12    0   16    -10.44      0.00
   16    0   16     -7.86      0.00
   18    0   16     -5.28      0.00
   20    0   16     -0.92      0.00
   22    0   16     -4.09      0.00
  -29    1   16     -3.15      0.00
  -27    1   16     -0.24      0.00
  -25    1   16     -1.90      0.00
  -23    1   16      4.74      0.00
  -21    1   16     -0.01      0.00
  -19    1   16      2.80      0.00
  -17    1   16     -4.07      0.00
  -15    1   16     -0.12      0.00
  -13    1   16     -3.89      0.00
  -11    1   16     -6.42      0.00
   -9    1   16     -0.93      0.00
   -7    1   16      6.00      0.00
   -5    1   16      0.01      0.00
   -3    1   16     -1.74      0.00
   -1    1   16     16.42      0.00
    1    1   16     -3.82      0.00
    3    1   16      9.30      0.00
    5    1   16      3.62      0.00
    7    1   16      2.93      0.00
    9    1   16      2.51      0.00
   11    1   16      4.05      0.00
   13    1   16     -2.25      0.00
   15    1   16     -1.36      0.00
   17    1   16      2.25      0.00
   19    1   16      1.24      0.00
   21    1   16     -0.73      0.00
   23    1   16      5.33      0.00
  -28    2   16      0.90      0.00
  -26    2   16      2.18      0.00
  -24    2   16      2.17      0.00
  -22    2   16     -0.39      0.00
  -20    2   16      1.43      0.00
  -18    2   16      1.72      0.00
  -16    2   16      3.79      0.00
  -14    2   16      3.13      0.00
  -12    2   16      5.09      0.00
  -10    2   16      4.15      0.00
   -8    2   16      1.26      0.00
   -6    2   16     -3.78      0.00
   -4    2   16      9.46      0.00
   -2    2   16     -1.32      0.00
    0    2   16     -5.02      0.00
    2    2   16      6.76      0.00
    4    2   16     -0.98      0.00
    6    2   16      1.80      0.00
    8    2   16      3.10      0.00
   10    2   16      5.03      0.00
   12    2   16      3.12      0.00
   14    2   16      7.50      0.00
   16    2   16      3.66      0.00
   18    2   16      3.44      0.00
   20    2   16      1.15      0.00
   22    2   16      1.23      0.00
  -27    3   16      0.68      0.00
  -25    3   16     -0.72      0.00
  -23    3   16     -5.59      0.00
  -21    3   16     -3.46      0.00
  -19    3   16     -8.31      0.00
  -17    3   16     -3.52      0.00
  -15    3   16     -5.07      0.00
  -13    3   16     -3.31      0.00
  -11    3   16     -6.83      0.00
   -9    3   16     -5.68      0.00
   -7    3   16     -3.28      0.00
   -5    3   16     -3.24      0.00
   -3    3   16     -6.38      0.00
   -1    3   16     -2.89      0.00
    1    3   16      0.71      0.00
    3    3   16     -6.51      0.00
    5    3   16      1.62      0.00
    7    3   16     -2.20      0.00
    9    3   16     -4.27      0.00
   11    3   16     -0.34      0.00
   13    3   16     -0.21      0.00
   15    3   16     -5.40      0.00
   17    3   16     -0.12      0.00
   19    3   16     -4.39      0.00
   21    3   16      0.32      0.00
  -26    4   16     -6.34      0.00
  -24    4   16      4.47      0.00
  -22    4   16      1.79      0.00
  -20    4   16      7.27      0.00
  -18    4   16      6.43      0.00
  -16    4   16      5.26      0.00
  -14    4   16      8.33      0.00
  -12    4   16      6.95      0.00
  -10    4   16      8.58      0.00
   -8    4   16      4.86      0.00
   -6    4   16     10.23      0.00
   -4    4   16      0.35      0.00
   -2    4   16      9.53      0.00
    0    4   16     -0.38      0.00
    2    4   16     -0.97      0.00
    4    4   16     -0.31      0.00
    6    4   16     -0.33      0.00
    8    4   16     -1.81      0.00
   10    4   16     -1.86      0.00
   12    4   16     -2.70      0.00
   14    4   16     -2.43      0.00
   16    4   16     -1.19      0.00
   18    4   16     -1.65      0.00
   20    4   16      4.38      0.00
  -25    5   16      2.79      0.00
  -23    5   16     -6.24      0.00
  -21    5   16      1.11      0.00
  -19    5   16     -5.45      0.00
  -17    5   16     -4.83      0.00
  -15    5   16     -5.91      0.00
  -13    5   16     -9.78      0.00
  -11    5   16     -5.71      0.00
   -9    5   16      0.45      0.00
   -7    5   16     -6.18      0.00
   -5    5   16     -3.87      0.00
   -3    5   16     -1.54      0.00
   -1    5   16     -6.53      0.00
    1    5   16      4.04      0.00
    3    5   16     -1.23      0.00
    5    5   16      1.18      0.00
    7    5   16      0.47      0.00
    9    5   16      7.55      0.00
   11    5   16     -3.71      0.00
   13    5   16      2.23      0.00
   15    5   16      5.39      0.00
   17    5   16      5.26      0.00
   19    5   16     -3.90      0.00
  -24    6   16      3.47      0.00
  -22    6   16      2.77      0.00
  -20    6   16      0.42      0.00
  -18    6   16      8.44      0.00
  -16    6   16     -3.03      0.00
  -14    6   16      6.08      0.00
  -12    6   16      3.72      0.00
  -10    6   16     -0.02      0.00
   -8    6   16     -3.80      0.00
   -6    6   16      1.62      0.00
   -4    6   16     -3.26      0.00
   -2    6   16      4.70      0.00
    0    6   16     -3.48      0.00
    2    6   16     -0.28      0.00
    4    6   16     -1.31      0.00
    6    6   16      0.98      0.00
    8    6   16     -2.83      0.00
   10    6   16      1.45      0.00
   12    6   16      4.71      0.00
   14    6   16     -3.13      0.00
   16    6   16     -7.74      0.00
   18    6   16      1.39      0.00
  -23    7   16      5.74      0.00
  -21    7   16     -4.35      0.00
  -19    7   16     -8.67      0.00
  -17    7   16      2.25      0.00
  -15    7   16      2.81      0.00
  -13    7   16      0.27      0.00
  -11    7   16      1.71      0.00
   -9    7   16     -0.24      0.00
   -7    7   16      3.01      0.00
   -5    7   16      7.09      0.00
   -3    7   16     -0.98      0.00
   -1    7   16      5.18      0.00
    1    7   16      1.33      0.00
    3    7   16      7.66      0.00
    5    7   16      0.18      0.00
    7    7   16      1.06      0.00
    9    7   16     -0.43      0.00
   11    7   16      1.11      0.00
   13    7   16      2.97      0.00
   15    7   16      4.76      0.00
  -20    8   16     10.12      0.00
  -18    8   16     -1.90      0.00
  -16    8   16     -3.50      0.00
  -14    8   16     -4.83      0.00
  -12    8   16     -7.89      0.00
  -10    8   16     -0.12      0.00
   -8    8   16      1.86      0.00
   -6    8   16     -4.66      0.00
   -4    8   16     -5.39      0.00
   -2    8   16     -4.12      0.00
    0    8   16      2.73      0.00
    2    8   16     -3.69      0.00
    4    8   16     -2.95      0.00
    6    8   16     -2.66      0.00
    8    8   16     -3.24      0.00
   10    8   16     -5.91      0.00
   12    8   16     -8.46      0.00
   14    8   16     -5.19      0.00
  -15    9   16      0.84      0.00
  -13    9   16      6.10      0.00
  -11    9   16      1.60      0.00
   -9    9   16     -5.25      0.00
   -7    9   16     -3.14      0.00
   -5    9   16     -0.41      0.00
   -3    9   16      6.76      0.00
   -1    9   16     -6.48      0.00
    1    9   16     -4.36      0.00
    3    9   16      1.96      0.00
    5    9   16     -2.45      0.00
    7    9   16      6.12      0.00
    9    9   16      4.38      0.00
  -10   10   16      2.64      0.00
   -8   10   16      6.23      0.00
   -6   10   16      3.29      0.00
   -4   10   16      3.41      0.00
   -2   10   16      0.80      0.00
    0   10   16      9.41      0.00
    2   10   16     -1.12      0.00
    4   10   16      0.93      0.00
  -29    1   17     -1.76      0.00
  -27    1   17      1.18      0.00
  -25    1   17     -1.32      0.00
  -23    1   17      0.34      0.00
  -21    1   17     -1.35      0.00
  -19    1   17     -0.41      0.00
  -17    1   17     -4.03      0.00
  -15    1   17      0.08      0.00
  -13    1   17      4.50      0.00
  -11    1   17     -1.77      0.00
   -9    1   17      7.06      0.00
   -7    1   17      4.60      0.00
   -5    1   17     -1.26      0.00
   -3    1   17      9.54      0.00
   -1    1   17     -4.81      0.00
    1    1   17      3.03      0.00
    3    1   17      1.00      0.00
    5    1   17     -4.34      0.00
    7    1   17      6.57      0.00
    9    1   17      1.25      0.00
   11    1   17      2.18      0.00
   13    1   17      3.49      0.00
   15    1   17      4.27      0.00
   17    1   17     -4.83      0.00
   19    1   17      0.35      0.00
   21    1   17      1.35      0.00
  -28    2   17      1.93      0.00
  -26    2   17     -0.41      0.00
  -24    2   17      0.00      0.00
  -22    2   17     -3.65      0.00
  -20    2   17     -2.56      0.00
  -18    2   17     -1.63      0.00
  -16    2   17      1.59      0.00
  -14    2   17     -5.24      0.00
  -12    2   17     -4.17      0.00
  -10    2   17     -3.63      0.00
   -8    2   17    -10.32      0.00
   -6    2   17      4.02      0.00
   -4    2   17     -9.31      0.00
   -2    2   17     -1.32      0.00
    0    2   17     -3.52      0.00
    2    2   17     -7.20      0.00
    4    2   17      1.37      0.00
    6    2   17     -6.70      0.00
    8    2   17     -2.51      0.00
   10    2   17     -1.60      0.00
   12    2   17      0.39      0.00
   14    2   17     -3.16      0.00
   16    2   17     -0.15      0.00
   18    2   17      6.62      0.00
   20    2   17     -4.09      0.00
   22    2   17      0.45      0.00
  -27    3   17     -2.87      0.00
  -25    3   17      2.53      0.00
  -23    3   17     -0.23      0.00
  -21    3   17      7.05      0.00
  -19    3   17      6.74      0.00
  -17    3   17      5.83      0.00
  -15    3   17      3.86      0.00
  -13    3   17      4.85      0.00
  -11    3   17      1.58      0.00
   -9    3   17      5.41      0.00
   -7    3   17     -1.93      0.00
   -5    3   17     -0.08      0.00
   -3    3   17      2.14      0.00
   -1    3   17      2.59      0.00
    1    3   17      8.71      0.00
    3    3   17      1.34      0.00
    5    3   17     10.04      0.00
    7    3   17      4.29      0.00
    9    3   17      0.57      0.00
   11    3   17      0.04      0.00
   13    3   17     -0.15      0.00
   15    3   17     -0.96      0.00
   17    3   17     -2.31      0.00
   19    3   17     -1.81      0.00
   21    3   17      0.06      0.00
  -26    4   17     -3.37      0.00
  -24    4   17     -2.87      0.00
  -22    4   17     -3.06      0.00
  -20    4   17     -7.13      0.00
  -18    4   17     -9.28      0.00
  -16    4   17     -6.75      0.00
  -14    4   17     -1.07      0.00
  -12    4   17      4.38      0.00
  -10    4   17      7.25      0.00
   -8    4   17      5.49      0.00
   -6    4   17      7.28      0.00
   -4    4   17      4.99      0.00
   -2    4   17      2.93      0.00
    0    4   17     -5.02      0.00
    2    4   17      1.20      0.00
    4    4   17     -3.75      0.00
    6    4   17     -7.70      0.00
    8    4   17     -0.62      0.00
   10    4   17     -1.22      0.00
   12    4   17     -2.19      0.00
   14    4   17     -1.99      0.00
   16    4   17      1.97      0.00
   18    4   17     -5.57      0.00
   20    4   17      0.81      0.00
  -25    5   17      4.72      0.00
  -23    5   17      4.79      0.00
  -21    5   17      2.27      0.00
  -19    5   17      3.17      0.00
  -17    5   17      4.72      0.00
  -15    5   17     -1.97      0.00
  -13    5   17     -5.21      0.00
  -11    5   17    -13.32      0.00
   -9    5   17    -12.16      0.00
   -7    5   17    -12.26      0.00
   -5    5   17     -7.37      0.00
   -3    5   17     -9.68      0.00
   -1    5   17      1.09      0.00
    1    5   17     -4.89      0.00
    3    5   17     -4.73      0.00
    5    5   17      0.84      0.00
    7    5   17      4.67      0.00
    9    5   17      0.37      0.00
   11    5   17      2.68      0.00
   13    5   17      2.98      0.00
   15    5   17      1.27      0.00
   17    5   17      3.53      0.00
   19    5   17      8.36      0.00
  -24    6   17     -0.27      0.00
  -22    6   17     -1.08      0.00
  -20    6   17      1.17      0.00
  -18    6   17      2.12      0.00
  -16    6   17      4.43      0.00
  -14    6   17      3.78      0.00
  -12    6   17      6.28      0.00
  -10    6   17      5.54      0.00
   -8    6   17     11.58      0.00
   -6    6   17      3.70      0.00
   -4    6   17      8.22      0.00
   -2    6   17      1.71      0.00
    0    6   17      3.15      0.00
    2    6   17      8.42      0.00
    4    6   17      4.23      0.00
    6    6   17     -3.45      0.00
    8    6   17     -1.92      0.00
   10    6   17     -1.89      0.00
   12    6   17     -1.30      0.00
   14    6   17     -0.24      0.00
   16    6   17      0.42      0.00
   18    6   17     -3.67      0.00
  -21    7   17     -0.87      0.00
  -19    7   17     -4.06      0.00
  -17    7   17     -3.16      0.00
  -15    7   17     -3.47      0.00
  -13    7   17     -0.63      0.00
  -11    7   17      2.73      0.00
   -9    7   17     -2.06      0.00
   -7    7   17     -1.43      0.00
   -5    7   17     -0.89      0.00
   -3    7   17     -7.87      0.00
   -1    7   17      2.43      0.00
    1    7   17     -5.45      0.00
    3    7   17     -1.97      0.00
    5    7   17     -1.49      0.00
    7    7   17      1.10      0.00
    9    7   17     -4.32      0.00
   11    7   17      2.15      0.00
   13    7   17     -2.49      0.00
   15    7   17     -1.90      0.00
  -18    8   17      0.43      0.00
  -16    8   17      1.06      0.00
  -14    8   17     -3.26      0.00
  -12    8   17     -3.74      0.00
  -10    8   17     -2.00      0.00
   -8    8   17     -0.50      0.00
   -6    8   17     -3.22      0.00
   -4    8   17      7.72      0.00
   -2    8   17      2.64      0.00
    0    8   17      0.36      0.00
    2    8   17     -3.62      0.00
    4    8   17      0.25      0.00
    6    8   17     -0.69      0.00
    8    8   17      5.41      0.00
   10    8   17      1.82      0.00
   12    8   17      0.78      0.00
  -15    9   17      3.01      0.00
  -13    9   17      4.19      0.00
  -11    9   17     -0.69      0.00
   -9    9   17     -3.14      0.00
   -7    9   17      5.02      0.00
   -5    9   17     -4.90      0.00
   -3    9   17      2.30      0.00
   -1    9   17     -8.70      0.00
    1    9   17      4.20      0.00
    3    9   17      2.36      0.00
    5    9   17      0.99      0.00
    7    9   17      0.33      0.00
    9    9   17      0.66      0.00
   -8   10   17      0.53      0.00
   -6   10   17      2.79      0.00
   -4   10   17     -4.72      0.00
   -2   10   17      1.96      0.00
    0   10   17      7.80      0.00
    2   10   17     -3.70      0.00
  -28    0   18     -2.71      0.00
  -26    0   18     -6.42      0.00
  -24    0   18     -1.84      0.00
  -22    0   18      0.25      0.00
  -20    0   18     -0.04      0.00
  -18    0   18     -1.16      0.00
  -16    0   18     -2.93      0.00
  -14    0   18     -0.20      0.00
  -12    0   18     -6.27      0.00
  -10    0   18     -7.53      0.00
   -8    0   18     -0.09      0.00
   -6    0   18     -2.15      0.00
   -4    0   18     -8.43      0.00
   -2    0   18      2.45      0.00
    0    0   18    -18.64      0.00
    2    0   18     -6.58      0.00
    4    0   18     -7.43      0.00
    6    0   18     -7.64      0.00
    8    0   18     -2.36      0.00
   10    0   18     -4.24      0.00
   12    0   18      1.35      0.00
   14    0   18    -11.26      0.00
   16    0   18    -10.79      0.00
   18    0   18     -3.04      0.00
   20    0   18     -8.15      0.00
   22    0   18     -6.43      0.00
  -27    1   18     -0.19      0.00
  -25    1   18      3.48      0.00
  -23    1   18     -2.48      0.00
  -21    1   18      0.16      0.00
  -19    1   18     -2.69      0.00
  -17    1   18      2.03      0.00
  -15    1   18     -3.97      0.00
  -13    1   18      0.78      0.00
  -11    1   18      2.03      0.00
   -9    1   18      2.63      0.00
   -7    1   18     -1.70      0.00
   -5    1   18      6.07      0.00
   -3    1   18      2.81      0.00
   -1    1   18      1.54      0.00
    1    1   18     10.38      0.00
    3    1   18      2.49      0.00
    5    1   18      6.02      0.00
    7    1   18     -0.27      0.00
    9    1   18      0.52      0.00
   11    1   18     -2.02      0.00
   13    1   18      0.91      0.00
   15    1   18      7.87      0.00
   17    1   18      3.26      0.00
   19    1   18      0.49      0.00
   21    1   18      4.93      0.00
  -28    2   18      3.62      0.00
  -26    2   18      2.52      0.00
  -24    2   18      1.93      0.00
  -22    2   18      3.89      0.00
  -20    2   18      3.48      0.00
  -18    2   18      4.89      0.00
  -16    2   18      4.78      0.00
  -14    2   18     10.58      0.00
  -12    2   18      1.95      0.00
  -10    2   18      5.68      0.00
   -8    2   18     -2.82      0.00
   -6    2   18      2.77      0.00
   -4    2   18     -6.57      0.00
   -2    2   18      2.35      0.00
    0    2   18      4.32      0.00
    2    2   18     -2.62      0.00
    4    2   18      1.89      0.00
    6    2   18      1.41      0.00
    8    2   18      6.01      0.00
   10    2   18      2.89      0.00
   12    2   18      7.15      0.00
   14    2   18     -0.18      0.00
   16    2   18      1.00      0.00
   18    2   18      2.00      0.00
   20    2   18      3.25      0.00
  -27    3   18     -1.55      0.00
  -25    3   18     -1.90      0.00
  -23    3   18     -3.10      0.00
  -21    3   18     -2.94      0.00
  -19    3   18     -4.07      0.00
  -17    3   18     -4.94      0.00
  -15    3   18     -7.91      0.00
  -13    3   18     -5.15      0.00
  -11    3   18     -3.73      0.00
   -9    3   18      1.44      0.00
   -7    3   18      1.32      0.00
   -5    3   18     -0.11      0.00
   -3    3   18      2.99      0.00
   -1    3   18     -2.59      0.00
    1    3   18     -2.79      0.00
    3    3   18     -0.64      0.00
    5    3   18     -4.30      0.00
    7    3   18     -3.67      0.00
    9    3   18     -3.99      0.00
   11    3   18     -5.58      0.00
   13    3   18     -5.78      0.00
   15    3   18     -0.27      0.00
   17    3   18     -4.21      0.00
   19    3   18     -0.01      0.00
  -26    4   18      0.62      0.00
  -24    4   18     -2.82      0.00
  -22    4   18      2.78      0.00
  -20    4   18     -2.96      0.00
  -18    4   18      1.81      0.00
  -16    4   18      0.80      0.00
  -14    4   18     -1.33      0.00
  -12    4   18      0.15      0.00
  -10    4   18     -2.35      0.00
   -8    4   18     -2.77      0.00
   -6    4   18     -3.15      0.00
   -4    4   18      0.08      0.00
   -2    4   18     -8.92      0.00
    0    4   18     -0.66      0.00
    2    4   18     -1.40      0.00
    4    4   18      0.26      0.00
    6    4   18      3.70      0.00
    8    4   18      3.64      0.00
   10    4   18      2.87      0.00
   12    4   18      1.57      0.00
   14    4   18      1.06      0.00
   16    4   18      1.95      0.00
   18    4   18     -1.25      0.00
  -25    5   18      0.63      0.00
  -23    5   18      3.49      0.00
  -21    5   18     -2.69      0.00
  -19    5   18      4.73      0.00
  -17    5   18      0.80      0.00
  -15    5   18      4.66      0.00
  -13    5   18      3.06      0.00
  -11    5   18      4.24      0.00
   -9    5   18     -3.05      0.00
   -7    5   18      4.78      0.00
   -5    5   18      0.55      0.00
   -3    5   18      5.93      0.00
   -1    5   18      6.14      0.00
    1    5   18      0.47      0.00
    3    5   18      5.84      0.00
    5    5   18     -0.41      0.00
    7    5   18     -2.93      0.00
    9    5   18     -5.91      0.00
   11    5   18      2.77      0.00
   13    5   18      2.00      0.00
   15    5   18     -0.84      0.00
   17    5   18     -0.05      0.00
  -24    6   18      2.83      0.00
  -22    6   18      0.82      0.00
  -20    6   18      4.81      0.00
  -18    6   18     -8.11      0.00
  -16    6   18      3.24      0.00
  -14    6   18     -1.61      0.00
  -12    6   18     -1.45      0.00
  -10    6   18      1.92      0.00
   -8    6   18      3.93      0.00
   -6    6   18     -2.80      0.00
   -4    6   18      2.53      0.00
   -2    6   18     -4.29      0.00
    0    6   18      4.32      0.00
    2    6   18     -7.40      0.00
    4    6   18     -1.91      0.00
    6    6   18     -2.10      0.00
    8    6   18      4.27      0.00
   10    6   18      3.23      0.00
   12    6   18     -0.68      0.00
   14    6   18      0.08      0.00
   16    6   18      2.96      0.00
  -21    7   18     -0.61      0.00
  -19    7   18      4.63      0.00
  -17    7   18     -1.38      0.00
  -15    7   18     -4.44      0.00
  -13    7   18     -2.45      0.00
  -11    7   18     -0.57      0.00
   -9    7   18     -3.82      0.00
   -7    7   18      3.15      0.00
   -5    7   18     -6.02      0.00
   -3    7   18      0.85      0.00
   -1    7   18     -5.47      0.00
    1    7   18      2.65      0.00
    3    7   18      3.10      0.00
    5    7   18     -1.38      0.00
    7    7   18      0.49      0.00
    9    7   18     -3.20      0.00
   11    7   18     -4.44      0.00
   13    7   18     -0.40      0.00
  -18    8   18      0.35      0.00
  -16    8   18      1.49      0.00
  -14    8   18     -2.12      0.00
  -12    8   18      0.30      0.00
  -10    8   18     -2.78      0.00
   -8    8   18     -1.87      0.00
   -6    8   18     -1.28      0.00
   -4    8   18      4.75      0.00
   -2    8   18      4.97      0.00
    0    8   18     -2.09      0.00
    2    8   18      1.61      0.00
    4    8   18      0.24      0.00
    6    8   18      6.24      0.00
    8    8   18      1.92      0.00
   10    8   18      3.31      0.00
  -13    9   18      7.15      0.00
  -11    9   18      0.76      0.00
   -9    9   18      6.53      0.00
   -7    9   18     -1.85      0.00
   -5    9   18      2.05      0.00
   -3    9   18     -8.94      0.00
   -1    9   18      2.12      0.00
    1    9   18      2.17      0.00
    3    9   18     -4.03      0.00
    5    9   18      3.54      0.00
    7    9   18     -8.32      0.00
   -4   10   18     -2.54      0.00
  -27    1   19     -0.94      0.00
  -25    1   19      3.58      0.00
  -23    1   19     -0.72      0.00
  -21    1   19      1.28      0.00
  -19    1   19      2.66      0.00
  -17    1   19      0.38      0.00
  -15    1   19      2.29      0.00
  -13    1   19     -4.38      0.00
  -11    1   19      2.67      0.00
   -9    1   19     -5.87      0.00
   -7    1   19     -4.14      0.00
   -5    1   19     -2.97      0.00
   -3    1   19     -1.80      0.00
   -1    1   19      3.47      0.00
    1    1   19     -2.08      0.00
    3    1   19     -1.70      0.00
    5    1   19      0.93      0.00
    7    1   19     -3.37      0.00
    9    1   19     -2.82      0.00
   11    1   19     -0.93      0.00
   13    1   19     -3.26      0.00
   15    1   19     -5.14      0.00
   17    1   19      5.51      0.00
   19    1   19      3.87      0.00
   21    1   19     -1.87      0.00
  -28    2   19     -0.77      0.00
  -26    2   19     -0.47      0.00
  -24    2   19     -3.89      0.00
  -22    2   19     -0.37      0.00
  -20    2   19     -1.40      0.00
  -18    2   19     -0.02      0.00
  -16    2   19      1.28      0.00
  -14    2   19      1.74      0.00
  -12    2   19      5.35      0.00
  -10    2   19      1.54      0.00
   -8    2   19      9.85      0.00
   -6    2   19     -0.36      0.00
   -4    2   19      8.51      0.00
   -2    2   19     -6.59      0.00
    0    2   19      3.15      0.00
    2    2   19      0.49      0.00
    4    2   19     -1.83      0.00
    6    2   19      6.78      0.00
    8    2   19      4.18      0.00
   10    2   19      2.81      0.00
   12    2   19      1.89      0.00
   14    2   19      4.11      0.00
   16    2   19      3.29      0.00
   18    2   19     -6.79      0.00
   20    2   19      2.06      0.00
  -27    3   19     -1.33      0.00
  -25    3   19     -3.23      0.00
  -23    3   19      3.55      0.00
  -21    3   19     -3.08      0.00
  -19    3   19     -4.89      0.00
  -17    3   19     -5.72      0.00
  -15    3   19     -4.77      0.00
  -13    3   19     -4.29      0.00
  -11    3   19     -1.59      0.00
   -9    3   19     -6.35      0.00
   -7    3   19      0.48      0.00
   -5    3   19     -5.22      0.00
   -3    3   19     -1.56      0.00
   -1    3   19     -2.75      0.00
    1    3   19     -4.13      0.00
    3    3   19      5.42      0.00
    5    3   19     -5.17      0.00
    7    3   19     -4.25      0.00
    9    3   19     -0.11      0.00
   11    3   19     -0.65      0.00
   13    3   19     -1.39      0.00
   15    3   19     -4.32      0.00
   17    3   19     -3.02      0.00
   19    3   19     -4.48      0.00
  -26    4   19      3.73      0.00
  -24    4   19      0.06      0.00
  -22    4   19     -0.28      0.00
  -20    4   19      6.30      0.00
  -18    4   19      6.28      0.00
  -16    4   19      5.24      0.00
  -14    4   19      2.53      0.00
  -12    4   19     -2.41      0.00
  -10    4   19     -0.56      0.00
   -8    4   19     -0.32      0.00
   -6    4   19     -0.74      0.00
   -4    4   19      0.37      0.00
   -2    4   19     -0.24      0.00
    0    4   19      5.02      0.00
    2    4   19     -5.41      0.00
    4    4   19     -1.11      0.00
    6    4   19      4.08      0.00
    8    4   19     -0.23      0.00
   10    4   19     -0.17      0.00
   12    4   19      1.48      0.00
   14    4   19      7.43      0.00
   16    4   19      1.36      0.00
   18    4   19     10.79      0.00
  -25    5   19      4.14      0.00
  -23    5   19     -0.49      0.00
  -21    5   19      0.29      0.00
  -19    5   19     -2.41      0.00
  -17    5   19     -1.09      0.00
  -15    5   19     -0.05      0.00
  -13    5   19      3.07      0.00
  -11    5   19      2.61      0.00
   -9    5   19      3.34      0.00
   -7    5   19      1.84      0.00
   -5    5   19      3.26      0.00
   -3    5   19      8.50      0.00
   -1    5   19      1.56      0.00
    1    5   19      3.89      0.00
    3    5   19      6.83      0.00
    5    5   19      1.11      0.00
    7    5   19     -4.57      0.00
    9    5   19     -1.56      0.00
   11    5   19     -1.81      0.00
   13    5   19     -7.11      0.00
   15    5   19     -4.17      0.00
   17    5   19     -2.52      0.00
  -22    6   19      0.45      0.00
  -20    6   19     -4.66      0.00
  -18    6   19     -1.67      0.00
  -16    6   19     -1.45      0.00
  -14    6   19     -2.05      0.00
  -12    6   19      1.78      0.00
  -10    6   19      0.85      0.00
   -8    6   19     -3.30      0.00
   -6    6   19      0.75      0.00
   -4    6   19     -7.52      0.00
   -2    6   19     -2.19      0.00
    0    6   19     -2.34      0.00
    2    6   19     -4.42      0.00
    4    6   19     -8.11      0.00
    6    6   19     -0.13      0.00
    8    6   19      2.57      0.00
   10    6   19      2.47      0.00
   12    6   19      0.28      0.00
   14    6   19      3.58      0.00
   16    6   19     -1.92      0.00
  -21    7   19      1.01      0.00
  -19    7   19      5.64      0.00
  -17    7   19     -3.12      0.00
  -15    7   19      0.48      0.00
  -13    7   19     -3.38      0.00
  -11    7   19     -6.98      0.00
   -9    7   19      0.88      0.00
   -7    7   19     -1.02      0.00
   -5    7   19     -2.06      0.00
   -3    7   19      1.65      0.00
   -1    7   19     -5.00      0.00
    1    7   19      1.11      0.00
    3    7   19      1.74      0.00
    5    7   19      5.37      0.00
    7    7   19      0.21      0.00
    9    7   19      0.30      0.00
   11    7   19     -2.37      0.00
   13    7   19      2.75      0.00
  -18    8   19      3.02      0.00
  -16    8   19      2.04      0.00
  -14    8   19      3.24      0.00
  -12    8   19      3.23      0.00
  -10    8   19      2.53      0.00
   -8    8   19     -0.99      0.00
   -6    8   19      5.78      0.00
   -4    8   19      0.87      0.00
   -2    8   19      2.67      0.00
    0    8   19      2.77      0.00
    2    8   19      3.13      0.00
    4    8   19      1.45      0.00
    6    8   19      2.27      0.00
    8    8   19     -1.75      0.00
   10    8   19      1.55      0.00
  -13    9   19     -2.22      0.00
  -11    9   19      0.80      0.00
   -9    9   19      0.21      0.00
   -7    9   19     -7.83      0.00
   -5    9   19     -0.15      0.00
   -3    9   19     -6.88      0.00
   -1    9   19      1.67      0.00
    1    9   19     -4.15      0.00
    3    9   19     -4.26      0.00
    5    9   19     -6.04      0.00
  -28    0   20     -6.08      0.00
  -26    0   20     -2.38      0.00
  -24    0   20     -1.52      0.00
  -22    0   20     -3.37      0.00
  -20    0   20     -6.64      0.00
  -18    0   20      0.76      0.00
  -16    0   20     -4.04      0.00
  -14    0   20     -4.74      0.00
  -12    0   20     -6.74      0.00
  -10    0   20     -9.76      0.00
   -8    0   20    -13.22      0.00
   -6    0   20     -8.64      0.00
   -4    0   20    -14.82      0.00
   -2    0   20    -18.71      0.00
    0    0   20     -1.93      0.00
    2    0   20    -13.50      0.00
    4    0   20     -4.71      0.00
    6    0   20     -3.15      0.00
    8    0   20     -6.38      0.00
   10    0   20     -0.03      0.00
   12    0   20     -9.09      0.00
   14    0   20     -2.19      0.00
   16    0   20      3.97      0.00
   18    0   20     -7.06      0.00
   20    0   20     -8.25      0.00
  -27    1   20      3.94      0.00
  -25    1   20     -2.44      0.00
  -23    1   20     -0.03      0.00
  -21    1   20      2.24      0.00
  -19    1   20      2.12      0.00
  -17    1   20     -0.83      0.00
  -15    1   20      4.93      0.00
  -13    1   20      2.92      0.00
  -11    1   20      6.61      0.00
   -9    1   20      7.55      0.00
   -7    1   20      6.70      0.00
   -5    1   20      2.51      0.00
   -3    1   20     11.49      0.00
   -1    1   20      1.88      0.00
    1    1   20      1.82      0.00
    3    1   20      2.84      0.00
    5    1   20     -2.86      0.00
    7    1   20      4.09      0.00
    9    1   20     -2.81      0.00
   11    1   20      0.01      0.00
   13    1   20      3.36      0.00
   15    1   20     -4.84      0.00
   17    1   20     -0.99      0.00
   19    1   20      5.37      0.00
  -26    2   20      3.19      0.00
  -24    2   20      5.07      0.00
  -22    2   20      3.92      0.00
  -20    2   20      3.49      0.00
  -18    2   20      2.44      0.00
  -16    2   20      1.73      0.00
  -14    2   20     -2.80      0.00
  -12    2   20      0.98      0.00
  -10    2   20     -2.72      0.00
   -8    2   20      2.40      0.00
   -6    2   20      2.85      0.00
   -4    2   20      4.85      0.00
   -2    2   20      1.95      0.00
    0    2   20      5.59      0.00
    2    2   20      6.97      0.00
    4    2   20      8.62      0.00
    6    2   20      5.31      0.00
    8    2   20      4.50      0.00
   10    2   20     10.72      0.00
   12    2   20      1.93      0.00
   14    2   20      4.84      0.00
   16    2   20      3.37      0.00
   18    2   20      1.45      0.00
  -25    3   20     -7.04      0.00
  -23    3   20     -1.43      0.00
  -21    3   20     -8.55      0.00
  -19    3   20     -3.85      0.00
  -17    3   20     -5.45      0.00
  -15    3   20     -0.57      0.00
  -13    3   20     -0.89      0.00
  -11    3   20      0.03      0.00
   -9    3   20     -3.24      0.00
   -7    3   20     -4.72      0.00
   -5    3   20     -3.76      0.00
   -3    3   20     -5.71      0.00
   -1    3   20     -3.08      0.00
    1    3   20     -4.16      0.00
    3    3   20     -7.16      0.00
    5    3   20     -6.15      0.00
    7    3   20     -5.72      0.00
    9    3   20     -9.80      0.00
   11    3   20     -5.59      0.00
   13    3   20     -1.63      0.00
   15    3   20     -1.00      0.00
   17    3   20     -2.15      0.00
   19    3   20     -1.31      0.00
  -24    4   20      3.29      0.00
  -22    4   20     -1.34      0.00
  -20    4   20      7.03      0.00
  -18    4   20     -0.96      0.00
  -16    4   20      4.05      0.00
  -14    4   20      0.10      0.00
  -12    4   20     -1.78      0.00
  -10    4   20     -2.56      0.00
   -8    4   20     -1.62      0.00
   -6    4   20     -0.94      0.00
   -4    4   20     -0.73      0.00
   -2    4   20      4.67      0.00
    0    4   20     -4.26      0.00
    2    4   20     -0.47      0.00
    4    4   20      4.97      0.00
    6    4   20     -1.78      0.00
    8    4   20      2.47      0.00
   10    4   20      4.10      0.00
   12    4   20     -1.09      0.00
   14    4   20     -0.92      0.00
   16    4   20     -2.26      0.00
  -23    5   20     -0.20      0.00
  -21    5   20      1.28      0.00
  -19    5   20     -0.63      0.00
  -17    5   20      3.98      0.00
  -15    5   20      0.20      0.00
  -13    5   20      5.93      0.00
  -11    5   20      2.61      0.00
   -9    5   20     12.52      0.00
   -7    5   20      6.88      0.00
   -5    5   20      8.91      0.00
   -3    5   20      1.41      0.00
   -1    5   20      5.90      0.00
    1    5   20      5.28      0.00
    3    5   20     -5.63      0.00
    5    5   20     -0.32      0.00
    7    5   20      5.42      0.00
    9    5   20      2.57      0.00
   11    5   20     -1.73      0.00
   13    5   20     -0.46      0.00
   15    5   20      0.53      0.00
  -22    6   20      0.76      0.00
  -20    6   20     -5.62      0.00
  -18    6   20      0.83      0.00
  -16    6   20     -7.55      0.00
  -14    6   20     -8.70      0.00
  -12    6   20     -2.95      0.00
  -10    6   20     -6.74      0.00
   -8    6   20     -8.93      0.00
   -6    6   20     -6.64      0.00
   -4    6   20     -7.87      0.00
   -2    6   20     -4.32      0.00
    0    6   20     -8.29      0.00
    2    6   20      9.36      0.00
    4    6   20      1.61      0.00
    6    6   20      0.49      0.00
    8    6   20     -3.09      0.00
   10    6   20     -3.03      0.00
   12    6   20      6.19      0.00
   14    6   20      5.19      0.00
  -19    7   20     -0.59      0.00
  -17    7   20      0.46      0.00
  -15    7   20      7.66      0.00
  -13    7   20      3.59      0.00
  -11    7   20     -1.18      0.00
   -9    7   20      1.93      0.00
   -7    7   20     -1.95      0.00
   -5    7   20      3.48      0.00
   -3    7   20     -0.23      0.00
   -1    7   20      3.56      0.00
    1    7   20     -3.55      0.00
    3    7   20     -6.14      0.00
    5    7   20      2.58      0.00
    7    7   20     -4.90      0.00
    9    7   20      2.90      0.00
   11    7   20      3.19      0.00
  -16    8   20     -0.61      0.00
  -14    8   20      0.93      0.00
  -12    8   20      0.52      0.00
  -10    8   20      3.16      0.00
   -8    8   20     -1.54      0.00
   -6    8   20      2.32      0.00
   -4    8   20      2.53      0.00
   -2    8   20     -1.00      0.00
    0    8   20      4.07      0.00
    2    8   20     -1.03      0.00
    4    8   20      2.57      0.00
    6    8   20     -0.50      0.00
    8    8   20      1.96      0.00
  -11    9   20     -0.05      0.00
   -9    9   20     -2.96      0.00
   -7    9   20      5.67      0.00
   -5    9   20     -6.92      0.00
   -3    9   20      2.15      0.00
   -1    9   20     -2.97      0.00
    1    9   20     -0.76      0.00
    3    9   20      2.73      0.00
  -27    1   21      9.71      0.00
  -25    1   21      1.64      0.00
  -23    1   21      7.92      0.00
  -21    1   21      6.65      0.00
  -19    1   21      3.57      0.00
  -17    1   21      6.55      0.00
  -15    1   21      5.76      0.00
  -13    1   21      8.03      0.00
  -11    1   21      4.05      0.00
   -9    1   21      8.90      0.00
   -7    1   21      5.81      0.00
   -5    1   21     12.41      0.00
   -3    1   21      3.99      0.00
   -1    1   21      8.82      0.00
    1    1   21      8.09      0.00
    3    1   21      5.24      0.00
    5    1   21      3.72      0.00
    7    1   21      0.74      0.00
    9    1   21      0.56      0.00
   11    1   21     -3.15      0.00
   13    1   21     -4.46      0.00
   15    1   21      0.14      0.00
   17    1   21     -1.25      0.00
   19    1   21     -0.43      0.00
  -26    2   21     -4.40      0.00
  -24    2   21     -2.82      0.00
  -22    2   21     -7.07      0.00
  -20    2   21     -5.60      0.00
  -18    2   21     -4.90      0.00
  -16    2   21     -7.94      0.00
  -14    2   21     -4.47      0.00
  -12    2   21     -7.47      0.00
  -10    2   21     -5.26      0.00
   -8    2   21     -7.80      0.00
   -6    2   21     -6.19      0.00
   -4    2   21     -8.36      0.00
   -2    2   21      2.24      0.00
    0    2   21    -10.68      0.00
    2    2   21     -1.81      0.00
    4    2   21     -0.66      0.00
    6    2   21     -4.30      0.00
    8    2   21      1.85      0.00
   10    2   21      4.96      0.00
   12    2   21      8.21      0.00
   14    2   21      4.44      0.00
   16    2   21     -1.82      0.00
   18    2   21      0.41      0.00
  -25    3   21     -1.07      0.00
  -23    3   21     -5.46      0.00
  -21    3   21     -0.27      0.00
  -19    3   21     -0.83      0.00
  -17    3   21      2.55      0.00
  -15    3   21     -1.26      0.00
  -13    3   21     -0.64      0.00
  -11    3   21     -2.13      0.00
   -9    3   21      2.49      0.00
   -7    3   21     -0.82      0.00
   -5    3   21      4.75      0.00
   -3    3   21     -5.35      0.00
   -1    3   21      0.96      0.00
    1    3   21     -0.53      0.00
    3    3   21     -6.23      0.00
    5    3   21      0.17      0.00
    7    3   21      1.00      0.00
    9    3   21     -6.19      0.00
   11    3   21     -9.27      0.00
   13    3   21     -7.40      0.00
   15    3   21     -0.12      0.00
   17    3   21      1.20      0.00
  -24    4   21      5.91      0.00
  -22    4   21      8.66      0.00
  -20    4   21      2.65      0.00
  -18    4   21      3.63      0.00
  -16    4   21      3.03      0.00
  -14    4   21      3.50      0.00
  -12    4   21      6.40      0.00
  -10    4   21      2.77      0.00
   -8    4   21      3.18      0.00
   -6    4   21      0.17      0.00
   -4    4   21      1.63      0.00
   -2    4   21      2.88      0.00
    0    4   21     -3.36      0.00
    2    4   21      4.15      0.00
    4    4   21      4.44      0.00
    6    4   21      1.04      0.00
    8    4   21      4.65      0.00
   10    4   21      7.96      0.00
   12    4   21     10.28      0.00
   14    4   21     -0.14      0.00
   16    4   21      5.98      0.00
  -23    5   21     -1.78      0.00
  -21    5   21     -4.53      0.00
  -19    5   21     -1.51      0.00
  -17    5   21     -4.59      0.00
  -15    5   21     -2.56      0.00
  -13    5   21     -2.95      0.00
  -11    5   21     -1.91      0.00
   -9    5   21     -1.72      0.00
   -7    5   21     -1.40      0.00
   -5    5   21      0.66      0.00
   -3    5   21     -2.22      0.00
   -1    5   21      3.75      0.00
    1    5   21      6.52      0.00
    3    5   21     -2.85      0.00
    5    5   21     -4.38      0.00
    7    5   21     -2.07      0.00
    9    5   21     -4.97      0.00
   11    5   21     -6.86      0.00
   13    5   21     -0.40      0.00
   15    5   21     -3.96      0.00
  -20    6   21      3.62      0.00
  -18    6   21     -0.69      0.00
  -16    6   21     -0.62      0.00
  -14    6   21      3.83      0.00
  -12    6   21     -1.65      0.00
  -10    6   21      2.24      0.00
   -8    6   21     -0.41      0.00
   -6    6   21     -1.71      0.00
   -4    6   21     -0.92      0.00
   -2    6   21     -2.06      0.00
    0    6   21     -3.60      0.00
    2    6   21     -3.80      0.00
    4    6   21      3.43      0.00
    6    6   21      0.40      0.00
    8    6   21     -1.71      0.00
   10    6   21     -0.72      0.00
   12    6   21     -0.06      0.00
  -19    7   21     -4.04      0.00
  -17    7   21      7.66      0.00
  -15    7   21     -0.11      0.00
  -13    7   21     -2.53      0.00
  -11    7   21      0.65      0.00
   -9    7   21     -4.20      0.00
   -7    7   21      0.77      0.00
   -5    7   21      2.69      0.00
   -3    7   21      1.09      0.00
   -1    7   21      0.62      0.00
    1    7   21     -1.63      0.00
    3    7   21      3.09      0.00
    5    7   21      0.01      0.00
    7    7   21      4.09      0.00
    9    7   21      3.09      0.00
   11    7   21      2.58      0.00
  -14    8   21     -1.07      0.00
  -12    8   21      1.69      0.00
  -10    8   21     -0.70      0.00
   -8    8   21      3.18      0.00
   -6    8   21     -3.58      0.00
   -4    8   21     -1.32      0.00
   -2    8   21      0.43      0.00
    0    8   21      1.02      0.00
    2    8   21     -0.69      0.00
    4    8   21     -2.60      0.00
    6    8   21     -2.95      0.00
   -7    9   21      5.27      0.00
   -5    9   21      0.55      0.00
   -3    9   21      2.65      0.00
   -1    9   21     -0.12      0.00
  -26    0   22      3.70      0.00
  -24    0   22     -0.08      0.00
  -22    0   22      4.18      0.00
  -20    0   22      9.11      0.00
  -18    0   22     -0.29      0.00
  -16    0   22     -2.10      0.00
  -14    0   22      0.07      0.00
  -12    0   22     -2.87      0.00
  -10    0   22      3.35      0.00
   -8    0   22      5.66      0.00
   -6    0   22     -3.33      0.00
   -4    0   22      4.51      0.00
   -2    0   22      7.15      0.00
    0    0   22     -0.30      0.00
    2    0   22      6.54      0.00
    4    0   22      0.04      0.00
    6    0   22      3.92      0.00
    8    0   22      7.86      0.00
   10    0   22     -3.31      0.00
   12    0   22      1.88      0.00
   14    0   22      0.38      0.00
   16    0   22     -3.73      0.00
   18    0   22      0.78      0.00
  -25    1   22     -0.49      0.00
  -23    1   22      2.13      0.00
  -21    1   22     -3.76      0.00
  -19    1   22      0.31      0.00
  -17    1   22      4.25      0.00
  -15    1   22      3.70      0.00
  -13    1   22      4.59      0.00
  -11    1   22      1.53      0.00
   -9    1   22     -1.61      0.00
   -7    1   22     -0.95      0.00
   -5    1   22      4.03      0.00
   -3    1   22     -6.31      0.00
   -1    1   22      0.36      0.00
    1    1   22     -4.29      0.00
    3    1   22     -4.85      0.00
    5    1   22     -2.09      0.00
    7    1   22    -11.83      0.00
    9    1   22      0.24      0.00
   11    1   22      1.66      0.00
   13    1   22     -3.67      0.00
   15    1   22      1.66      0.00
   17    1   22      1.65      0.00
  -26    2   22     -2.13      0.00
  -24    2   22     -3.23      0.00
  -22    2   22     -3.87      0.00
  -20    2   22     -5.15      0.00
  -18    2   22     -6.57      0.00
  -16    2   22     -6.44      0.00
  -14    2   22     -8.12      0.00
  -12    2   22     -5.82      0.00
  -10    2   22     -4.39      0.00
   -8    2   22     -4.48      0.00
   -6    2   22     -2.41      0.00
   -4    2   22     -3.34      0.00
   -2    2   22     -1.14      0.00
    0    2   22     -1.74      0.00
    2    2   22      5.73      0.00
    4    2   22      2.01      0.00
    6    2   22     10.46      0.00
    8    2   22      6.10      0.00
   10    2   22     -5.18      0.00
   12    2   22      1.74      0.00
   14    2   22      1.15      0.00
   16    2   22     -1.39      0.00
  -25    3   22      6.62      0.00
  -23    3   22     -1.39      0.00
  -21    3   22      6.99      0.00
  -19    3   22      4.37      0.00
  -17    3   22      3.69      0.00
  -15    3   22      3.80      0.00
  -13    3   22      1.60      0.00
  -11    3   22      3.31      0.00
   -9    3   22      4.70      0.00
   -7    3   22      6.22      0.00
   -5    3   22      0.47      0.00
   -3    3   22      5.61      0.00
   -1    3   22      4.66      0.00
    1    3   22     -2.48      0.00
    3    3   22      1.97      0.00
    5    3   22     -0.81      0.00
    7    3   22     -5.67      0.00
    9    3   22      4.30      0.00
   11    3   22      2.35      0.00
   13    3   22      2.41      0.00
   15    3   22     -1.39      0.00
  -24    4   22      0.30      0.00
  -22    4   22      1.88      0.00
  -20    4   22     -5.40      0.00
  -18    4   22      4.64      0.00
  -16    4   22      0.47      0.00
  -14    4   22      7.28      0.00
  -12    4   22      4.97      0.00
  -10    4   22      2.45      0.00
   -8    4   22     -0.25      0.00
   -6    4   22     -0.25      0.00
   -4    4   22     -0.98      0.00
   -2    4   22     -5.93      0.00
    0    4   22      3.03      0.00
    2    4   22     -1.08      0.00
    4    4   22     -9.22      0.00
    6    4   22      0.81      0.00
    8    4   22      0.43      0.00
   10    4   22     -5.39      0.00
   12    4   22     -0.65      0.00
   14    4   22     -2.11      0.00
  -21    5   22      0.17      0.00
  -19    5   22     -4.08      0.00
  -17    5   22     -5.34      0.00
  -15    5   22     -3.22      0.00
  -13    5   22     -7.28      0.00
  -11    5   22      1.60      0.00
   -9    5   22     -6.33      0.00
   -7    5   22     -3.04      0.00
   -5    5   22     -3.17      0.00
   -3    5   22      2.58      0.00
   -1    5   22     -5.32      0.00
    1    5   22     -1.41      0.00
    3    5   22      4.91      0.00
    5    5   22      1.62      0.00
    7    5   22     -5.24      0.00
    9    5   22     -2.62      0.00
   11    5   22      0.99      0.00
   13    5   22     -2.23      0.00
  -20    6   22      5.28      0.00
  -18    6   22      0.79      0.00
  -16    6   22      0.19      0.00
  -14    6   22      2.10      0.00
  -12    6   22     -5.01      0.00
  -10    6   22     -1.78      0.00
   -8    6   22      3.43      0.00
   -6    6   22      3.48      0.00
   -4    6   22      3.71      0.00
   -2    6   22      4.67      0.00
    0    6   22      6.82      0.00
    2    6   22     -3.93      0.00
    4    6   22      5.42      0.00
    6    6   22      4.81      0.00
    8    6   22      4.51      0.00
   10    6   22      7.19      0.00
   12    6   22      1.00      0.00
  -17    7   22      6.04      0.00
  -15    7   22     -3.51      0.00
  -13    7   22      0.43      0.00
  -11    7   22     -0.74      0.00
   -9    7   22      2.25      0.00
   -7    7   22     -2.42      0.00
   -5    7   22     -1.60      0.00
   -3    7   22     -4.16      0.00
   -1    7   22     -3.66      0.00
    1    7   22     -0.58      0.00
    3    7   22      0.31      0.00
    5    7   22     -5.18      0.00
    7    7   22      3.57      0.00
    9    7   22     -4.13      0.00
  -12    8   22      4.22      0.00
  -10    8   22     -3.29      0.00
   -8    8   22      1.75      0.00
   -6    8   22     -0.58      0.00
   -4    8   22     -2.71      0.00
   -2    8   22     -0.09      0.00
    0    8   22     -3.57      0.00
    2    8   22      0.26      0.00
    4    8   22     -3.84      0.00
  -25    1   23      9.43      0.00
  -23    1   23      0.28      0.00
  -21    1   23      0.61      0.00
  -19    1   23      1.64      0.00
  -17    1   23      5.44      0.00
  -15    1   23      3.46      0.00
  -13    1   23      6.43      0.00
  -11    1   23      7.14      0.00
   -9    1   23      4.76      0.00
   -7    1   23      9.25      0.00
   -5    1   23      3.80      0.00
   -3    1   23     11.11      0.00
   -1    1   23      3.86      0.00
    1    1   23      6.90      0.00
    3    1   23      8.40      0.00
    5    1   23      3.23      0.00
    7    1   23      1.69      0.00
    9    1   23      1.10      0.00
   11    1   23     -0.12      0.00
   13    1   23      3.12      0.00
   15    1   23      1.67      0.00
   17    1   23     -1.92      0.00
  -24    2   23     -5.24      0.00
  -22    2   23     -0.55      0.00
  -20    2   23     -0.76      0.00
  -18    2   23     -3.58      0.00
  -16    2   23     -4.65      0.00
  -14    2   23     -8.68      0.00
  -12    2   23     -6.75      0.00
  -10    2   23     -7.62      0.00
   -8    2   23     -5.63      0.00
   -6    2   23     -3.08      0.00
   -4    2   23     -8.20      0.00
   -2    2   23     -8.39      0.00
    0    2   23     -1.05      0.00
    2    2   23     -5.70      0.00
    4    2   23     -4.68      0.00
    6    2   23      4.53      0.00
    8    2   23      1.07      0.00
   10    2   23      4.70      0.00
   12    2   23      0.41      0.00
   14    2   23     -2.60      0.00
   16    2   23      0.52      0.00
  -23    3   23     -0.88      0.00
  -21    3   23     -3.89      0.00
  -19    3   23     -1.54      0.00
  -17    3   23     -2.19      0.00
  -15    3   23      3.99      0.00
  -13    3   23      3.87      0.00
  -11    3   23      4.28      0.00
   -9    3   23      4.62      0.00
   -7    3   23     -2.44      0.00
   -5    3   23     -2.10      0.00
   -3    3   23      6.52      0.00
   -1    3   23     -3.52      0.00
    1    3   23     -2.20      0.00
    3    3   23     -0.75      0.00
    5    3   23     -4.77      0.00
    7    3   23     -6.74      0.00
    9    3   23     -8.63      0.00
   11    3   23     -3.42      0.00
   13    3   23     -0.62      0.00
   15    3   23      1.20      0.00
  -22    4   23      3.65      0.00
  -20    4   23      5.71      0.00
  -18    4   23      5.19      0.00
  -16    4   23      3.12      0.00
  -14    4   23      3.77      0.00
  -12    4   23     -0.42      0.00
  -10    4   23      0.50      0.00
   -8    4   23     -0.47      0.00
   -6    4   23      8.47      0.00
   -4    4   23      1.82      0.00
   -2    4   23      1.22      0.00
    0    4   23      5.52      0.00
    2    4   23      1.06      0.00
    4    4   23      1.65      0.00
    6    4   23      4.37      0.00
    8    4   23      8.75      0.00
   10    4   23      7.61      0.00
   12    4   23      0.52      0.00
   14    4   23      5.03      0.00
  -21    5   23     -2.22      0.00
  -19    5   23     -5.07      0.00
  -17    5   23     -4.45      0.00
  -15    5   23     -5.02      0.00
  -13    5   23     -5.67      0.00
  -11    5   23     -2.40      0.00
   -9    5   23     -2.80      0.00
   -7    5   23     -3.34      0.00
   -5    5   23     -7.40      0.00
   -3    5   23     -0.73      0.00
   -1    5   23     -0.76      0.00
    1    5   23     -0.14      0.00
    3    5   23      1.37      0.00
    5    5   23      1.72      0.00
    7    5   23     -4.30      0.00
    9    5   23     -4.76      0.00
   11    5   23     -1.93      0.00
  -18    6   23      1.94      0.00
  -16    6   23      2.10      0.00
  -14    6   23     -1.34      0.00
  -12    6   23      1.80      0.00
  -10    6   23     -1.80      0.00
   -8    6   23      1.92      0.00
   -6    6   23      2.10      0.00
   -4    6   23      2.66      0.00
   -2    6   23     -1.35      0.00
    0    6   23     -3.82      0.00
    2    6   23      1.04      0.00
    4    6   23      0.03      0.00
    6    6   23     -3.08      0.00
    8    6   23     -1.36      0.00
   10    6   23     -3.22      0.00
  -15    7   23      2.36      0.00
  -13    7   23      4.07      0.00
  -11    7   23      2.86      0.00
   -9    7   23      3.53      0.00
   -7    7   23      1.91      0.00
   -5    7   23     -0.61      0.00
   -3    7   23     -0.61      0.00
   -1    7   23      2.99      0.00
    1    7   23      2.42      0.00
    3    7   23     -4.60      0.00
    5    7   23      2.60      0.00
    7    7   23      4.87      0.00
  -10    8   23     -3.68      0.00
   -8    8   23     -4.40      0.00
   -6    8   23     -3.35      0.00
   -4    8   23     -0.45      0.00
   -2    8   23     -1.89      0.00
    0    8   23     -2.71      0.00
    2    8   23     -0.52      0.00
  -24    0   24      4.21      0.00
  -22    0   24     -3.86      0.00
  -20    0   24     -3.43      0.00
  -18    0   24      1.77      0.00
  -16    0   24     10.57      0.00
  -14    0   24      6.33      0.00
  -12    0   24     11.99      0.00
  -10    0   24     13.17      0.00
   -8    0   24      9.34      0.00
   -6    0   24     18.31      0.00
   -4    0   24     11.24      0.00
   -2    0   24      8.99      0.00
    0    0   24      8.66      0.00
    2    0   24      6.09      0.00
    4    0   24     15.12      0.00
    6    0   24      6.43      0.00
    8    0   24     -0.65      0.00
   10    0   24      5.52      0.00
   12    0   24      0.49      0.00
   14    0   24     -1.58      0.00
   16    0   24      2.16      0.00
  -25    1   24      1.50      0.00
  -23    1   24     -0.94      0.00
  -21    1   24      5.64      0.00
  -19    1   24      1.61      0.00
  -17    1   24     -1.56      0.00
  -15    1   24     -4.24      0.00
  -13    1   24     -3.55      0.00
  -11    1   24     -6.30      0.00
   -9    1   24     -5.09      0.00
   -7    1   24     -4.38      0.00
   -5    1   24     -8.21      0.00
   -3    1   24     -2.69      0.00
   -1    1   24     -6.88      0.00
    1    1   24     -1.98      0.00
    3    1   24     -6.10      0.00
    5    1   24     -7.05      0.00
    7    1   24      4.33      0.00
    9    1   24     -1.26      0.00
   11    1   24     -3.45      0.00
   13    1   24      3.29      0.00
   15    1   24      1.51      0.00
  -24    2   24     -4.16      0.00
  -22    2   24     -2.65      0.00
  -20    2   24     -2.19      0.00
  -18    2   24     -2.33      0.00
  -16    2   24     -5.81      0.00
  -14    2   24     -4.20      0.00
  -12    2   24     -5.93      0.00
  -10    2   24     -5.24      0.00
   -8    2   24     -3.26      0.00
   -6    2   24     -8.27      0.00
   -4    2   24     -4.87      0.00
   -2    2   24     -1.13      0.00
    0    2   24     -0.52      0.00
    2    2   24     -5.25      0.00
    4    2   24      0.52      0.00
    6    2   24     -7.29      0.00
    8    2   24     -7.75      0.00
   10    2   24      2.63      0.00
   12    2   24     -1.43      0.00
   14    2   24     -4.25      0.00
  -23    3   24      4.57      0.00
  -21    3   24      0.15      0.00
  -19    3   24     -0.78      0.00
  -17    3   24      5.41      0.00
  -15    3   24      7.19      0.00
  -13    3   24      9.32      0.00
  -11    3   24      8.68      0.00
   -9    3   24      5.58      0.00
   -7    3   24      4.59      0.00
   -5    3   24     10.75      0.00
   -3    3   24      1.71      0.00
   -1    3   24     -1.27      0.00
    1    3   24      5.90      0.00
    3    3   24      2.32      0.00
    5    3   24      0.88      0.00
    7    3   24     10.46      0.00
    9    3   24      1.60      0.00
   11    3   24      2.35      0.00
   13    3   24      0.82      0.00
  -22    4   24     -1.38      0.00
  -20    4   24      2.23      0.00
  -18    4   24     -3.24      0.00
  -16    4   24     -0.15      0.00
  -14    4   24     -4.64      0.00
  -12    4   24     -2.63      0.00
  -10    4   24     -2.91      0.00
   -8    4   24      0.22      0.00
   -6    4   24     -4.25      0.00
   -4    4   24      2.13      0.00
   -2    4   24      5.59      0.00
    0    4   24      1.72      0.00
    2    4   24      1.33      0.00
    4    4   24      5.26      0.00
    6    4   24      1.41      0.00
    8    4   24     -3.39      0.00
   10    4   24     -0.05      0.00
   12    4   24     -3.27      0.00
  -19    5   24     -0.09      0.00
  -17    5   24     -2.94      0.00
  -15    5   24     -5.51      0.00
  -13    5   24      0.01      0.00
  -11    5   24     -5.17      0.00
   -9    5   24      0.05      0.00
   -7    5   24      0.47      0.00
   -5    5   24     -3.71      0.00
   -3    5   24     -9.13      0.00
   -1    5   24     -1.14      0.00
    1    5   24     -7.43      0.00
    3    5   24     -5.03      0.00
    5    5   24     -5.94      0.00
    7    5   24     -6.66      0.00
    9    5   24     -1.73      0.00
  -18    6   24      5.87      0.00
  -16    6   24      7.57      0.00
  -14    6   24      2.93      0.00
  -12    6   24      3.04      0.00
  -10    6   24      3.28      0.00
   -8    6   24     -0.95      0.00
   -6    6   24      4.06      0.00
   -4    6   24      3.24      0.00
   -2    6   24      0.16      0.00
    0    6   24      0.36      0.00
    2    6   24      6.74      0.00
    4    6   24     -1.18      0.00
    6    6   24      5.72      0.00
    8    6   24      6.55      0.00
  -15    7   24     -0.07      0.00
  -13    7   24     -3.21      0.00
  -11    7   24      0.88      0.00
   -9    7   24     -4.07      0.00
   -7    7   24     -1.99      0.00
   -5    7   24     -2.17      0.00
   -3    7   24      4.37      0.00
   -1    7   24      2.83      0.00
    1    7   24     -0.78      0.00
    3    7   24      1.26      0.00
    5    7   24      2.40      0.00
   -6    8   24      2.36      0.00
   -4    8   24     -1.58      0.00
   -2    8   24     -1.86      0.00
  -23    1   25     -1.73      0.00
  -21    1   25     -4.65      0.00
  -19    1   25     -2.39      0.00
  -17    1   25     -8.44      0.00
  -15    1   25     -5.80      0.00
  -13    1   25     -8.22      0.00
  -11    1   25     -9.26      0.00
   -9    1   25    -11.50      0.00
   -7    1   25    -14.13      0.00
   -5    1   25    -12.35      0.00
   -3    1   25     -6.78      0.00
   -1    1   25     -0.30      0.00
    1    1   25      0.14      0.00
    3    1   25     -4.79      0.00
    5    1   25     -0.35      0.00
    7    1   25      0.38      0.00
    9    1   25     -2.75      0.00
   11    1   25      3.17      0.00
   13    1   25      0.78      0.00
  -22    2   25      5.01      0.00
  -20    2   25      2.58      0.00
  -18    2   25      3.38      0.00
  -16    2   25      5.88      0.00
  -14    2   25      7.65      0.00
  -12    2   25      5.65      0.00
  -10    2   25     10.03      0.00
   -8    2   25     10.11      0.00
   -6    2   25      8.45      0.00
   -4    2   25     12.31      0.00
   -2    2   25      2.85      0.00
    0    2   25      1.70      0.00
    2    2   25      3.20      0.00
    4    2   25      6.64      0.00
    6    2   25      3.15      0.00
    8    2   25      8.95      0.00
   10    2   25      1.80      0.00
   12    2   25     -2.06      0.00
   14    2   25      3.32      0.00
  -21    3   25     -6.63      0.00
  -19    3   25     -1.36      0.00
  -17    3   25      0.52      0.00
  -15    3   25      1.32      0.00
  -13    3   25      1.44      0.00
  -11    3   25      1.83      0.00
   -9    3   25     -4.96      0.00
   -7    3   25      4.99      0.00
   -5    3   25     -1.20      0.00
   -3    3   25     -5.43      0.00
   -1    3   25      0.15      0.00
    1    3   25     -4.20      0.00
    3    3   25     -4.95      0.00
    5    3   25     -5.89      0.00
    7    3   25    -12.00      0.00
    9    3   25     -4.19      0.00
   11    3   25     -4.73      0.00
   13    3   25     -1.45      0.00
  -20    4   25      1.44      0.00
  -18    4   25     -3.97      0.00
  -16    4   25     -8.02      0.00
  -14    4   25    -10.31      0.00
  -12    4   25     -8.34      0.00
  -10    4   25     -4.26      0.00
   -8    4   25     -4.65      0.00
   -6    4   25    -11.14      0.00
   -4    4   25     -1.91      0.00
   -2    4   25     -2.16      0.00
    0    4   25     -0.71      0.00
    2    4   25      2.82      0.00
    4    4   25      1.08      0.00
    6    4   25      6.51      0.00
    8    4   25      3.06      0.00
   10    4   25      4.00      0.00
  -19    5   25      5.83      0.00
  -17    5   25      7.33      0.00
  -15    5   25      8.70      0.00
  -13    5   25      7.62      0.00
  -11    5   25      5.77      0.00
   -9    5   25      3.58      0.00
   -7    5   25      7.38      0.00
   -5    5   25      8.09      0.00
   -3    5   25      4.57      0.00
   -1    5   25      4.72      0.00
    1    5   25      0.16      0.00
    3    5   25      5.45      0.00
    5    5   25     -1.23      0.00
    7    5   25     -0.13      0.00
    9    5   25     -2.53      0.00
  -16    6   25     -2.12      0.00
  -14    6   25     -2.63      0.00
  -12    6   25     -1.87      0.00
  -10    6   25     -0.24      0.00
   -8    6   25     -1.49      0.00
   -6    6   25     -3.53      0.00
   -4    6   25     -5.17      0.00
   -2    6   25     -4.19      0.00
    0    6   25      0.24      0.00
    2    6   25     -6.30      0.00
    4    6   25     -6.83      0.00
    6    6   25      2.59      0.00
  -11    7   25     -4.24      0.00
   -9    7   25     -0.82      0.00
   -7    7   25     -2.51      0.00
   -5    7   25      2.56      0.00
   -3    7   25      4.58      0.00
   -1    7   25     -0.61      0.00
    1    7   25      2.47      0.00
  -22    0   26      7.04      0.00
  -20    0   26      1.00      0.00
  -18    0   26      1.27      0.00
  -16    0   26     -4.62      0.00
  -14    0   26      4.44      0.00
  -12    0   26      5.29      0.00
  -10    0   26      2.99      0.00
   -8    0   26      1.70      0.00
   -6    0   26     -4.85      0.00
   -4    0   26      3.51      0.00
   -2    0   26     -1.43      0.00
    0    0   26      0.98      0.00
    2    0   26      2.89      0.00
    4    0   26     -4.31      0.00
    6    0   26      1.63      0.00
    8    0   26      7.74      0.00
   10    0   26      2.48      0.00
   12    0   26      0.43      0.00
  -23    1   26     -2.21      0.00
  -21    1   26     -5.32      0.00
  -19    1   26      0.09      0.00
  -17    1   26      0.60      0.00
  -15    1   26      0.85      0.00
  -13    1   26     -4.77      0.00
  -11    1   26     -3.04      0.00
   -9    1   26     -3.48      0.00
   -7    1   26      1.33      0.00
   -5    1   26     -0.49      0.00
   -3    1   26     -2.22      0.00
   -1    1   26      4.78      0.00
    1    1   26     -2.51      0.00
    3    1   26      2.52      0.00
    5    1   26      3.92      0.00
    7    1   26     -2.74      0.00
    9    1   26     -1.78      0.00
   11    1   26      4.17      0.00
   13    1   26     -2.17      0.00
  -22    2   26      2.46      0.00
  -20    2   26      1.72      0.00
  -18    2   26     -1.30      0.00
  -16    2   26      2.29      0.00
  -14    2   26      1.42      0.00
  -12    2   26      0.78      0.00
  -10    2   26      3.74      0.00
   -8    2   26      0.54      0.00
   -6    2   26      1.99      0.00
   -4    2   26      2.48      0.00
   -2    2   26     -4.55      0.00
    0    2   26     -4.55      0.00
    2    2   26     -0.08      0.00
    4    2   26     -4.59      0.00
    6    2   26     -3.69      0.00
    8    2   26      1.33      0.00
   10    2   26     -8.70      0.00
   12    2   26     -4.56      0.00
  -21    3   26     -1.72      0.00
  -19    3   26      1.46      0.00
  -17    3   26     -1.22      0.00
  -15    3   26     -3.20      0.00
  -13    3   26      0.71      0.00
  -11    3   26     -1.60      0.00
   -9    3   26     -2.31      0.00
   -7    3   26     -1.71      0.00
   -5    3   26     -2.90      0.00
   -3    3   26      2.31      0.00
   -1    3   26      3.15      0.00
    1    3   26      1.04      0.00
    3    3   26     -2.18      0.00
    5    3   26      5.39      0.00
    7    3   26     -2.25      0.00
    9    3   26      3.73      0.00
   11    3   26      4.80      0.00
  -20    4   26      0.62      0.00
  -18    4   26      0.82      0.00
  -16    4   26      0.49      0.00
  -14    4   26      0.35      0.00
  -12    4   26     -0.17      0.00
  -10    4   26      2.19      0.00
   -8    4   26      1.64      0.00
   -6    4   26      5.45      0.00
   -4    4   26     -3.24      0.00
   -2    4   26      1.79      0.00
    0    4   26      2.04      0.00
    2    4   26      1.64      0.00
    4    4   26      2.19      0.00
    6    4   26     -4.46      0.00
    8    4   26     -1.03      0.00
  -17    5   26     -2.64      0.00
  -15    5   26      0.32      0.00
  -13    5   26     -0.44      0.00
  -11    5   26      0.68      0.00
   -9    5   26      3.03      0.00
   -7    5   26     -5.44      0.00
   -5    5   26      1.49      0.00
   -3    5   26      2.31      0.00
   -1    5   26     -5.43      0.00
    1    5   26      4.14      0.00
    3    5   26      0.17      0.00
    5    5   26      0.48      0.00
    7    5   26      9.59      0.00
  -14    6   26      1.46      0.00
  -12    6   26      0.68      0.00
  -10    6   26     -2.76      0.00
   -8    6   26      2.15      0.00
   -6    6   26     -0.27      0.00
   -4    6   26     -1.49      0.00
   -2    6   26      0.98      0.00
    0    6   26     -2.57      0.00
    2    6   26     -9.16      0.00
    4    6   26      1.78      0.00
   -9    7   26     -6.68      0.00
   -7    7   26     -0.28      0.00
   -5    7   26     -2.26      0.00
   -3    7   26     -1.12      0.00
  -21    1   27     -0.14      0.00
  -19    1   27     -3.64      0.00
  -17    1   27      0.53      0.00
  -15    1   27     -2.54      0.00
  -13    1   27     -4.14      0.00
  -11    1   27     -6.21      0.00
   -9    1   27     -0.47      0.00
   -7    1   27     -4.61      0.00
   -5    1   27      2.02      0.00
   -3    1   27     -3.73      0.00
   -1    1   27     -3.79      0.00
    1    1   27     -0.71      0.00
    3    1   27      3.59      0.00
    5    1   27     -2.68      0.00
    7    1   27     -3.46      0.00
    9    1   27      2.30      0.00
   11    1   27      0.17      0.00
  -20    2   27      0.14      0.00
  -18    2   27      0.56      0.00
  -16    2   27     -1.15      0.00
  -14    2   27      0.38      0.00
  -12    2   27      3.89      0.00
  -10    2   27      1.52      0.00
   -8    2   27      2.83      0.00
   -6    2   27      2.33      0.00
   -4    2   27     -0.75      0.00
   -2    2   27      3.28      0.00
    0    2   27     -0.16      0.00
    2    2   27     -2.48      0.00
    4    2   27      1.67      0.00
    6    2   27      2.25      0.00
    8    2   27     -2.42      0.00
   10    2   27     -1.91      0.00
  -19    3   27     -0.94      0.00
  -17    3   27      0.48      0.00
  -15    3   27     -0.85      0.00
  -13    3   27      0.89      0.00
  -11    3   27     -2.14      0.00
   -9    3   27      0.23      0.00
   -7    3   27     -5.62      0.00
   -5    3   27     -0.22      0.00
   -3    3   27      1.61      0.00
   -1    3   27      2.05      0.00
    1    3   27      5.00      0.00
    3    3   27     -2.07      0.00
    5    3   27     -4.18      0.00
    7    3   27      5.22      0.00
    9    3   27      0.71      0.00
  -18    4   27     -2.70      0.00
  -16    4   27      3.08      0.00
  -14    4   27      0.42      0.00
  -12    4   27      3.01      0.00
  -10    4   27      0.55      0.00
   -8    4   27      3.67      0.00
   -6    4   27      4.51      0.00
   -4    4   27     -1.41      0.00
   -2    4   27     -0.06      0.00
    0    4   27     -5.15      0.00
    2    4   27     -2.93      0.00
    4    4   27      2.97      0.00
    6    4   27     -2.94      0.00
  -15    5   27     -3.89      0.00
  -13    5   27     -2.13      0.00
  -11    5   27     -2.51      0.00
   -9    5   27     -0.12      0.00
   -7    5   27     -2.71      0.00
   -5    5   27     -1.70      0.00
   -3    5   27     -1.16      0.00
   -1    5   27     -0.20      0.00
    1    5   27      5.71      0.00
    3    5   27     -0.73      0.00
  -12    6   27     -0.55      0.00
  -10    6   27     -4.49      0.00
   -8    6   27     -2.31      0.00
   -6    6   27     -2.76      0.00
   -4    6   27      0.20      0.00
   -2    6   27     -2.75      0.00
    0    6   27     -5.39      0.00
  -20    0   28      0.21      0.00
  -18    0   28     -3.82      0.00
  -16    0   28      0.58      0.00
  -14    0   28     -6.53      0.00
  -12    0   28     -6.02      0.00
  -10    0   28     -9.20      0.00
   -8    0   28     -6.54      0.00
   -6    0   28     -2.07      0.00
   -4    0   28    -13.01      0.00
   -2    0   28     -4.56      0.00
    0    0   28     -0.11      0.00
    2    0   28      1.36      0.00
    4    0   28      3.23      0.00
    6    0   28      1.56      0.00
    8    0   28     -6.01      0.00
  -19    1   28     -0.78      0.00
  -17    1   28     -0.04      0.00
  -15    1   28     -0.30      0.00
  -13    1   28      0.97      0.00
  -11    1   28      2.60      0.00
   -9    1   28      7.20      0.00
   -7    1   28     -1.48      0.00
   -5    1   28      6.48      0.00
   -3    1   28      9.08      0.00
   -1    1   28     -2.06      0.00
    1    1   28      0.07      0.00
    3    1   28     -2.19      0.00
    5    1   28     -4.85      0.00
    7    1   28      2.32      0.00
    9    1   28      7.13      0.00
  -18    2   28      5.38      0.00
  -16    2   28      2.31      0.00
  -14    2   28      4.90      0.00
  -12    2   28      6.80      0.00
  -10    2   28     -3.18      0.00
   -8    2   28      0.93      0.00
   -6    2   28      3.46      0.00
   -4    2   28     -3.59      0.00
   -2    2   28      1.76      0.00
    0    2   28      2.53      0.00
    2    2   28     -1.59      0.00
    4    2   28      2.31      0.00
    6    2   28      4.64      0.00
    8    2   28     -7.02      0.00
  -17    3   28     -4.69      0.00
  -15    3   28     -3.06      0.00
  -13    3   28     -6.50      0.00
  -11    3   28     -3.70      0.00
   -9    3   28      2.30      0.00
   -7    3   28     -1.45      0.00
   -5    3   28     -4.63      0.00
   -3    3   28     -3.34      0.00
   -1    3   28      0.96      0.00
    1    3   28     -0.32      0.00
    3    3   28      3.81      0.00
    5    3   28     -4.34      0.00
    7    3   28     -0.15      0.00
  -16    4   28      0.10      0.00
  -14    4   28      3.24      0.00
  -12    4   28      3.78      0.00
  -10    4   28      3.99      0.00
   -8    4   28     -2.76      0.00
   -6    4   28     -1.04      0.00
   -4    4   28      4.90      0.00
   -2    4   28     -3.72      0.00
    0    4   28     -4.65      0.00
    2    4   28      2.41      0.00
    4    4   28     -2.62      0.00
  -13    5   28     -2.78      0.00
  -11    5   28     -1.30      0.00
   -9    5   28     -5.34      0.00
   -7    5   28      8.63      0.00
   -5    5   28     -0.51      0.00
   -3    5   28     -1.12      0.00
   -1    5   28      7.64      0.00
    1    5   28     -2.15      0.00
   -6    6   28     -3.69      0.00
  -17    1   29      0.86      0.00
  -15    1   29      5.25      0.00
  -13    1   29      6.86      0.00
  -11    1   29      7.06      0.00
   -9    1   29     -1.09      0.00
   -7    1   29      6.67      0.00
   -5    1   29     -0.52      0.00
   -3    1   29     -0.90      0.00
   -1    1   29      4.28      0.00
    1    1   29     -1.63      0.00
    3    1   29     -1.87      0.00
    5    1   29      4.30      0.00
    7    1   29      2.17      0.00
  -18    2   29     -5.01      0.00
  -16    2   29     -3.38      0.00
  -14    2   29     -4.14      0.00
  -12    2   29     -4.73      0.00
  -10    2   29     -1.02      0.00
   -8    2   29     -3.89      0.00
   -6    2   29     -3.43      0.00
   -4    2   29     -2.16      0.00
   -2    2   29     -2.10      0.00
    0    2   29     -0.87      0.00
    2    2   29      3.51      0.00
    4    2   29     -5.63      0.00
    6    2   29     -3.98      0.00
  -15    3   29      1.52      0.00
  -13    3   29     -2.74      0.00
  -11    3   29      0.10      0.00
   -9    3   29     -0.76      0.00
   -7    3   29     -0.18      0.00
   -5    3   29     -0.30      0.00
   -3    3   29      1.79      0.00
   -1    3   29     -0.66      0.00
    1    3   29     -3.54      0.00
    3    3   29      4.35      0.00
    5    3   29      6.81      0.00
  -14    4   29      2.22      0.00
  -12    4   29      1.70      0.00
  -10    4   29      2.72      0.00
   -8    4   29      5.05      0.00
   -6    4   29      3.94      0.00
   -4    4   29      0.73      0.00
   -2    4   29     -2.28      0.00
    0    4   29      3.25      0.00
    2    4   29     -0.22      0.00
   -9    5   29     -3.13      0.00
   -7    5   29     -5.95      0.00
   -5    5   29      2.89      0.00
  -16    0   30      2.79      0.00
  -14    0   30      7.51      0.00
  -12    0   30      1.54      0.00
  -10    0   30      5.74      0.00
   -8    0   30      3.27      0.00
   -6    0   30     -3.71      0.00
   -4    0   30     -0.29      0.00
   -2    0   30      2.27      0.00
    0    0   30     -2.80      0.00
    2    0   30     -0.43      0.00
    4    0   30      0.40      0.00
  -15    1   30     -2.40      0.00
  -13    1   30      1.14      0.00
  -11    1   30     -0.84      0.00
   -9    1   30     -5.86      0.00
   -7    1   30      5.75      0.00
   -5    1   30      2.28      0.00
   -3    1   30     -1.47      0.00
   -1    1   30      2.90      0.00
    1    1   30      1.85      0.00
    3    1   30     -1.68      0.00
    5    1   30      5.20      0.00
  -14    2   30     -5.12      0.00
  -12    2   30     -7.24      0.00
  -10    2   30      3.88      0.00
   -8    2   30     -3.36      0.00
   -6    2   30     -8.30      0.00
   -4    2   30     -0.34      0.00
   -2    2   30     -4.03      0.00
    0    2   30     -2.69      0.00
    2    2   30      0.77      0.00
    4    2   30     -3.27      0.00
  -13    3   30      4.65      0.00
  -11    3   30      3.81      0.00
   -9    3   30     -0.94      0.00
   -7    3   30      3.30      0.00
   -5    3   30      5.16      0.00
   -3    3   30      4.26      0.00
   -1    3   30     -1.02      0.00
    1    3   30      1.19      0.00
  -10    4   30     -4.59      0.00
   -8    4   30      3.54      0.00
   -6    4   30      0.33      0.00
   -4    4   30     -3.69      0.00
  -13    1   31     -3.43      0.00
  -11    1   31     -2.29      0.00
   -9    1   31      0.02      0.00
   -7    1   31     -5.30      0.00
   -5    1   31     -3.05      0.00
   -3    1   31      3.72      0.00
   -1    1   31     -1.00      0.00
    1    1   31      4.04      0.00
  -12    2   31      3.00      0.00
  -10    2   31      1.72      0.00
   -8    2   31      3.44      0.00
   -6    2   31      2.54      0.00
   -4    2   31     -0.80      0.00
   -2    2   31     -3.71      0.00
    0    2   31     -3.85      0.00
   -9    3   31     -2.27      0.00
   -7    3   31      0.61      0.00
   -5    3   31      0.62      0.00
   -3    3   31      1.08      0.00
  -10    0   32      1.07      0.00
   -8    0   32     -1.15      0.00
   -6    0   32     -0.74      0.00
   -4    0   32      4.05      0.00
   -9    1   32      4.85      0.00
   -7    1   32     -0.05      0.00
   -5    1   32     -0.67      0.00
   31    1    0      0.21      0.00
   31    3    0      1.34      0.00
   30    4    0     -5.68      0.00
   29    5    0      1.84      0.00
   31    5    0     -0.91      0.00
   28    6    0      0.16      0.00
   30    6    0      2.45      0.00
   27    7    0     -0.90      0.00
   24    8    0     -3.70      0.00
   26    8    0     -2.45      0.00
   21    9    0     -2.05      0.00
   23    9    0     -9.90      0.00
   18   10    0      4.71      0.00
   20   10    0      8.30      0.00
   22   10    0      4.01      0.00
   13   11    0      1.40      0.00
   15   11    0      9.62      0.00
   17   11    0     -3.53      0.00
    4   12    0      4.53      0.00
    6   12    0      1.78      0.00
    8   12    0     -5.53      0.00
   10   12    0      3.83      0.00
   12   12    0      1.02      0.00
   14   12    0     -4.38      0.00
  -31    1    1     -4.55      0.00
   31    1    1      0.16      0.00
  -31    3    1     -5.60      0.00
   31    3    1     -3.07      0.00
  -30    4    1      3.23      0.00
   30    4    1      2.86      0.00
  -31    5    1      0.41      0.00
  -29    5    1      2.99      0.00
   29    5    1      2.78      0.00
   31    5    1      0.76      0.00
  -30    6    1     -0.77      0.00
  -28    6    1     -2.38      0.00
   28    6    1     -3.50      0.00
  -27    7    1      3.82      0.00
   25    7    1      3.18      0.00
   27    7    1      1.77      0.00
  -26    8    1     -4.58      0.00
  -24    8    1     -4.18      0.00
   24    8    1     -1.42      0.00
   26    8    1     -2.74      0.00
  -23    9    1      0.98      0.00
  -21    9    1     -5.45      0.00
   21    9    1     -4.17      0.00
   23    9    1     -1.01      0.00
  -22   10    1     -2.61      0.00
  -20   10    1      0.76      0.00
  -18   10    1     -4.97      0.00
   18   10    1    -12.85      0.00
   20   10    1     -1.00      0.00
  -17   11    1      0.83      0.00
  -15   11    1     -7.19      0.00
  -13   11    1    -14.07      0.00
   13   11    1      5.73      0.00
   15   11    1      2.52      0.00
   17   11    1      4.12      0.00
  -14   12    1      5.64      0.00
  -12   12    1      3.58      0.00
  -10   12    1     -1.98      0.00
   -8   12    1     10.60      0.00
   -6   12    1      5.55      0.00
   -4   12    1     15.74      0.00
    4   12    1     10.49      0.00
    6   12    1     -3.18      0.00
    8   12    1      5.85      0.00
   10   12    1     -4.74      0.00
   12   12    1     -4.72      0.00
   14   12    1     -0.17      0.00
    0    0    2   -270.37      0.00
   31    1    2      0.68      0.00
   30    2    2      1.08      0.00
  -31    3    2      0.80      0.00
   31    3    2      2.55      0.00
  -30    4    2      2.80      0.00
   30    4    2     -0.16      0.00
  -31    5    2      1.11      0.00
  -29    5    2     -0.46      0.00
   29    5    2     -3.05      0.00
  -30    6    2     -0.98      0.00
  -28    6    2      1.21      0.00
   28    6    2      0.40      0.00
  -27    7    2      0.18      0.00
   25    7    2      6.07      0.00
   27    7    2      6.54      0.00
  -26    8    2      2.26      0.00
  -24    8    2      3.75      0.00
   24    8    2      0.55      0.00
   26    8    2     -1.16      0.00
  -25    9    2     -7.69      0.00
  -23    9    2      7.12      0.00
  -21    9    2      0.20      0.00
   21    9    2      1.83      0.00
   23    9    2      6.76      0.00
  -22   10    2     -2.23      0.00
  -20   10    2     -1.89      0.00
  -18   10    2      3.79      0.00
   18   10    2      0.23      0.00
   20   10    2     -2.40      0.00
  -19   11    2     -0.28      0.00
  -17   11    2      2.79      0.00
  -15   11    2     -6.28      0.00
  -13   11    2     -2.10      0.00
   13   11    2      3.15      0.00
   15   11    2     -9.20      0.00
   17   11    2     -0.20      0.00
  -14   12    2      4.36      0.00
  -12   12    2     -2.46      0.00
  -10   12    2     -4.04      0.00
   -8   12    2      7.95      0.00
   -6   12    2      0.59      0.00
   -4   12    2     -2.79      0.00
    4   12    2     -2.35      0.00
    6   12    2      0.35      0.00
    8   12    2      3.12      0.00
   10   12    2     -1.01      0.00
   12   12    2     -1.55      0.00
   31    1    3      0.31      0.00
   30    2    3      3.38      0.00
  -31    3    3      2.39      0.00
   31    3    3     -1.12      0.00
  -30    4    3     -0.62      0.00
   30    4    3     -4.31      0.00
  -31    5    3      1.88      0.00
  -29    5    3     -0.62      0.00
   29    5    3      3.79      0.00
  -30    6    3     -1.55      0.00
  -28    6    3      2.41      0.00
   26    6    3      4.48      0.00
   28    6    3     -0.46      0.00
  -29    7    3      0.22      0.00
  -27    7    3     -1.40      0.00
   25    7    3     -3.83      0.00
   27    7    3     -2.93      0.00
  -26    8    3     -2.05      0.00
  -24    8    3      2.83      0.00
   24    8    3      0.51      0.00
   26    8    3      1.45      0.00
  -25    9    3     -2.16      0.00
  -23    9    3     -1.81      0.00
  -21    9    3      7.88      0.00
   21    9    3      5.51      0.00
   23    9    3      2.11      0.00
  -22   10    3     -3.01      0.00
  -20   10    3     -5.05      0.00
  -18   10    3     -1.63      0.00
   18   10    3      2.93      0.00
   20   10    3     -3.14      0.00
  -19   11    3      0.44      0.00
  -17   11    3     -4.83      0.00
  -15   11    3     -1.03      0.00
   13   11    3     -1.67      0.00
   15   11    3      0.39      0.00
   17   11    3      0.67      0.00
  -14   12    3     -4.15      0.00
  -12   12    3     -5.31      0.00
  -10   12    3      6.79      0.00
   -8   12    3     -2.64      0.00
   -6   12    3     -1.85      0.00
   -4   12    3      0.71      0.00
    2   12    3      9.73      0.00
    4   12    3     -5.76      0.00
    6   12    3      1.92      0.00
    8   12    3    -11.04      0.00
   10   12    3     -7.35      0.00
   12   12    3     -0.55      0.00
   30    0    4     -1.04      0.00
   31    1    4     -1.68      0.00
   30    2    4     -1.12      0.00
  -31    3    4     -1.93      0.00
   29    3    4      2.08      0.00
   31    3    4      0.30      0.00
  -30    4    4      0.31      0.00
   30    4    4     -1.44      0.00
  -31    5    4      2.86      0.00
  -29    5    4     -0.10      0.00
   29    5    4     -0.71      0.00
  -30    6    4     -3.99      0.00
  -28    6    4      0.14      0.00
   26    6    4      6.41      0.00
   28    6    4      2.16      0.00
  -29    7    4      1.09      0.00
  -27    7    4     -2.45      0.00
   25    7    4     -3.80      0.00
   27    7    4     -3.65      0.00
  -26    8    4     -4.91      0.00
  -24    8    4     -5.05      0.00
   22    8    4      5.37      0.00
   24    8    4     -1.12      0.00
  -25    9    4      9.03      0.00
  -23    9    4     -8.31      0.00
  -21    9    4     -8.84      0.00
   21    9    4     -0.70      0.00
   23    9    4     -0.93      0.00
  -22   10    4      5.49      0.00
  -20   10    4      2.27      0.00
  -18   10    4      2.44      0.00
   18   10    4     -2.22      0.00
   20   10    4     -1.22      0.00
  -19   11    4      2.62      0.00
  -17   11    4     -1.82      0.00
  -15   11    4      3.40      0.00
  -13   11    4      3.83      0.00
   13   11    4     -5.35      0.00
   15   11    4      4.82      0.00
   17   11    4      1.99      0.00
  -14   12    4     -7.11      0.00
  -12   12    4      0.58      0.00
  -10   12    4      6.50      0.00
   -8   12    4     -0.41      0.00
   -6   12    4      1.88      0.00
   -4   12    4      3.28      0.00
   -2   12    4      6.15      0.00
    0   12    4      3.58      0.00
    2   12    4      1.74      0.00
    4   12    4      4.54      0.00
    6   12    4     -1.98      0.00
    8   12    4     -0.80      0.00
   10   12    4     -1.26      0.00
   12   12    4      2.92      0.00
   31    1    5     -2.03      0.00
   30    2    5      0.83      0.00
  -31    3    5     -1.37      0.00
   29    3    5     -2.20      0.00
   31    3    5      0.79      0.00
  -30    4    5     -1.00      0.00
   28    4    5     -0.09      0.00
   30    4    5      0.36      0.00
  -31    5    5     -3.59      0.00
  -29    5    5      2.50      0.00
   27    5    5      1.85      0.00
   29    5    5     -1.49      0.00
  -30    6    5      0.99      0.00
  -28    6    5     -6.49      0.00
   26    6    5     -3.24      0.00
   28    6    5      0.99      0.00
  -29    7    5      2.03      0.00
  -27    7    5      3.17      0.00
   25    7    5      0.00      0.00
   27    7    5     -0.04      0.00
  -26    8    5      3.09      0.00
  -24    8    5     -2.08      0.00
   22    8    5     -0.16      0.00
   24    8    5      0.18      0.00
  -25    9    5     -0.43      0.00
  -23    9    5      0.39      0.00
  -21    9    5    -10.95      0.00
   19    9    5      1.24      0.00
   21    9    5      0.29      0.00
   23    9    5      1.10      0.00
  -22   10    5      2.93      0.00
  -20   10    5     -2.83      0.00
  -18   10    5     -2.65      0.00
   16   10    5      0.95      0.00
   18   10    5     -3.35      0.00
   20   10    5     -0.63      0.00
  -19   11    5      1.26      0.00
  -17   11    5      6.97      0.00
  -15   11    5     11.46      0.00
  -13   11    5    -10.61      0.00
   11   11    5     -6.45      0.00
   13   11    5     -2.80      0.00
   15   11    5     -2.51      0.00
   17   11    5     -2.10      0.00
  -14   12    5      1.06      0.00
  -12   12    5      5.32      0.00
  -10   12    5     -7.45      0.00
   -8   12    5     -1.89      0.00
   -6   12    5      1.13      0.00
   -4   12    5     -9.53      0.00
   -2   12    5     -1.96      0.00
    0   12    5      0.73      0.00
    2   12    5     -4.87      0.00
    4   12    5      7.15      0.00
    6   12    5     -2.10      0.00
    8   12    5      5.95      0.00
   10   12    5      9.22      0.00
   12   12    5      1.32      0.00
   30    0    6     -2.00      0.00
   31    1    6      3.03      0.00
   30    2    6      0.15      0.00
  -31    3    6     -0.10      0.00
   29    3    6     -4.44      0.00
   31    3    6     -1.46      0.00
  -30    4    6     -4.07      0.00
   28    4    6      0.17      0.00
   30    4    6      1.04      0.00
  -31    5    6      0.53      0.00
  -29    5    6      2.01      0.00
   27    5    6      0.97      0.00
   29    5    6     -0.05      0.00
  -30    6    6      5.74      0.00
  -28    6    6     -0.63      0.00
   26    6    6     -1.61      0.00
   28    6    6     -0.72      0.00
  -29    7    6     -7.69      0.00
  -27    7    6     -0.49      0.00
   25    7    6      3.10      0.00
  -26    8    6      6.19      0.00
  -24    8    6      3.60      0.00
   22    8    6     -1.00      0.00
   24    8    6      2.68      0.00
  -25    9    6     -5.09      0.00
  -23    9    6      5.64      0.00
  -21    9    6      9.09      0.00
   19    9    6     -2.20      0.00
   21    9    6      2.14      0.00
  -22   10    6     -5.46      0.00
  -20   10    6     -1.46      0.00
  -18   10    6     -6.69      0.00
   16   10    6     -3.27      0.00
   18   10    6     -3.35      0.00
   20   10    6     -1.68      0.00
  -19   11    6      1.89      0.00
  -17   11    6      5.86      0.00
  -15   11    6      2.50      0.00
  -13   11    6     -3.00      0.00
   11   11    6     -0.72      0.00
   13   11    6     -1.80      0.00
   15   11    6      0.58      0.00
  -14   12    6     -1.69      0.00
  -12   12    6      0.37      0.00
  -10   12    6     -5.74      0.00
   -8   12    6     -5.35      0.00
   -6   12    6      1.94      0.00
   -4   12    6      2.98      0.00
   -2   12    6     -3.51      0.00
    0   12    6      1.11      0.00
    2   12    6      4.88      0.00
    4   12    6     -0.68      0.00
    6   12    6      4.13      0.00
    8   12    6      1.19      0.00
   10   12    6      2.04      0.00
   29    1    7     -2.75      0.00
   31    1    7      1.76      0.00
   30    2    7     -1.14      0.00
  -31    3    7      0.10      0.00
   29    3    7      3.14      0.00
  -30    4    7      0.19      0.00
   28    4    7     -1.71      0.00
   30    4    7     -2.20      0.00
  -31    5    7      4.17      0.00
  -29    5    7     -1.30      0.00
   27    5    7      0.25      0.00
   29    5    7      2.03      0.00
  -30    6    7     -3.01      0.00
  -28    6    7      3.35      0.00
   26    6    7      2.40      0.00
  -29    7    7     -1.09      0.00
  -27    7    7      0.36      0.00
   23    7    7     -1.09      0.00
   25    7    7     -1.36      0.00
  -26    8    7     -0.77      0.00
  -24    8    7      1.88      0.00
   22    8    7      0.43      0.00
   24    8    7      0.56      0.00
  -25    9    7      0.21      0.00
  -23    9    7     -4.03      0.00
  -21    9    7      5.15      0.00
   19    9    7      1.59      0.00
   21    9    7      0.44      0.00
  -22   10    7     -5.40      0.00
  -20   10    7      1.28      0.00
  -18   10    7     -4.68      0.00
   16   10    7      2.83      0.00
   18   10    7      3.30      0.00
  -17   11    7     -0.17      0.00
  -15   11    7    -14.39      0.00
  -13   11    7      9.35      0.00
   11   11    7      0.04      0.00
   13   11    7     -3.91      0.00
   15   11    7     -1.42      0.00
  -12   12    7     -5.51      0.00
  -10   12    7      1.01      0.00
   -8   12    7     -6.03      0.00
   -6   12    7     -8.12      0.00
   -4   12    7      3.61      0.00
   -2   12    7     -3.82      0.00
    0   12    7     -1.41      0.00
    2   12    7      3.76      0.00
    4   12    7     -8.57      0.00
    6   12    7     -0.01      0.00
    8   12    7      2.86      0.00
   10   12    7     -1.25      0.00
  -30    0    8     -3.52      0.00
   30    0    8      3.57      0.00
   29    1    8     -0.53      0.00
   31    1    8     -1.00      0.00
   28    2    8      1.28      0.00
   30    2    8      1.96      0.00
  -31    3    8      3.00      0.00
   29    3    8      0.35      0.00
  -30    4    8      2.14      0.00
   28    4    8      0.72      0.00
  -31    5    8     -1.64      0.00
  -29    5    8      5.32      0.00
   27    5    8     -2.54      0.00
  -30    6    8     -4.37      0.00
  -28    6    8     -3.17      0.00
   26    6    8      0.83      0.00
  -29    7    8      1.83      0.00
  -27    7    8     -6.68      0.00
   23    7    8     -3.92      0.00
   25    7    8     -3.31      0.00
  -26    8    8      0.00      0.00
  -24    8    8      5.60      0.00
   22    8    8      4.88      0.00
   24    8    8      5.11      0.00
  -25    9    8      4.79      0.00
  -23    9    8      1.19      0.00
  -21    9    8     -4.76      0.00
   19    9    8      0.34      0.00
   21    9    8     -5.41      0.00
  -22   10    8      4.60      0.00
  -20   10    8      2.63      0.00
  -18   10    8      9.77      0.00
   14   10    8    -11.02      0.00
   16   10    8     -2.96      0.00
   18   10    8      1.02      0.00
  -17   11    8     -3.78      0.00
  -15   11    8     -3.56      0.00
  -13   11    8      3.95      0.00
    9   11    8      8.78      0.00
   11   11    8      5.00      0.00
   13   11    8      8.17      0.00
   15   11    8      1.62      0.00
  -12   12    8    -11.62      0.00
  -10   12    8     -4.96      0.00
   -8   12    8      3.73      0.00
   -6   12    8     -6.02      0.00
   -4   12    8     -1.14      0.00
   -2   12    8      4.56      0.00
    0   12    8      2.08      0.00
    2   12    8     -0.81      0.00
    4   12    8     -0.26      0.00
    6   12    8     -5.30      0.00
    8   12    8     -5.07      0.00
   10   12    8     -3.07      0.00
  -31    1    9      3.12      0.00
   29    1    9     -0.16      0.00
   28    2    9     -3.72      0.00
   30    2    9      1.37      0.00
  -31    3    9      2.76      0.00
   27    3    9      1.87      0.00
   29    3    9     -0.63      0.00
  -30    4    9      3.84      0.00
   28    4    9      0.44      0.00
  -31    5    9     -6.64      0.00
  -29    5    9     -1.21      0.00
   25    5    9      2.24      0.00
   27    5    9     -0.04      0.00
  -30    6    9      0.46      0.00
  -28    6    9      0.71      0.00
   24    6    9      0.20      0.00
   26    6    9      0.53      0.00
  -29    7    9      2.18      0.00
  -27    7    9     -2.59      0.00
   23    7    9      1.50      0.00
   25    7    9      0.09      0.00
  -26    8    9     -0.06      0.00
  -24    8    9     -0.32      0.00
   20    8    9      1.00      0.00
   22    8    9     -0.05      0.00
  -23    9    9      1.89      0.00
  -21    9    9     -0.28      0.00
   17    9    9      2.20      0.00
   19    9    9     -0.86      0.00
   21    9    9      1.29      0.00
  -22   10    9      5.01      0.00
  -20   10    9     -1.67      0.00
  -18   10    9      3.72      0.00
   14   10    9      3.15      0.00
   16   10    9     -0.57      0.00
   18   10    9     -1.02      0.00
  -17   11    9      1.19      0.00
  -15   11    9     13.75      0.00
  -13   11    9     -7.51      0.00
  -11   11    9      3.68      0.00
    9   11    9     -0.63      0.00
   11   11    9     -2.51      0.00
   13   11    9      1.09      0.00
  -12   12    9     -0.49      0.00
  -10   12    9     -4.92      0.00
   -8   12    9      4.87      0.00
   -6   12    9      5.23      0.00
   -4   12    9     -2.32      0.00
   -2   12    9     -2.91      0.00
    0   12    9     -2.87      0.00
    2   12    9     -7.81      0.00
    4   12    9      5.61      0.00
    6   12    9      4.19      0.00
    8   12    9     -3.63      0.00
  -30    0   10      0.45      0.00
   28    0   10      6.80      0.00
   30    0   10     -1.12      0.00
  -31    1   10     -2.05      0.00
   29    1   10     -0.78      0.00
   28    2   10      0.54      0.00
   30    2   10      0.91      0.00
  -31    3   10      2.51      0.00
   27    3   10      4.25      0.00
   29    3   10     -1.16      0.00
  -30    4   10     -6.87      0.00
   26    4   10     -0.99      0.00
   28    4   10     -0.29      0.00
  -31    5   10      1.69      0.00
  -29    5   10     -4.04      0.00
   25    5   10      1.16      0.00
   27    5   10      1.77      0.00
  -30    6   10      2.22      0.00
  -28    6   10     11.19      0.00
   24    6   10     -1.31      0.00
   26    6   10     -2.81      0.00
  -27    7   10     -8.93      0.00
   23    7   10     -2.75      0.00
   25    7   10     -2.60      0.00
  -26    8   10      7.72      0.00
  -24    8   10     -4.24      0.00
   20    8   10      1.49      0.00
   22    8   10      7.68      0.00
  -23    9   10     -1.70      0.00
  -21    9   10      2.08      0.00
   17    9   10      1.16      0.00
   19    9   10     -0.51      0.00
  -20   10   10      1.28      0.00
  -18   10   10      2.28      0.00
   14   10   10     -2.39      0.00
   16   10   10     -2.61      0.00
   18   10   10     -5.90      0.00
  -17   11   10      1.86      0.00
  -15   11   10      4.46      0.00
  -13   11   10     -2.70      0.00
  -11   11   10     -6.42      0.00
    7   11   10      2.53      0.00
    9   11   10     -6.58      0.00
   11   11   10     -1.46      0.00
   13   11   10     -3.13      0.00
  -12   12   10      4.88      0.00
  -10   12   10     -1.01      0.00
   -8   12   10     -5.23      0.00
   -6   12   10      6.63      0.00
   -4   12   10     -0.19      0.00
   -2   12   10     -2.08      0.00
    0   12   10      0.41      0.00
    2   12   10     -1.73      0.00
    4   12   10     -1.16      0.00
    6   12   10      0.22      0.00
    8   12   10      1.72      0.00
  -31    1   11     -2.11      0.00
   27    1   11     -6.90      0.00
   29    1   11     -0.12      0.00
   28    2   11      3.82      0.00
  -31    3   11     -1.23      0.00
   27    3   11      1.25      0.00
   29    3   11     -1.09      0.00
  -30    4   11      0.51      0.00
   26    4   11     -2.10      0.00
   28    4   11     -3.87      0.00
  -31    5   11      3.74      0.00
  -29    5   11     -6.54      0.00
   25    5   11     -3.84      0.00
   27    5   11      2.74      0.00
  -30    6   11      4.10      0.00
  -28    6   11     -0.60      0.00
   24    6   11      3.70      0.00
   26    6   11      2.13      0.00
  -27    7   11      4.35      0.00
  -25    7   11      2.76      0.00
   21    7   11      1.41      0.00
   23    7   11     -1.33      0.00
  -26    8   11     -0.69      0.00
  -24    8   11     -2.50      0.00
   20    8   11     -0.93      0.00
   22    8   11     -2.06      0.00
  -23    9   11      0.66      0.00
  -21    9   11     -1.56      0.00
   17    9   11      3.91      0.00
   19    9   11      3.98      0.00
  -20   10   11     -1.96      0.00
  -18   10   11     -7.14      0.00
  -16   10   11      4.28      0.00
   12   10   11     -5.50      0.00
   14   10   11     -1.28      0.00
   16   10   11      0.24      0.00
  -17   11   11      0.67      0.00
  -15   11   11     -6.12      0.00
  -13   11   11      5.91      0.00
  -11   11   11     -6.93      0.00
   -9   11   11     -7.89      0.00
    5   11   11      6.44      0.00
    7   11   11     -4.02      0.00
    9   11   11     -6.58      0.00
   11   11   11      0.35      0.00
   13   11   11      1.02      0.00
  -10   12   11      4.80      0.00
   -8   12   11     -2.04      0.00
   -6   12   11     -5.69      0.00
   -4   12   11     -3.88      0.00
   -2   12   11      0.12      0.00
    0   12   11     -3.84      0.00
    2   12   11      2.47      0.00
    4   12   11     -3.03      0.00
    6   12   11     -5.21      0.00
  -30    0   12      4.39      0.00
   28    0   12     -0.41      0.00
  -31    1   12     -2.63      0.00
   27    1   12      1.09      0.00
   29    1   12     -0.85      0.00
   26    2   12      0.91      0.00
   28    2   12     -0.43      0.00
  -31    3   12     -1.63      0.00
   27    3   12     -1.56      0.00
  -30    4   12      8.62      0.00
   26    4   12      1.14      0.00
  -31    5   12     -4.58      0.00
  -29    5   12     -6.82      0.00
   25    5   12     -0.10      0.00
  -30    6   12      4.49      0.00
  -28    6   12     -3.79      0.00
   22    6   12     -1.98      0.00
   24    6   12     -1.73      0.00
  -27    7   12      6.91      0.00
  -25    7   12     -1.38      0.00
   21    7   12     -2.02      0.00
   23    7   12     -2.96      0.00
  -26    8   12     -4.49      0.00
  -24    8   12      4.72      0.00
   18    8   12      3.81      0.00
   20    8   12      7.31      0.00
   22    8   12     -0.21      0.00
  -23    9   12      2.34      0.00
  -21    9   12     -1.35      0.00
   15    9   12      0.82      0.00
   17    9   12      2.64      0.00
   19    9   12     -1.36      0.00
  -20   10   12      2.10      0.00
  -18   10   12     -5.65      0.00
  -16   10   12      8.19      0.00
   12   10   12      1.08      0.00
   14   10   12      1.76      0.00
   16   10   12     -3.83      0.00
  -17   11   12     -0.36      0.00
  -15   11   12     -2.71      0.00
  -13   11   12      3.58      0.00
  -11   11   12     -0.06      0.00
   -9   11   12     -1.33      0.00
    3   11   12     -6.22      0.00
    5   11   12     -3.86      0.00
    7   11   12     -2.57      0.00
    9   11   12      5.79      0.00
   11   11   12      1.51      0.00
  -10   12   12      5.20      0.00
   -8   12   12      3.24      0.00
   -6   12   12     -3.69      0.00
   -4   12   12      2.33      0.00
   -2   12   12      3.55      0.00
    0   12   12      2.49      0.00
    2   12   12      5.60      0.00
    4   12   12      5.44      0.00
    6   12   12      3.78      0.00
  -31    1   13      2.62      0.00
   27    1   13      1.40      0.00
   26    2   13      1.54      0.00
   28    2   13      2.36      0.00
  -31    3   13     -1.29      0.00
   25    3   13      2.62      0.00
   27    3   13     -3.81      0.00
  -30    4   13      2.88      0.00
   24    4   13     -1.27      0.00
   26    4   13     -2.53      0.00
  -31    5   13     -4.16      0.00
  -29    5   13      3.29      0.00
   23    5   13     -2.39      0.00
   25    5   13      4.11      0.00
  -28    6   13      0.37      0.00
   22    6   13      2.05      0.00
   24    6   13     -1.43      0.00
  -27    7   13      0.51      0.00
  -25    7   13     -0.87      0.00
   21    7   13     -1.35      0.00
   23    7   13      0.40      0.00
  -26    8   13      2.44      0.00
  -24    8   13      4.58      0.00
   18    8   13      1.55      0.00
   20    8   13     -2.29      0.00
  -23    9   13     -2.05      0.00
  -21    9   13      0.02      0.00
  -19    9   13     -7.73      0.00
   15    9   13      2.20      0.00
   17    9   13     -2.70      0.00
  -20   10   13      2.92      0.00
  -18   10   13      4.93      0.00
  -16   10   13     -4.97      0.00
   10   10   13     -1.58      0.00
   12   10   13      2.20      0.00
   14   10   13     -0.71      0.00
  -15   11   13      5.27      0.00
  -13   11   13     -0.43      0.00
  -11   11   13      7.57      0.00
   -9   11   13      8.20      0.00
   -7   11   13     -3.65      0.00
   -5   11   13     -0.70      0.00
    1   11   13      9.07      0.00
    3   11   13      9.85      0.00
    5   11   13     -3.13      0.00
    7   11   13     -1.09      0.00
    9   11   13      2.57      0.00
   11   11   13     -0.74      0.00
   -8   12   13     -4.09      0.00
   -6   12   13      0.90      0.00
   -4   12   13     -1.29      0.00
   -2   12   13     -4.80      0.00
    0   12   13     -4.38      0.00
    2   12   13     -6.41      0.00
    4   12   13     -4.16      0.00
  -30    0   14     -6.18      0.00
   26    0   14     -1.13      0.00
   28    0   14     -2.53      0.00
  -31    1   14      1.53      0.00
   25    1   14      0.51      0.00
   27    1   14      2.65      0.00
  -30    2   14      2.87      0.00
   26    2   14     -2.16      0.00
  -31    3   14     -2.81      0.00
   25    3   14      0.88      0.00
   27    3   14     -1.47      0.00
  -30    4   14     -2.92      0.00
   24    4   14     -3.11      0.00
   26    4   14     -0.34      0.00
  -29    5   14      6.68      0.00
   23    5   14     -0.87      0.00
   25    5   14      5.33      0.00
  -28    6   14     -1.77      0.00
  -26    6   14      3.08      0.00
   22    6   14     -2.93      0.00
   24    6   14     -1.21      0.00
  -27    7   14     -0.58      0.00
  -25    7   14      3.17      0.00
   19    7   14      7.12      0.00
   21    7   14      3.62      0.00
  -26    8   14     -0.48      0.00
  -24    8   14      3.13      0.00
  -22    8   14      3.40      0.00
   18    8   14     -1.61      0.00
   20    8   14     -4.56      0.00
  -23    9   14     -3.87      0.00
  -21    9   14      2.99      0.00
  -19    9   14     -5.01      0.00
   13    9   14      4.05      0.00
   15    9   14      3.83      0.00
   17    9   14     -0.25      0.00
  -20   10   14     -1.72      0.00
  -18   10   14      8.03      0.00
  -16   10   14     -2.99      0.00
  -14   10   14     11.39      0.00
   10   10   14      1.27      0.00
   12   10   14     -0.86      0.00
   14   10   14     -5.10      0.00
  -15   11   14      1.78      0.00
  -13   11   14     -3.93      0.00
  -11   11   14      3.43      0.00
   -9   11   14     -1.85      0.00
   -7   11   14     -4.42      0.00
   -5   11   14     -1.37      0.00
   -3   11   14     -5.77      0.00
   -1   11   14     -4.00      0.00
    1   11   14     -8.68      0.00
    3   11   14     -3.54      0.00
    5   11   14     -0.56      0.00
    7   11   14      0.58      0.00
    9   11   14     -3.48      0.00
   -6   12   14      2.51      0.00
   -4   12   14      2.01      0.00
   -2   12   14      2.38      0.00
    0   12   14      2.25      0.00
    2   12   14      1.56      0.00
  -31    1   15      2.09      0.00
   25    1   15     -4.77      0.00
   27    1   15     -0.62      0.00
  -30    2   15     -4.79      0.00
   24    2   15      8.37      0.00
   26    2   15      3.24      0.00
  -31    3   15      2.30      0.00
   25    3   15     -4.06      0.00
  -30    4   15     -6.22      0.00
   24    4   15     -1.87      0.00
  -29    5   15      4.75      0.00
   23    5   15      2.13      0.00
  -28    6   15     -1.24      0.00
  -26    6   15      5.48      0.00
   20    6   15      2.17      0.00
   22    6   15     -1.46      0.00
  -27    7   15     -2.32      0.00
  -25    7   15      1.14      0.00
   19    7   15     -3.37      0.00
   21    7   15      0.59      0.00
  -24    8   15     -1.61      0.00
  -22    8   15      2.58      0.00
   16    8   15     -1.93      0.00
   18    8   15      0.38      0.00
  -23    9   15     -3.24      0.00
  -21    9   15     -2.48      0.00
  -19    9   15      2.49      0.00
   13    9   15     -4.30      0.00
   15    9   15     -2.95      0.00
   17    9   15      1.57      0.00
  -18   10   15     -3.99      0.00
  -16   10   15      1.43      0.00
  -14   10   15      1.90      0.00
    8   10   15      6.61      0.00
   10   10   15      3.76      0.00
   12   10   15      1.82      0.00
  -15   11   15      1.37      0.00
  -13   11   15      4.16      0.00
  -11   11   15      1.55      0.00
   -9   11   15      3.16      0.00
   -7   11   15      6.81      0.00
   -5   11   15      0.40      0.00
   -3   11   15     -1.49      0.00
   -1   11   15      2.73      0.00
    1   11   15     -4.18      0.00
    3   11   15     -7.09      0.00
    5   11   15      1.24      0.00
    7   11   15     -2.28      0.00
    9   11   15     -5.37      0.00
  -30    0   16      6.82      0.00
   14    0   16      2.14      0.00
   24    0   16     -6.03      0.00
   26    0   16     -0.34      0.00
  -31    1   16     -2.92      0.00
   25    1   16      5.15      0.00
  -30    2   16     -0.08      0.00
   24    2   16     -4.90      0.00
   26    2   16     -2.52      0.00
  -31    3   16      2.48      0.00
  -29    3   16      0.01      0.00
   23    3   16     -0.68      0.00
   25    3   16     -2.32      0.00
  -30    4   16     -0.50      0.00
  -28    4   16      1.57      0.00
   22    4   16     -4.12      0.00
   24    4   16      4.85      0.00
  -29    5   16     -0.50      0.00
  -27    5   16      4.01      0.00
   21    5   16      0.35      0.00
   23    5   16      1.71      0.00
  -28    6   16     -0.93      0.00
  -26    6   16     -1.29      0.00
   20    6   16      1.06      0.00
   22    6   16     -0.26      0.00
  -27    7   16     -1.58      0.00
  -25    7   16     -2.71      0.00
   17    7   16      2.47      0.00
   19    7   16      0.83      0.00
   21    7   16      0.76      0.00
  -24    8   16     -7.15      0.00
  -22    8   16     -2.26      0.00
   16    8   16     -1.81      0.00
   18    8   16     -2.76      0.00
  -21    9   16     -6.03      0.00
  -19    9   16      1.30      0.00
  -17    9   16      1.94      0.00
   11    9   16      5.94      0.00
   13    9   16      2.92      0.00
   15    9   16      0.91      0.00
  -18   10   16     -3.27      0.00
  -16   10   16      3.12      0.00
  -14   10   16     -2.49      0.00
  -12   10   16      0.99      0.00
    6   10   16      3.82      0.00
    8   10   16     -5.04      0.00
   10   10   16      1.92      0.00
   12   10   16      0.46      0.00
  -13   11   16      2.83      0.00
  -11   11   16     -0.95      0.00
   -9   11   16      1.09      0.00
   -7   11   16     -1.14      0.00
   -5   11   16     -3.73      0.00
   -3   11   16     -2.12      0.00
   -1   11   16     -4.63      0.00
    1   11   16     -3.14      0.00
    3   11   16     -0.83      0.00
    5   11   16     -1.89      0.00
    7   11   16     -2.89      0.00
  -31    1   17     -1.87      0.00
   23    1   17     -0.34      0.00
   25    1   17     -2.52      0.00
  -30    2   17      2.45      0.00
   24    2   17     -1.88      0.00
  -31    3   17      1.03      0.00
  -29    3   17     -3.59      0.00
   23    3   17      1.20      0.00
   25    3   17      2.67      0.00
  -30    4   17      0.46      0.00
  -28    4   17      4.13      0.00
   22    4   17      0.48      0.00
   24    4   17     -0.82      0.00
  -29    5   17     -2.23      0.00
  -27    5   17      3.17      0.00
   21    5   17     -1.06      0.00
   23    5   17      0.30      0.00
  -28    6   17     -0.05      0.00
  -26    6   17     -4.59      0.00
   20    6   17     -2.71      0.00
   22    6   17      0.29      0.00
  -25    7   17     -0.68      0.00
  -23    7   17     -4.17      0.00
   17    7   17     -3.10      0.00
   19    7   17      1.52      0.00
  -24    8   17      2.32      0.00
  -22    8   17      1.36      0.00
  -20    8   17      4.90      0.00
   14    8   17      3.26      0.00
   16    8   17      5.58      0.00
   18    8   17      1.20      0.00
  -21    9   17     -2.97      0.00
  -19    9   17     -1.80      0.00
  -17    9   17     -2.00      0.00
   11    9   17      0.82      0.00
   13    9   17     -0.56      0.00
   15    9   17     -3.89      0.00
  -18   10   17      3.45      0.00
  -16   10   17      1.19      0.00
  -14   10   17      0.25      0.00
  -12   10   17      0.16      0.00
  -10   10   17      7.36      0.00
    4   10   17      1.12      0.00
    6   10   17      3.26      0.00
    8   10   17     -3.51      0.00
   10   10   17     -0.74      0.00
  -11   11   17     -1.49      0.00
   -9   11   17     -3.55      0.00
   -7   11   17     -5.12      0.00
   -5   11   17      2.17      0.00
   -3   11   17      1.18      0.00
   -1   11   17     -2.79      0.00
    1   11   17     -1.60      0.00
    3   11   17      2.95      0.00
    5   11   17     -3.84      0.00
  -30    0   18     -9.66      0.00
   24    0   18     -3.95      0.00
  -31    1   18      2.46      0.00
  -29    1   18      2.27      0.00
   23    1   18      1.92      0.00
   25    1   18      0.74      0.00
  -30    2   18      2.55      0.00
   22    2   18     -0.21      0.00
   24    2   18      3.66      0.00
  -31    3   18     -2.16      0.00
  -29    3   18     -2.11      0.00
   21    3   18     -0.77      0.00
   23    3   18     -2.17      0.00
  -30    4   18      2.32      0.00
  -28    4   18     -1.95      0.00
   20    4   18     -6.37      0.00
   22    4   18     -0.51      0.00
  -29    5   18     -0.72      0.00
  -27    5   18     -0.09      0.00
   19    5   18      9.90      0.00
   21    5   18      2.66      0.00
  -28    6   18      1.86      0.00
  -26    6   18      0.21      0.00
   18    6   18     -6.56      0.00
   20    6   18     -3.22      0.00
  -25    7   18     -0.73      0.00
  -23    7   18     -8.59      0.00
   15    7   18     -0.96      0.00
   17    7   18      2.04      0.00
   19    7   18      1.26      0.00
  -24    8   18      5.73      0.00
  -22    8   18      3.75      0.00
  -20    8   18     -9.34      0.00
   12    8   18      0.96      0.00
   14    8   18     -2.50      0.00
   16    8   18     -2.08      0.00
  -21    9   18      4.16      0.00
  -19    9   18      3.56      0.00
  -17    9   18      0.77      0.00
  -15    9   18      4.78      0.00
    9    9   18     -0.09      0.00
   11    9   18     -1.69      0.00
   13    9   18      1.48      0.00
  -16   10   18     -3.92      0.00
  -14   10   18     -3.11      0.00
  -12   10   18     -4.77      0.00
  -10   10   18      0.85      0.00
   -8   10   18     -6.38      0.00
   -6   10   18      4.62      0.00
   -2   10   18      3.78      0.00
    0   10   18     -5.16      0.00
    2   10   18      0.94      0.00
    4   10   18     -1.32      0.00
    6   10   18     -3.82      0.00
    8   10   18      3.80      0.00
   10   10   18     -2.86      0.00
  -11   11   18     -0.52      0.00
   -9   11   18      1.11      0.00
   -7   11   18      0.12      0.00
   -5   11   18     -0.01      0.00
   -3   11   18      1.15      0.00
   -1   11   18     -0.16      0.00
    1   11   18      1.40      0.00
    3   11   18     -0.15      0.00
  -31    1   19      4.02      0.00
  -29    1   19      4.60      0.00
   23    1   19     -0.25      0.00
  -30    2   19     -0.79      0.00
   22    2   19      0.64      0.00
   24    2   19     -0.68      0.00
  -31    3   19     -4.08      0.00
  -29    3   19     -3.82      0.00
   21    3   19     -1.23      0.00
   23    3   19     -1.73      0.00
  -30    4   19      3.11      0.00
  -28    4   19      0.13      0.00
   20    4   19      1.52      0.00
   22    4   19      0.39      0.00
  -29    5   19      4.07      0.00
  -27    5   19     -0.47      0.00
   19    5   19     -7.05      0.00
   21    5   19      3.93      0.00
  -26    6   19     -1.27      0.00
  -24    6   19     -3.66      0.00
   18    6   19      3.50      0.00
   20    6   19      0.91      0.00
  -25    7   19     -1.33      0.00
  -23    7   19      2.24      0.00
   15    7   19      1.42      0.00
   17    7   19      4.08      0.00
  -22    8   19     -0.61      0.00
  -20    8   19     -2.76      0.00
   12    8   19      1.26      0.00
   14    8   19     -1.70      0.00
   16    8   19     -2.93      0.00
  -19    9   19     -2.43      0.00
  -17    9   19      0.18      0.00
  -15    9   19     -1.75      0.00
    7    9   19     -3.10      0.00
    9    9   19      0.20      0.00
   11    9   19     -1.02      0.00
   13    9   19     -0.57      0.00
  -16   10   19      0.51      0.00
  -14   10   19      1.15      0.00
  -12   10   19      2.04      0.00
  -10   10   19     -3.35      0.00
   -8   10   19      5.72      0.00
   -6   10   19      1.67      0.00
   -4   10   19      3.22      0.00
   -2   10   19      4.66      0.00
    0   10   19     -3.98      0.00
    2   10   19      3.63      0.00
    4   10   19      2.93      0.00
    6   10   19      2.97      0.00
    8   10   19      2.94      0.00
   -7   11   19      0.98      0.00
   -5   11   19     -0.80      0.00
   -3   11   19     -1.59      0.00
   -1   11   19     -0.19      0.00
    1   11   19      2.14      0.00
  -30    0   20      5.88      0.00
   22    0   20     -6.11      0.00
  -31    1   20     -2.78      0.00
  -29    1   20     -0.66      0.00
   21    1   20      2.99      0.00
   23    1   20      0.07      0.00
  -30    2   20     -0.41      0.00
  -28    2   20     -0.81      0.00
   20    2   20     -0.53      0.00
   22    2   20      4.28      0.00
  -29    3   20      1.17      0.00
  -27    3   20     -4.37      0.00
   21    3   20     -2.84      0.00
  -28    4   20      3.95      0.00
  -26    4   20      7.82      0.00
   18    4   20      3.77      0.00
   20    4   20      2.51      0.00
   22    4   20      1.07      0.00
  -27    5   20     -3.21      0.00
  -25    5   20     -3.07      0.00
   17    5   20      0.88      0.00
   19    5   20     -6.15      0.00
  -26    6   20      1.33      0.00
  -24    6   20     -2.28      0.00
   16    6   20      1.50      0.00
   18    6   20      5.07      0.00
  -25    7   20      0.47      0.00
  -23    7   20      3.56      0.00
  -21    7   20      4.08      0.00
   13    7   20     -6.41      0.00
   15    7   20     -2.39      0.00
   17    7   20     -4.70      0.00
  -22    8   20     -3.79      0.00
  -20    8   20      3.52      0.00
  -18    8   20      3.27      0.00
   10    8   20     -5.95      0.00
   12    8   20     -3.60      0.00
   14    8   20     -0.54      0.00
  -19    9   20     -4.71      0.00
  -17    9   20     -1.95      0.00
  -15    9   20     -1.26      0.00
  -13    9   20     -5.56      0.00
    5    9   20     -6.46      0.00
    7    9   20      4.99      0.00
    9    9   20      0.32      0.00
   11    9   20      4.07      0.00
  -14   10   20      0.73      0.00
  -12   10   20      4.31      0.00
  -10   10   20     -0.14      0.00
   -8   10   20      4.36      0.00
   -6   10   20     -1.81      0.00
   -4   10   20      4.54      0.00
   -2   10   20     -0.16      0.00
    0   10   20      2.25      0.00
    2   10   20     -1.20      0.00
    4   10   20      3.63      0.00
    6   10   20      1.16      0.00
  -31    1   21     -0.76      0.00
  -29    1   21      3.03      0.00
   21    1   21      5.05      0.00
  -30    2   21     -0.87      0.00
  -28    2   21     -6.60      0.00
   20    2   21     -2.21      0.00
   22    2   21     -2.12      0.00
  -29    3   21      1.71      0.00
  -27    3   21     -0.14      0.00
   19    3   21      2.91      0.00
   21    3   21     -1.93      0.00
  -28    4   21      2.30      0.00
  -26    4   21      2.10      0.00
   18    4   21     -3.99      0.00
   20    4   21      0.87      0.00
  -27    5   21      0.16      0.00
  -25    5   21     -2.77      0.00
   17    5   21     -4.19      0.00
   19    5   21      3.32      0.00
  -26    6   21     -0.54      0.00
  -24    6   21     -0.64      0.00
  -22    6   21     -2.08      0.00
   14    6   21     -2.00      0.00
   16    6   21      4.36      0.00
   18    6   21     -1.88      0.00
  -23    7   21      0.79      0.00
  -21    7   21      0.30      0.00
   13    7   21     -0.75      0.00
   15    7   21      0.94      0.00
  -22    8   21      0.24      0.00
  -20    8   21      3.82      0.00
  -18    8   21     -1.51      0.00
  -16    8   21     -3.83      0.00
    8    8   21     -0.64      0.00
   10    8   21     -1.23      0.00
   12    8   21      0.43      0.00
  -17    9   21     -0.54      0.00
  -15    9   21      2.48      0.00
  -13    9   21      1.30      0.00
  -11    9   21     -0.10      0.00
   -9    9   21      0.25      0.00
    1    9   21      0.81      0.00
    3    9   21      0.28      0.00
    5    9   21      1.85      0.00
    7    9   21      0.39      0.00
    9    9   21     -0.60      0.00
  -12   10   21     -0.76      0.00
  -10   10   21      1.50      0.00
   -8   10   21     -3.61      0.00
   -6   10   21     -2.50      0.00
   -4   10   21      1.31      0.00
   -2   10   21     -3.76      0.00
    0   10   21      1.49      0.00
    2   10   21      0.06      0.00
    4   10   21      0.55      0.00
  -30    0   22      0.19      0.00
  -28    0   22     10.94      0.00
   20    0   22      7.77      0.00
   22    0   22      3.95      0.00
  -29    1   22     -2.03      0.00
  -27    1   22     -5.50      0.00
   19    1   22     -3.01      0.00
   21    1   22     -5.19      0.00
  -30    2   22     -3.11      0.00
  -28    2   22     -2.48      0.00
   18    2   22     -3.03      0.00
   20    2   22      0.94      0.00
  -29    3   22      1.27      0.00
  -27    3   22      4.60      0.00
   17    3   22      5.67      0.00
   19    3   22      2.88      0.00
   21    3   22      1.58      0.00
  -28    4   22      1.65      0.00
  -26    4   22     -4.06      0.00
   16    4   22      1.18      0.00
   18    4   22     -4.96      0.00
   20    4   22     -1.22      0.00
  -27    5   22     -1.18      0.00
  -25    5   22     -0.06      0.00
  -23    5   22     -3.65      0.00
   15    5   22     -1.26      0.00
   17    5   22     -1.88      0.00
  -24    6   22      2.37      0.00
  -22    6   22      1.75      0.00
   14    6   22      4.15      0.00
   16    6   22      3.30      0.00
  -23    7   22      0.49      0.00
  -21    7   22     -4.18      0.00
  -19    7   22      1.14      0.00
   11    7   22     -6.15      0.00
   13    7   22      0.18      0.00
   15    7   22     -2.94      0.00
  -20    8   22     -0.12      0.00
  -18    8   22     -5.61      0.00
  -16    8   22      0.08      0.00
  -14    8   22      2.89      0.00
    6    8   22     -6.05      0.00
    8    8   22     -4.56      0.00
   10    8   22      4.31      0.00
   12    8   22      1.46      0.00
  -17    9   22      0.95      0.00
  -15    9   22     -1.56      0.00
  -13    9   22     -1.09      0.00
  -11    9   22      0.58      0.00
   -9    9   22      1.06      0.00
   -7    9   22     -5.10      0.00
   -5    9   22      4.70      0.00
   -3    9   22      0.92      0.00
   -1    9   22      4.91      0.00
    1    9   22      1.46      0.00
    3    9   22      0.59      0.00
    5    9   22      8.57      0.00
    7    9   22      2.48      0.00
  -10   10   22      1.53      0.00
   -8   10   22      1.61      0.00
   -6   10   22      1.26      0.00
   -4   10   22     -0.66      0.00
   -2   10   22     -1.29      0.00
    0   10   22     -1.48      0.00
    2   10   22      2.01      0.00
  -29    1   23     -1.94      0.00
  -27    1   23     -2.02      0.00
   19    1   23      0.23      0.00
   21    1   23     -0.44      0.00
  -28    2   23      5.58      0.00
  -26    2   23     -3.62      0.00
   18    2   23      2.73      0.00
   20    2   23     -0.36      0.00
  -27    3   23     -1.06      0.00
  -25    3   23     -1.32      0.00
   17    3   23     -1.38      0.00
   19    3   23     -1.84      0.00
  -28    4   23     -1.00      0.00
  -26    4   23      1.74      0.00
  -24    4   23      4.71      0.00
   16    4   23     -2.42      0.00
   18    4   23      1.97      0.00
  -25    5   23     -2.89      0.00
  -23    5   23     -2.06      0.00
   13    5   23     -5.55      0.00
   15    5   23      0.32      0.00
   17    5   23      2.09      0.00
  -24    6   23      1.60      0.00
  -22    6   23      1.43      0.00
  -20    6   23     -0.85      0.00
   12    6   23      0.85      0.00
   14    6   23      0.04      0.00
   16    6   23     -3.87      0.00
  -21    7   23      0.52      0.00
  -19    7   23      5.67      0.00
  -17    7   23     -1.41      0.00
    9    7   23      6.57      0.00
   11    7   23      3.53      0.00
   13    7   23      1.87      0.00
  -20    8   23     -5.18      0.00
  -18    8   23     -3.00      0.00
  -16    8   23      1.52      0.00
  -14    8   23      0.10      0.00
  -12    8   23     -2.87      0.00
    4    8   23     -3.08      0.00
    6    8   23     -3.06      0.00
    8    8   23     -4.41      0.00
   10    8   23     -2.90      0.00
  -15    9   23     -2.02      0.00
  -13    9   23     -0.40      0.00
  -11    9   23      3.48      0.00
   -9    9   23      4.09      0.00
   -7    9   23      2.01      0.00
   -5    9   23      4.26      0.00
   -3    9   23      2.50      0.00
   -1    9   23      2.05      0.00
    1    9   23      1.39      0.00
    3    9   23      5.07      0.00
    5    9   23      3.97      0.00
   -6   10   23      0.12      0.00
   -4   10   23     -3.44      0.00
   -2   10   23     -0.26      0.00
  -28    0   24     -4.45      0.00
  -26    0   24      1.54      0.00
   18    0   24      8.02      0.00
   20    0   24      2.42      0.00
  -29    1   24      3.15      0.00
  -27    1   24      2.69      0.00
   17    1   24     -4.00      0.00
   19    1   24     -4.76      0.00
  -28    2   24     -1.59      0.00
  -26    2   24     -5.88      0.00
   16    2   24     -2.89      0.00
   18    2   24      2.48      0.00
  -27    3   24      0.94      0.00
  -25    3   24      1.16      0.00
   15    3   24      7.54      0.00
   17    3   24      1.35      0.00
  -26    4   24      3.97      0.00
  -24    4   24      1.30      0.00
   14    4   24     -2.67      0.00
   16    4   24     -5.25      0.00
  -25    5   24     -3.46      0.00
  -23    5   24     -0.28      0.00
  -21    5   24     -4.08      0.00
   11    5   24     -3.49      0.00
   13    5   24      1.00      0.00
   15    5   24      0.07      0.00
  -24    6   24      0.50      0.00
  -22    6   24      3.11      0.00
  -20    6   24      3.20      0.00
   10    6   24      3.41      0.00
   12    6   24      5.53      0.00
   14    6   24      1.10      0.00
  -21    7   24     -0.03      0.00
  -19    7   24     -2.02      0.00
  -17    7   24     -8.18      0.00
    7    7   24     -3.05      0.00
    9    7   24     -0.78      0.00
   11    7   24     -1.79      0.00
  -18    8   24      3.29      0.00
  -16    8   24      0.58      0.00
  -14    8   24      0.01      0.00
  -12    8   24     -2.56      0.00
  -10    8   24      4.29      0.00
   -8    8   24      0.81      0.00
    0    8   24     -0.89      0.00
    2    8   24     -2.76      0.00
    4    8   24     -2.12      0.00
    6    8   24      0.71      0.00
    8    8   24     -1.06      0.00
  -13    9   24      3.01      0.00
  -11    9   24     -1.39      0.00
   -9    9   24     -1.25      0.00
   -7    9   24     -0.25      0.00
   -5    9   24     -2.81      0.00
   -3    9   24     -1.31      0.00
   -1    9   24     -2.79      0.00
    1    9   24      1.70      0.00
    3    9   24      2.68      0.00
  -27    1   25     -1.06      0.00
  -25    1   25    -10.10      0.00
   15    1   25     -2.64      0.00
   17    1   25      2.60      0.00
  -28    2   25     -1.33      0.00
  -26    2   25      6.88      0.00
  -24    2   25      7.96      0.00
   16    2   25      0.47      0.00
   18    2   25     -4.26      0.00
  -27    3   25     -1.92      0.00
  -25    3   25     -4.95      0.00
  -23    3   25     -6.75      0.00
   15    3   25     -4.34      0.00
   17    3   25      2.86      0.00
  -26    4   25      2.38      0.00
  -24    4   25      2.06      0.00
  -22    4   25      3.44      0.00
   12    4   25      5.85      0.00
   14    4   25      1.92      0.00
   16    4   25      2.34      0.00
  -25    5   25      0.77      0.00
  -23    5   25      0.89      0.00
  -21    5   25      5.43      0.00
   11    5   25     -4.73      0.00
   13    5   25      0.91      0.00
   15    5   25     -1.41      0.00
  -22    6   25     -3.96      0.00
  -20    6   25     -4.87      0.00
  -18    6   25     -3.86      0.00
    8    6   25      0.62      0.00
   10    6   25      3.80      0.00
   12    6   25     -2.89      0.00
  -19    7   25     -1.71      0.00
  -17    7   25     -1.70      0.00
  -15    7   25     -2.34      0.00
  -13    7   25     -0.46      0.00
    3    7   25      9.41      0.00
    5    7   25      1.98      0.00
    7    7   25     -0.94      0.00
    9    7   25     -1.04      0.00
   11    7   25      1.12      0.00
  -16    8   25      2.10      0.00
  -14    8   25      1.91      0.00
  -12    8   25      3.30      0.00
  -10    8   25      4.34      0.00
   -8    8   25      0.38      0.00
   -6    8   25      2.22      0.00
   -4    8   25     -4.04      0.00
   -2    8   25     -2.53      0.00
    0    8   25     -1.46      0.00
    2    8   25     -6.68      0.00
    4    8   25     -2.12      0.00
    6    8   25     -2.07      0.00
  -11    9   25     -3.25      0.00
   -9    9   25     -0.63      0.00
   -7    9   25     -0.59      0.00
   -5    9   25     -1.14      0.00
   -3    9   25      1.28      0.00
   -1    9   25      1.75      0.00
    1    9   25      4.42      0.00
  -26    0   26     -0.51      0.00
  -24    0   26     -1.29      0.00
   14    0   26      6.01      0.00
   16    0   26      4.14      0.00
  -27    1   26     -0.10      0.00
  -25    1   26     -0.81      0.00
   15    1   26     -6.62      0.00
   17    1   26     -2.63      0.00
  -26    2   26      3.26      0.00
  -24    2   26      1.98      0.00
   14    2   26      2.26      0.00
   16    2   26      5.66      0.00
  -25    3   26     -2.70      0.00
  -23    3   26     -1.25      0.00
   13    3   26      4.38      0.00
   15    3   26     -1.28      0.00
  -24    4   26      0.82      0.00
  -22    4   26      2.92      0.00
   10    4   26     -0.63      0.00
   12    4   26     -1.28      0.00
   14    4   26     -2.85      0.00
  -23    5   26     -2.55      0.00
  -21    5   26     -2.72      0.00
  -19    5   26     -4.23      0.00
    9    5   26     -1.35      0.00
   11    5   26     -0.71      0.00
   13    5   26     -1.70      0.00
  -22    6   26      1.15      0.00
  -20    6   26      4.51      0.00
  -18    6   26      5.54      0.00
  -16    6   26      2.23      0.00
    6    6   26     -4.99      0.00
    8    6   26     -2.96      0.00
   10    6   26      1.46      0.00
  -19    7   26     -3.83      0.00
  -17    7   26     -0.31      0.00
  -15    7   26     -2.71      0.00
  -13    7   26     -1.57      0.00
  -11    7   26     -3.37      0.00
   -1    7   26     -1.24      0.00
    1    7   26      6.75      0.00
    3    7   26      0.44      0.00
    5    7   26     -0.05      0.00
    7    7   26      0.07      0.00
    9    7   26      0.00      0.00
  -14    8   26      1.61      0.00
  -12    8   26      4.61      0.00
  -10    8   26      4.83      0.00
   -8    8   26      4.61      0.00
   -6    8   26     -0.12      0.00
   -4    8   26      3.11      0.00
   -2    8   26      1.06      0.00
    0    8   26      0.56      0.00
    2    8   26     -0.18      0.00
    4    8   26      0.88      0.00
  -25    1   27     -0.12      0.00
  -23    1   27     -3.76      0.00
   13    1   27      2.56      0.00
   15    1   27      6.61      0.00
  -26    2   27      0.80      0.00
  -24    2   27      1.31      0.00
  -22    2   27     -0.87      0.00
   12    2   27      2.19      0.00
   14    2   27     -5.72      0.00
  -25    3   27      0.52      0.00
  -23    3   27      0.62      0.00
  -21    3   27      3.87      0.00
   11    3   27      1.06      0.00
   13    3   27     -1.24      0.00
   15    3   27      4.02      0.00
  -24    4   27     -0.83      0.00
  -22    4   27     -2.93      0.00
  -20    4   27     -2.21      0.00
    8    4   27     -1.16      0.00
   10    4   27     -3.29      0.00
   12    4   27     -1.93      0.00
   14    4   27     -0.94      0.00
  -21    5   27      0.61      0.00
  -19    5   27      3.51      0.00
  -17    5   27      1.79      0.00
    5    5   27      5.67      0.00
    7    5   27      0.75      0.00
    9    5   27      2.78      0.00
   11    5   27      5.01      0.00
  -20    6   27      1.15      0.00
  -18    6   27     -0.27      0.00
  -16    6   27     -0.54      0.00
  -14    6   27      2.62      0.00
    2    6   27     -0.53      0.00
    4    6   27     -0.45      0.00
    6    6   27     -5.56      0.00
    8    6   27      0.53      0.00
   10    6   27     -4.02      0.00
  -17    7   27      0.30      0.00
  -15    7   27      2.03      0.00
  -13    7   27     -1.11      0.00
  -11    7   27      6.53      0.00
   -9    7   27      2.50      0.00
   -7    7   27      5.86      0.00
   -5    7   27      3.60      0.00
   -3    7   27      3.02      0.00
   -1    7   27      9.67      0.00
    1    7   27      2.71      0.00
    3    7   27     -2.68      0.00
    5    7   27      0.91      0.00
    7    7   27      2.07      0.00
  -12    8   27     -1.96      0.00
  -10    8   27     -0.87      0.00
   -8    8   27     -1.38      0.00
   -6    8   27     -4.16      0.00
   -4    8   27     -1.49      0.00
   -2    8   27     -4.23      0.00
    0    8   27     -5.62      0.00
    2    8   27      1.99      0.00
  -26    0   28      4.26      0.00
  -24    0   28      4.64      0.00
  -22    0   28     -3.40      0.00
   10    0   28     -4.85      0.00
   12    0   28      4.30      0.00
   14    0   28     -3.08      0.00
  -25    1   28     -3.57      0.00
  -23    1   28     -0.02      0.00
  -21    1   28      3.43      0.00
   11    1   28     -1.08      0.00
   13    1   28      0.58      0.00
   15    1   28      3.31      0.00
  -24    2   28      0.04      0.00
  -22    2   28     -2.08      0.00
  -20    2   28     -0.89      0.00
   10    2   28      1.19      0.00
   12    2   28     -0.51      0.00
   14    2   28     -2.09      0.00
  -23    3   28     -0.87      0.00
  -21    3   28     -0.52      0.00
  -19    3   28     -4.83      0.00
    9    3   28     -1.09      0.00
   11    3   28     -2.06      0.00
   13    3   28     -0.14      0.00
  -22    4   28      2.19      0.00
  -20    4   28      3.38      0.00
  -18    4   28      3.79      0.00
    6    4   28      4.10      0.00
    8    4   28      4.03      0.00
   10    4   28      0.87      0.00
   12    4   28      0.34      0.00
  -21    5   28     -1.62      0.00
  -19    5   28     -1.39      0.00
  -17    5   28     -0.10      0.00
  -15    5   28      1.36      0.00
    3    5   28     -1.36      0.00
    5    5   28      4.54      0.00
    7    5   28     -6.28      0.00
    9    5   28      1.07      0.00
  -18    6   28     -0.58      0.00
  -16    6   28      0.35      0.00
  -14    6   28      0.05      0.00
  -12    6   28     -0.52      0.00
  -10    6   28      2.55      0.00
   -8    6   28     -1.82      0.00
   -4    6   28      3.81      0.00
   -2    6   28     -0.40      0.00
    0    6   28     -0.62      0.00
    2    6   28      4.80      0.00
    4    6   28     -5.07      0.00
    6    6   28     -0.36      0.00
    8    6   28      0.50      0.00
  -15    7   28     -0.32      0.00
  -13    7   28      0.44      0.00
  -11    7   28     -1.89      0.00
   -9    7   28      2.77      0.00
   -7    7   28     -4.11      0.00
   -5    7   28      0.87      0.00
   -3    7   28     -3.70      0.00
   -1    7   28      1.57      0.00
    1    7   28     -5.21      0.00
    3    7   28      1.18      0.00
   -8    8   28      1.14      0.00
   -6    8   28      1.46      0.00
   -4    8   28     -0.62      0.00
  -23    1   29      1.50      0.00
  -21    1   29     -0.48      0.00
  -19    1   29      5.26      0.00
    9    1   29      0.58      0.00
   11    1   29     -0.32      0.00
   13    1   29      0.37      0.00
  -24    2   29     -2.20      0.00
  -22    2   29     -0.61      0.00
  -20    2   29     -3.29      0.00
    8    2   29     -2.39      0.00
   10    2   29     -0.24      0.00
   12    2   29     -2.98      0.00
  -23    3   29      0.59      0.00
  -21    3   29     -1.45      0.00
  -19    3   29      0.36      0.00
  -17    3   29      0.49      0.00
    7    3   29      1.31      0.00
    9    3   29      2.39      0.00
   11    3   29      2.79      0.00
  -22    4   29      2.73      0.00
  -20    4   29      2.17      0.00
  -18    4   29      5.29      0.00
  -16    4   29     -1.82      0.00
    4    4   29     -4.67      0.00
    6    4   29     -1.33      0.00
    8    4   29     -1.57      0.00
   10    4   29     -1.00      0.00
  -19    5   29     -2.61      0.00
  -17    5   29     -1.60      0.00
  -15    5   29      1.17      0.00
  -13    5   29     -0.24      0.00
  -11    5   29     -4.72      0.00
   -3    5   29      3.74      0.00
   -1    5   29      2.57      0.00
    1    5   29     -1.06      0.00
    3    5   29      2.03      0.00
    5    5   29     -3.06      0.00
    7    5   29      1.78      0.00
  -16    6   29      0.08      0.00
  -14    6   29     -2.41      0.00
  -12    6   29     -1.67      0.00
  -10    6   29      1.65      0.00
   -8    6   29     -3.97      0.00
   -6    6   29     -2.41      0.00
   -4    6   29     -7.95      0.00
   -2    6   29     -1.50      0.00
    0    6   29     -2.64      0.00
    2    6   29     -3.06      0.00
    4    6   29      0.71      0.00
    6    6   29      2.48      0.00
  -13    7   29      4.55      0.00
  -11    7   29      1.26      0.00
   -9    7   29      5.49      0.00
   -7    7   29      5.08      0.00
   -5    7   29      4.04      0.00
   -3    7   29      3.16      0.00
   -1    7   29     -2.56      0.00
    1    7   29      4.01      0.00
  -22    0   30      4.10      0.00
  -20    0   30      1.93      0.00
  -18    0   30      6.46      0.00
    6    0   30     -4.43      0.00
    8    0   30      1.68      0.00
   10    0   30      3.18      0.00
   12    0   30     -4.41      0.00
  -23    1   30     -1.37      0.00
  -21    1   30     -3.46      0.00
  -19    1   30     -1.21      0.00
  -17    1   30     -1.46      0.00
    7    1   30      1.38      0.00
    9    1   30     -3.56      0.00
   11    1   30      2.78      0.00
  -22    2   30      1.38      0.00
  -20    2   30      0.04      0.00
  -18    2   30     -4.44      0.00
  -16    2   30     -1.19      0.00
    6    2   30     -6.91      0.00
    8    2   30      3.20      0.00
   10    2   30     -1.57      0.00
  -21    3   30      0.34      0.00
  -19    3   30      3.57      0.00
  -17    3   30      1.02      0.00
  -15    3   30      1.99      0.00
    3    3   30      1.32      0.00
    5    3   30      4.61      0.00
    7    3   30      2.36      0.00
    9    3   30      0.14      0.00
  -20    4   30     -1.18      0.00
  -18    4   30     -0.89      0.00
  -16    4   30      2.19      0.00
  -14    4   30     -0.16      0.00
  -12    4   30     -2.47      0.00
   -2    4   30      1.70      0.00
    0    4   30      6.53      0.00
    2    4   30     -4.23      0.00
    4    4   30      1.51      0.00
    6    4   30     -0.37      0.00
    8    4   30     -2.68      0.00
  -17    5   30      0.40      0.00
  -15    5   30     -2.79      0.00
  -13    5   30      1.10      0.00
  -11    5   30      2.30      0.00
   -9    5   30      3.35      0.00
   -7    5   30     -6.17      0.00
   -5    5   30     -0.56      0.00
   -3    5   30      1.82      0.00
   -1    5   30     -8.71      0.00
    1    5   30     -1.99      0.00
    3    5   30      2.28      0.00
    5    5   30     -5.07      0.00
  -14    6   30      0.48      0.00
  -12    6   30      1.05      0.00
  -10    6   30     -3.40      0.00
   -8    6   30     -0.09      0.00
   -6    6   30      4.10      0.00
   -4    6   30     -2.86      0.00
   -2    6   30      1.69      0.00
    0    6   30      4.26      0.00
    2    6   30     -1.22      0.00
   -7    7   30      1.80      0.00
   -5    7   30     -1.94      0.00
  -21    1   31      1.65      0.00
  -19    1   31     -3.85      0.00
  -17    1   31      2.58      0.00
  -15    1   31     -0.49      0.00
    3    1   31      3.78      0.00
    5    1   31     -2.44      0.00
    7    1   31      0.61      0.00
    9    1   31     -2.78      0.00
  -20    2   31      0.71      0.00
  -18    2   31      0.00      0.00
  -16    2   31     -1.27      0.00
  -14    2   31      0.81      0.00
    2    2   31     -6.53      0.00
    4    2   31      1.07      0.00
    6    2   31      0.31      0.00
    8    2   31      0.80      0.00
  -19    3   31     -0.21      0.00
  -17    3   31     -0.21      0.00
  -15    3   31     -1.71      0.00
  -13    3   31      1.72      0.00
  -11    3   31     -3.34      0.00
   -1    3   31      3.65      0.00
    1    3   31      7.19      0.00
    3    3   31      1.65      0.00
    5    3   31     -0.70      0.00
    7    3   31      0.46      0.00
  -18    4   31     -1.66      0.00
  -16    4   31      1.39      0.00
  -14    4   31     -0.78      0.00
  -12    4   31     -1.14      0.00
  -10    4   31      1.53      0.00
   -8    4   31     -4.49      0.00
   -6    4   31     -3.24      0.00
   -4    4   31      0.00      0.00
   -2    4   31     -0.20      0.00
    0    4   31     -5.10      0.00
    2    4   31     -3.80      0.00
    4    4   31     -0.53      0.00
    6    4   31      0.08      0.00
  -15    5   31      1.23      0.00
  -13    5   31     -2.12      0.00
  -11    5   31      2.73      0.00
   -9    5   31      0.14      0.00
   -7    5   31      8.72      0.00
   -5    5   31     -1.63      0.00
   -3    5   31      0.42      0.00
   -1    5   31      1.79      0.00
    1    5   31      2.30      0.00
    3    5   31      0.60      0.00
  -10    6   31     -0.87      0.00
   -8    6   31     -1.36      0.00
   -6    6   31     -2.11      0.00
   -4    6   31      1.82      0.00
   -2    6   31     -2.53      0.00
  -20    0   32      4.38      0.00
  -18    0   32      2.00      0.00
  -16    0   32      4.98      0.00
  -14    0   32      1.75      0.00
  -12    0   32      8.57      0.00
   -2    0   32     -1.30      0.00
    0    0   32      4.72      0.00
    2    0   32      2.19      0.00
    4    0   32      0.89      0.00
    6    0   32      6.24      0.00
    8    0   32      0.63      0.00
  -19    1   32     -1.40      0.00
  -17    1   32     -1.10      0.00
  -15    1   32      0.76      0.00
  -13    1   32     -2.45      0.00
  -11    1   32     -0.42      0.00
   -3    1   32      0.51      0.00
   -1    1   32     -1.45      0.00
    1    1   32     -2.60      0.00
    3    1   32      1.48      0.00
    5    1   32     -4.69      0.00
    7    1   32     -2.43      0.00
  -18    2   32     -1.84      0.00
  -16    2   32     -5.30      0.00
  -14    2   32     -3.25      0.00
  -12    2   32     -4.17      0.00
  -10    2   32    -10.41      0.00
   -8    2   32     -4.80      0.00
   -6    2   32     -0.81      0.00
   -4    2   32     -3.71      0.00
   -2    2   32      0.03      0.00
    0    2   32     -0.33      0.00
    2    2   32     -2.32      0.00
    4    2   32      0.43      0.00
    6    2   32      2.25      0.00
  -17    3   32      3.98      0.00
  -15    3   32      3.42      0.00
  -13    3   32      2.45      0.00
  -11    3   32      5.11      0.00
   -9    3   32      5.85      0.00
   -7    3   32      3.82      0.00
   -5    3   32      3.98      0.00
   -3    3   32     -0.66      0.00
   -1    3   32      3.35      0.00
    1    3   32      1.52      0.00
    3    3   32     -0.01      0.00
    5    3   32      0.90      0.00
  -16    4   32     -0.48      0.00
  -14    4   32     -1.07      0.00
  -12    4   32      2.18      0.00
  -10    4   32      2.25      0.00
   -8    4   32     -1.08      0.00
   -6    4   32     -2.10      0.00
   -4    4   32      1.01      0.00
   -2    4   32      0.27      0.00
    0    4   32     -5.58      0.00
    2    4   32      3.16      0.00
  -11    5   32     -3.96      0.00
   -9    5   32     -2.65      0.00
   -7    5   32     -0.41      0.00
   -5    5   32      0.03      0.00
   -3    5   32     -2.67      0.00
   -1    5   32      4.41      0.00
    0    0    0      0.00      0.00
# SQUEEZE RESULTS (Version =  30715)
# Note: Data are Listed for all Voids in the P1 Unit Cell
# i.e. Centre of Gravity, Solvent Accessible Volume,
# Recovered number of Electrons in the Void and
# Details about the Squeezed Material
loop_
  _platon_squeeze_void_nr
  _platon_squeeze_void_average_x
  _platon_squeeze_void_average_y
  _platon_squeeze_void_average_z
  _platon_squeeze_void_volume
  _platon_squeeze_void_count_electrons
  _platon_squeeze_void_content
   1 -0.026  0.423  0.003      3002       605 ' '
# Missing Reflections Below sin(th)/lambda = 0.25
loop_
  _platon_missing_refln_index_h
  _platon_missing_refln_index_k
  _platon_missing_refln_index_l
  _platon_missing_refln_theta
    0    0    2     1.535
_platon_squeeze_void_probe_radius                  1.20
_platon_squeeze_details
)
TITL mo_gs42a_0m_a.res in C2/c
CELL   26.3576   10.1239   27.0731     90.00    101.52     90.00
SPGR C2/c
# Solvent Accessible Volume =    3085.3
# Electrons Found in S.A.V. =     603.5
# Note: Atoms in Void as Cxxx and Qxxx all others
C101 0.999 0.346 0.416 !       4.58 eA-3
C102 0.006 0.345 0.339 !       3.64 eA-3
C103 0.992 0.318 0.120 !       3.20 eA-3
C104 0.006 0.271 0.470 !       2.81 eA-3
C105 0.970 0.462 0.414 !       2.67 eA-3
C106 0.288 0.098 0.202 !       2.43 eA-3
C107 0.164 0.441 0.217 !       2.42 eA-3
Q108 0.672 0.028 0.483 !       1.87 eA-3
Q109 0.505 0.157 0.195 !       1.51 eA-3
Q110 0.337 0.067 0.480 !       1.49 eA-3
C111 0.680 0.058 0.259 !       1.45 eA-3
Q112 0.548 0.126 0.246 !       1.43 eA-3
Q113 0.530 0.163 0.287 !       1.41 eA-3
C114 0.672 0.088 0.216 !       1.34 eA-3
C115 0.796 0.281 0.300 !       1.33 eA-3
Q116 0.288 0.098 0.038 !       1.28 eA-3
C117 0.305 0.091 0.313 !       1.25 eA-3
C118 0.212 0.318 0.296 !       1.20 eA-3
C119 0.267 0.152 0.226 !       1.18 eA-3
C120 0.890 0.369 0.186 !       1.16 eA-3
C121 0.336 0.054 0.323 !       1.13 eA-3
Q122 0.992 0.123 0.249 !       1.11 eA-3
C123 0.834 0.341 0.304 !       1.09 eA-3
C124 0.154 0.438 0.180 !       1.05 eA-3
Q125 0.102 0.503 0.448 !       1.05 eA-3
Q126 0.500 0.344 0.248 !       1.02 eA-3
C127 0.879 0.316 0.212 !       1.01 eA-3
C128 0.797 0.188 0.311 !       1.01 eA-3
C129 0.166 0.310 0.303 !       1.00 eA-3
C130 0.672 0.139 0.154 !       0.98 eA-3
C131 0.197 0.344 0.213 !       0.98 eA-3
C132 0.880 0.345 0.250 !       0.97 eA-3
C133 0.960 0.307 0.085 !       0.97 eA-3
Q134 0.015 0.281 0.237 !       0.93 eA-3
C135 0.772 0.378 0.191 !       0.91 eA-3
C136 0.360 0.054 0.353 !       0.91 eA-3
C137 0.482 0.131 0.046 !       0.91 eA-3
Q138 0.663 0.124 0.504 !       0.89 eA-3
C139 0.595 0.090 0.236 !       0.89 eA-3
C140 0.288 0.215 0.305 !       0.87 eA-3
C141 0.820 0.312 0.227 !       0.87 eA-3
C142 0.384 0.128 0.291 !       0.86 eA-3
C143 0.602 0.128 0.172 !       0.86 eA-3
C144 0.836 0.493 0.342 !       0.85 eA-3
C145 0.846 0.490 0.853 !       0.85 eA-3
C146 0.846 0.489 0.366 !       0.85 eA-3
C147 0.869 0.342 0.176 !       0.84 eA-3
Q148 0.492 0.371 0.052 !       0.84 eA-3
C149 0.507 0.125 0.026 !       0.82 eA-3
C150 0.985 0.470 0.068 !       0.82 eA-3
C151 0.500 0.127 0.391 !       0.82 eA-3
C152 0.115 0.508 0.131 !       0.81 eA-3
C153 0.898 0.407 0.789 !       0.81 eA-3
C154 0.906 0.284 0.265 !       0.81 eA-3
C155 0.998 0.369 0.488 !       0.81 eA-3
C156 0.319 0.188 0.299 !       0.81 eA-3
C157 0.368 0.053 0.307 !       0.80 eA-3
C158 0.156 0.401 0.288 !       0.80 eA-3
C159 0.874 0.508 0.336 !       0.80 eA-3
C160 0.757 0.325 0.170 !       0.78 eA-3
C161 0.375 0.038 0.269 !       0.77 eA-3
Q162 0.162 0.274 0.005 !       0.77 eA-3
C163 0.239 0.218 0.197 !       0.77 eA-3
C164 0.641 0.115 0.291 !       0.77 eA-3
C165 0.141 0.282 0.270 !       0.76 eA-3
C166 0.109 0.279 0.313 !       0.76 eA-3
Q167 0.500 0.156 0.250 !       0.76 eA-3
C168 0.975 0.398 0.452 !       0.75 eA-3
C169 0.657 0.155 0.237 !       0.73 eA-3
C170 0.065 0.400 0.122 !       0.73 eA-3
C171 0.959 0.250 0.082 !       0.73 eA-3
C172 0.914 0.313 0.195 !       0.72 eA-3
Q173 0.479 0.058 0.287 !       0.72 eA-3
C174 0.478 0.058 0.098 !       0.72 eA-3
C175 0.711 0.159 0.235 !       0.71 eA-3
C176 1.000 0.500 0.000 !       0.70 eA-3
C177 0.283 0.120 0.337 !       0.70 eA-3
C178 0.479 0.161 0.413 !       0.70 eA-3
Q179 0.516 0.196 0.162 !       0.70 eA-3
C180 0.157 0.496 0.317 !       0.69 eA-3
C181 0.798 0.368 0.246 !       0.69 eA-3
C182 0.070 0.304 0.202 !       0.69 eA-3
C183 0.856 0.510 0.228 !       0.68 eA-3
Q184 0.078 0.375 0.351 !       0.68 eA-3
C185 0.874 0.375 0.294 !       0.68 eA-3
Q186 0.767 0.127 0.074 !       0.67 eA-3
C187 0.756 0.133 0.247 !       0.67 eA-3
Q188 0.554 0.471 0.416 !       0.67 eA-3
Q189 0.160 0.217 0.041 !       0.67 eA-3
C190 0.513 0.158 0.356 !       0.66 eA-3
C191 0.229 0.148 0.192 !       0.66 eA-3
C192 0.806 0.402 0.311 !       0.66 eA-3
C193 0.493 0.093 0.142 !       0.66 eA-3
Q194 0.481 0.097 0.318 !       0.66 eA-3
Q195 0.507 0.218 0.121 !       0.66 eA-3
Q196 0.946 0.494 0.263 !       0.66 eA-3
C197 0.734 0.063 0.250 !       0.65 eA-3
Q198 0.102 0.121 0.095 !       0.65 eA-3
C199 0.115 0.443 0.278 !       0.64 eA-3
)
;
_shelx_fab_checksum              16467
loop_
_space_group_symop_operation_xyz
'x, y, z'
'-x, y, -z+1/2'
'x+1/2, y+1/2, z'
'-x+1/2, y+1/2, -z+1/2'
'-x, -y, -z'
'x, -y, z-1/2'
'-x+1/2, -y+1/2, -z'
'x+1/2, -y+1/2, z-1/2'
loop_
_atom_site_label
_atom_site_type_symbol
_atom_site_fract_x
_atom_site_fract_y
_atom_site_fract_z
_atom_site_U_iso_or_equiv
_atom_site_adp_type
_atom_site_occupancy
_atom_site_site_symmetry_order
_atom_site_calc_flag
_atom_site_refinement_flags_posn
_atom_site_refinement_flags_adp
_atom_site_refinement_flags_occupancy
Zn1 Zn 0.33418(3) 0.96089(7) 0.48506(3) 0.0282(2) Uani 1 1 d . . .
Zn2 Zn 0.5000 0.50683(17) 0.2500 0.0215(3) Uani 0.74 2 d S T P
Zn2' Zn 0.5000 0.4244(5) 0.2500 0.0199(8) Uani 0.26 2 d S T P
O1 O 0.5000 0.7152(10) 0.2500 0.061(3) Uani 0.74 2 d S T P
O1' O 0.5000 0.186(3) 0.2500 0.054(8) Uani 0.26 2 d S T P
O2 O 0.36720(16) 0.8028(4) 0.46176(16) 0.0300(10) Uani 1 1 d . . .
O3 O 0.37511(17) 0.0989(4) 0.45753(18) 0.0383(11) Uani 1 1 d . . .
O4 O 0.32199(19) 0.6822(5) 0.50611(19) 0.0446(12) Uani 1 1 d . . .
O5 O 0.32733(17) 0.2045(4) 0.50365(18) 0.0376(11) Uani 1 1 d . . .
N1 N 0.52372(18) 0.4697(5) 0.32634(18) 0.0279(11) Uani 1 1 d . . .
N2 N 0.23614(18) 0.4645(5) 0.06390(17) 0.0240(11) Uani 1 1 d . . .
N3 N 0.42449(18) 0.4711(5) 0.25788(18) 0.0279(11) Uani 1 1 d . . .
C1 C 0.3572(2) 0.4492(5) 0.4723(2) 0.0217(12) Uani 1 1 d . . .
H1 H 0.3380 0.4459 0.4985 0.026 Uiso 1 1 calc R U .
C2 C 0.3692(2) 0.5698(6) 0.4541(2) 0.0235(13) Uani 1 1 d . . .
C3 C 0.3725(2) 0.3334(5) 0.4529(2) 0.0250(13) Uani 1 1 d . . .
C4 C 0.3510(2) 0.6947(5) 0.4757(2) 0.0251(13) Uani 1 1 d . . .
C5 C 0.3971(2) 0.5736(6) 0.4149(2) 0.0240(13) Uani 1 1 d . . .
H5 H 0.4060 0.6564 0.4025 0.029 Uiso 1 1 calc R U .
C6 C 0.5736(2) 0.4645(6) 0.3527(2) 0.0286(13) Uani 1 1 d . . .
C7 C 0.2498(2) 0.3666(6) 0.0972(2) 0.0309(14) Uani 1 1 d . . .
H7 H 0.2263 0.2954 0.0971 0.037 Uiso 1 1 calc R U .
C8 C 0.3310(2) 0.4694(6) 0.1327(2) 0.0285(14) Uani 1 1 d . . .
C9 C 0.4930(2) 0.4586(6) 0.3613(2) 0.0279(13) Uani 1 1 d . . .
C10 C 0.4115(2) 0.4584(6) 0.3943(2) 0.0241(12) Uani 1 1 d . . .
C11 C 0.3819(2) 0.4685(6) 0.1686(2) 0.0302(14) Uani 1 1 d . . .
C12 C 0.3996(2) 0.3377(6) 0.4137(2) 0.0266(13) Uani 1 1 d . . .
H12 H 0.4101 0.2579 0.4002 0.032 Uiso 1 1 calc R U .
C13 C 0.5244(2) 0.4429(7) 0.4107(2) 0.0348(15) Uani 1 1 d . . .
H13 H 0.5124 0.4316 0.4412 0.042 Uiso 1 1 calc R U .
C14 C 0.2958(2) 0.3632(6) 0.1314(2) 0.0323(14) Uani 1 1 d . . .
H14 H 0.3039 0.2907 0.1539 0.039 Uiso 1 1 calc R U .
C15 C 0.4067(2) 0.4693(6) 0.3023(2) 0.0311(14) Uani 1 1 d . . .
C16 C 0.2692(2) 0.5652(6) 0.0651(2) 0.0273(14) Uani 1 1 d . . .
H16 H 0.2598 0.6359 0.0420 0.033 Uiso 1 1 calc R U .
C17 C 0.4385(2) 0.4639(6) 0.3506(2) 0.0261(13) Uani 1 1 d . . .
C18 C 0.3809(2) 0.4719(7) 0.2203(2) 0.0330(15) Uani 1 1 d . . .
C19 C 0.5747(2) 0.4473(7) 0.4055(2) 0.0359(16) Uani 1 1 d . . .
H19 H 0.6045 0.4404 0.4316 0.043 Uiso 1 1 calc R U .
C20 C 0.3573(2) 0.2047(6) 0.4732(2) 0.0324(15) Uani 1 1 d . . .
C21 C 0.3516(2) 0.4751(7) 0.2924(2) 0.0376(16) Uani 1 1 d . . .
H21 H 0.3303 0.4769 0.3168 0.045 Uiso 1 1 calc R U .
C22 C 0.3163(2) 0.5714(6) 0.0985(2) 0.0265(13) Uani 1 1 d . . .
H22 H 0.3386 0.6451 0.0980 0.032 Uiso 1 1 calc R U .
C23 C 0.3353(2) 0.4775(7) 0.2418(3) 0.0402(17) Uani 1 1 d . . .
H23 H 0.3005 0.4820 0.2239 0.048 Uiso 1 1 calc R U .
N5 N 0.3291(3) 0.9307(7) 0.5571(2) 0.0556(18) Uani 1 1 d . . .
C24 C 0.2833(3) 0.9880(9) 0.5707(3) 0.061(2) Uani 1 1 d . . .
H24A H 0.2799 0.9555 0.6040 0.091 Uiso 1 1 calc R U .
H24B H 0.2526 0.9627 0.5457 0.091 Uiso 1 1 calc R U .
H24C H 0.2865 1.0845 0.5717 0.091 Uiso 1 1 calc R U .
C25 C 0.3776(4) 0.9643(15) 0.5920(4) 0.118(5) Uani 1 1 d . . .
H25A H 0.3757 1.0553 0.6039 0.177 Uiso 1 1 calc R U .
H25B H 0.4067 0.9562 0.5746 0.177 Uiso 1 1 calc R U .
H25C H 0.3828 0.9038 0.6209 0.177 Uiso 1 1 calc R U .
loop_
_atom_site_aniso_label
_atom_site_aniso_U_11
_atom_site_aniso_U_22
_atom_site_aniso_U_33
_atom_site_aniso_U_23
_atom_site_aniso_U_13
_atom_site_aniso_U_12
Zn1 0.0225(4) 0.0265(4) 0.0373(4) 0.0027(3) 0.0099(3) -0.0008(3)
Zn2 0.0198(7) 0.0222(8) 0.0243(8) 0.000 0.0085(5) 0.000
Zn2' 0.022(2) 0.028(2) 0.0103(18) 0.000 0.0047(14) 0.000
O1 0.087(8) 0.044(6) 0.051(6) 0.000 0.013(6) 0.000
O1' 0.067(19) 0.08(2) 0.019(13) 0.000 0.010(13) 0.000
O2 0.030(2) 0.021(2) 0.041(3) 0.0033(18) 0.013(2) 0.0002(18)
O3 0.038(3) 0.025(2) 0.055(3) 0.003(2) 0.017(2) 0.000(2)
O4 0.052(3) 0.036(3) 0.057(3) 0.000(2) 0.037(3) 0.002(2)
O5 0.036(3) 0.030(2) 0.052(3) 0.006(2) 0.024(2) -0.007(2)
N1 0.019(2) 0.042(3) 0.025(3) -0.002(2) 0.008(2) -0.004(2)
N2 0.022(2) 0.029(3) 0.023(3) 0.001(2) 0.009(2) 0.002(2)
N3 0.021(3) 0.041(3) 0.023(3) 0.002(2) 0.007(2) 0.002(2)
C1 0.019(3) 0.018(3) 0.029(3) 0.001(2) 0.006(2) -0.006(2)
C2 0.015(3) 0.029(3) 0.025(3) 0.001(2) 0.002(2) 0.000(2)
C3 0.022(3) 0.020(3) 0.034(3) 0.000(3) 0.007(3) -0.006(2)
C4 0.021(3) 0.017(3) 0.038(4) 0.001(3) 0.006(3) 0.002(2)
C5 0.023(3) 0.022(3) 0.028(3) 0.005(2) 0.005(2) -0.004(2)
C6 0.024(3) 0.037(3) 0.026(3) 0.002(3) 0.007(3) 0.000(3)
C7 0.025(3) 0.030(3) 0.040(4) -0.002(3) 0.010(3) -0.005(3)
C8 0.026(3) 0.041(4) 0.022(3) -0.001(3) 0.012(2) 0.008(3)
C9 0.026(3) 0.036(3) 0.024(3) -0.002(3) 0.010(3) -0.002(3)
C10 0.018(3) 0.033(3) 0.022(3) 0.003(3) 0.004(2) 0.003(2)
C11 0.025(3) 0.043(4) 0.023(3) -0.001(3) 0.007(3) -0.001(3)
C12 0.026(3) 0.027(3) 0.028(3) -0.004(3) 0.009(3) -0.002(3)
C13 0.028(3) 0.055(4) 0.022(3) 0.004(3) 0.007(3) -0.001(3)
C14 0.025(3) 0.037(4) 0.035(4) 0.003(3) 0.006(3) -0.001(3)
C15 0.028(3) 0.042(4) 0.026(3) -0.002(3) 0.011(3) -0.002(3)
C16 0.025(3) 0.028(3) 0.034(3) 0.004(3) 0.016(3) 0.006(3)
C17 0.023(3) 0.031(3) 0.026(3) -0.002(3) 0.008(2) 0.001(3)
C18 0.025(3) 0.045(4) 0.030(3) -0.001(3) 0.009(3) 0.002(3)
C19 0.025(3) 0.059(4) 0.024(3) 0.002(3) 0.005(3) -0.001(3)
C20 0.025(3) 0.032(4) 0.038(4) 0.002(3) -0.001(3) -0.001(3)
C21 0.021(3) 0.064(5) 0.032(4) -0.005(3) 0.013(3) -0.004(3)
C22 0.025(3) 0.024(3) 0.033(3) -0.003(3) 0.011(3) -0.006(2)
C23 0.021(3) 0.066(5) 0.037(4) 0.004(3) 0.011(3) 0.003(3)
N5 0.070(5) 0.065(4) 0.035(3) 0.000(3) 0.017(3) 0.011(4)
C24 0.053(5) 0.076(6) 0.060(5) 0.020(4) 0.026(4) 0.003(4)
C25 0.063(7) 0.195(15) 0.079(8) -0.010(9) -0.026(6) 0.016(8)
loop_
_atom_type_symbol
_atom_type_description
_atom_type_scat_dispersion_real
_atom_type_scat_dispersion_imag
_atom_type_scat_source
C C 0.0033 0.0016 'International Tables Vol C Tables 4.2.6.8 and 6.1.1.4'
H H 0.0000 0.0000 'International Tables Vol C Tables 4.2.6.8 and 6.1.1.4'
N N 0.0061 0.0033 'International Tables Vol C Tables 4.2.6.8 and 6.1.1.4'
O O 0.0106 0.0060 'International Tables Vol C Tables 4.2.6.8 and 6.1.1.4'
Zn Zn 0.2839 1.4301 'International Tables Vol C Tables 4.2.6.8 and 6.1.1.4'
loop_
_geom_angle_atom_site_label_1
_geom_angle_atom_site_label_2
_geom_angle_atom_site_label_3
_geom_angle
_geom_angle_site_symmetry_1
_geom_angle_site_symmetry_3
O2 Zn1 O3 98.15(17) . 1_565
O2 Zn1 N5 107.8(2) . .
O3 Zn1 N5 128.0(3) 1_565 .
O2 Zn1 N2 101.89(18) . 4
O3 Zn1 N2 103.40(19) 1_565 4
N5 Zn1 N2 113.8(2) . 4
O2 Zn1 C20 127.10(19) . 1_565
O3 Zn1 C20 29.00(19) 1_565 1_565
N5 Zn1 C20 109.3(3) . 1_565
N2 Zn1 C20 96.18(19) 4 1_565
Zn2' Zn2 N1 79.53(15) . .
Zn2' Zn2 N1 79.53(15) . 2_655
N1 Zn2 N1 159.1(3) . 2_655
Zn2' Zn2 N3 79.97(15) . .
N1 Zn2 N3 88.30(18) . .
N1 Zn2 N3 88.08(19) 2_655 .
Zn2' Zn2 N3 79.98(15) . 2_655
N1 Zn2 N3 88.07(19) . 2_655
N1 Zn2 N3 88.30(18) 2_655 2_655
N3 Zn2 N3 159.9(3) . 2_655
Zn2' Zn2 O1 180.0 . .
N1 Zn2 O1 100.47(15) . .
N1 Zn2 O1 100.47(15) 2_655 .
N3 Zn2 O1 100.03(15) . .
N3 Zn2 O1 100.02(15) 2_655 .
C4 O2 Zn1 114.1(4) . .
C20 O3 Zn1 101.6(4) . 1_545
C6 N1 C9 106.1(5) . .
C6 N1 Zn2 126.6(4) . .
C9 N1 Zn2 127.1(4) . .
C6 N1 Zn2' 125.1(4) . .
C9 N1 Zn2' 124.4(4) . .
C16 N2 C7 117.5(5) . .
C16 N2 Zn1 122.0(4) . 4_545
C7 N2 Zn1 120.5(4) . 4_545
C18 N3 C15 105.5(5) . .
C18 N3 Zn2 126.9(4) . .
C15 N3 Zn2 126.4(4) . .
C18 N3 Zn2' 126.6(4) . .
C15 N3 Zn2' 125.6(4) . .
C3 C1 C2 120.9(5) . .
C3 C1 H1 119.5 . .
C2 C1 H1 119.5 . .
C1 C2 C5 119.1(5) . .
C1 C2 C4 119.3(5) . .
C5 C2 C4 121.6(5) . .
C1 C3 C12 119.7(5) . .
C1 C3 C20 118.8(5) . .
C12 C3 C20 121.4(5) . .
O4 C4 O2 125.5(5) . .
O4 C4 C2 117.3(5) . .
O2 C4 C2 117.2(5) . .
C10 C5 C2 120.7(5) . .
C10 C5 H5 119.7 . .
C2 C5 H5 119.7 . .
N1 C6 C11 125.3(5) . 2_655
N1 C6 C19 110.5(5) . .
C11 C6 C19 124.1(6) 2_655 .
N2 C7 C14 123.7(6) . .
N2 C7 H7 118.1 . .
C14 C7 H7 118.1 . .
C22 C8 C14 117.0(5) . .
C22 C8 C11 122.3(6) . .
C14 C8 C11 120.7(6) . .
N1 C9 C17 125.1(5) . .
N1 C9 C13 110.1(5) . .
C17 C9 C13 124.8(5) . .
C5 C10 C12 119.3(5) . .
C5 C10 C17 120.1(5) . .
C12 C10 C17 120.7(5) . .
C18 C11 C6 126.4(6) . 2_655
C18 C11 C8 117.1(5) . .
C6 C11 C8 116.5(5) 2_655 .
C10 C12 C3 120.3(5) . .
C10 C12 H12 119.8 . .
C3 C12 H12 119.8 . .
C19 C13 C9 107.0(5) . .
C19 C13 H13 126.5 . .
C9 C13 H13 126.5 . .
C7 C14 C8 119.0(6) . .
C7 C14 H14 120.5 . .
C8 C14 H14 120.5 . .
N3 C15 C17 124.7(5) . .
N3 C15 C21 110.2(5) . .
C17 C15 C21 125.1(5) . .
N2 C16 C22 123.1(5) . .
N2 C16 H16 118.4 . .
C22 C16 H16 118.4 . .
C15 C17 C9 126.0(5) . .
C15 C17 C10 116.5(5) . .
C9 C17 C10 117.5(5) . .
N3 C18 C11 123.8(5) . .
N3 C18 C23 110.1(5) . .
C11 C18 C23 126.0(6) . .
C13 C19 C6 106.3(6) . .
C13 C19 H19 126.9 . .
C6 C19 H19 126.9 . .
O5 C20 O3 122.7(6) . .
O5 C20 C3 119.5(6) . .
O3 C20 C3 117.7(5) . .
O5 C20 Zn1 73.7(3) . 1_545
O3 C20 Zn1 49.4(3) . 1_545
C3 C20 Zn1 164.8(5) . 1_545
C23 C21 C15 107.4(5) . .
C23 C21 H21 126.3 . .
C15 C21 H21 126.3 . .
C16 C22 C8 119.7(5) . .
C16 C22 H22 120.2 . .
C8 C22 H22 120.2 . .
C21 C23 C18 106.7(6) . .
C21 C23 H23 126.7 . .
C18 C23 H23 126.7 . .
C24 N5 C25 113.9(8) . .
C24 N5 Zn1 114.1(5) . .
C25 N5 Zn1 111.8(7) . .
N5 C24 H24A 109.5 . .
N5 C24 H24B 109.5 . .
H24A C24 H24B 109.5 . .
N5 C24 H24C 109.5 . .
H24A C24 H24C 109.5 . .
H24B C24 H24C 109.5 . .
N5 C25 H25A 109.5 . .
N5 C25 H25B 109.5 . .
H25A C25 H25B 109.5 . .
N5 C25 H25C 109.5 . .
H25A C25 H25C 109.5 . .
H25B C25 H25C 109.5 . .
loop_
_geom_bond_atom_site_label_1
_geom_bond_atom_site_label_2
_geom_bond_distance
_geom_bond_site_symmetry_2
Zn1 O2 1.984(4) .
Zn1 O3 1.998(4) 1_565
Zn1 N5 2.004(6) .
Zn1 N2 2.052(5) 4
Zn1 C20 2.578(6) 1_565
Zn2 Zn2' 0.835(4) .
Zn2 N1 2.071(5) .
Zn2 N1 2.071(5) 2_655
Zn2 N3 2.075(5) .
Zn2 N3 2.075(5) 2_655
Zn2 O1 2.110(10) .
Zn2' N1 2.087(5) .
Zn2' N1 2.087(5) 2_655
Zn2' N3 2.098(5) .
Zn2' N3 2.098(5) 2_655
Zn2' O1' 2.41(3) .
O2 C4 1.260(7) .
O3 C20 1.276(8) .
O3 Zn1 1.998(4) 1_545
O4 C4 1.237(7) .
O5 C20 1.250(8) .
N1 C6 1.366(8) .
N1 C9 1.366(7) .
N2 C16 1.337(8) .
N2 C7 1.340(8) .
N2 Zn1 2.052(5) 4_545
N3 C18 1.375(8) .
N3 C15 1.376(7) .
C1 C3 1.377(8) .
C1 C2 1.377(8) .
C1 H1 0.9500 .
C2 C5 1.407(8) .
C2 C4 1.512(8) .
C3 C12 1.395(8) .
C3 C20 1.498(8) .
C5 C10 1.379(8) .
C5 H5 0.9500 .
C6 C11 1.407(8) 2_655
C6 C19 1.435(8) .
C7 C14 1.371(9) .
C7 H7 0.9500 .
C8 C22 1.390(8) .
C8 C14 1.416(9) .
C8 C11 1.492(8) .
C9 C17 1.409(8) .
C9 C13 1.434(9) .
C10 C12 1.391(8) .
C10 C17 1.499(8) .
C11 C18 1.404(8) .
C11 C6 1.407(8) 2_655
C12 H12 0.9500 .
C13 C19 1.360(9) .
C13 H13 0.9500 .
C14 H14 0.9500 .
C15 C17 1.405(9) .
C15 C21 1.425(9) .
C16 C22 1.385(9) .
C16 H16 0.9500 .
C18 C23 1.437(8) .
C19 H19 0.9500 .
C20 Zn1 2.578(6) 1_545
C21 C23 1.351(9) .
C21 H21 0.9500 .
C22 H22 0.9500 .
C23 H23 0.9500 .
N5 C24 1.451(10) .
N5 C25 1.472(12) .
C24 H24A 0.9800 .
C24 H24B 0.9800 .
C24 H24C 0.9800 .
C25 H25A 0.9800 .
C25 H25B 0.9800 .
C25 H25C 0.9800 .
loop_
_platon_squeeze_void_nr
_platon_squeeze_void_average_x
_platon_squeeze_void_average_y
_platon_squeeze_void_average_z
_platon_squeeze_void_volume
_platon_squeeze_void_count_electrons
_platon_squeeze_void_content
1 -0.026 0.423 0.003 3002 605 'disordered DMF '
