#------------------------------------------------------------------------------
#$Date: 2017-10-31 05:27:58 +0200 (Tue, 31 Oct 2017) $
#$Revision: 202440 $
#$URL: file:///home/coder/svn-repositories/cod/cif/7/22/94/7229433.cif $
#------------------------------------------------------------------------------
#
# This file is available in the Crystallography Open Database (COD),
# http://www.crystallography.net/
#
# All data on this site have been placed in the public domain by the
# contributors.
#
data_7229433
loop_
_publ_author_name
'Goswami, Soumyabrata'
'Tripuramallu, Bharat Kumar'
'Goldberg, Israel'
_publ_section_title
;
 New meso-substituted trans-A2B2 porphyrins: Synthesis and structure of
 their metal-mediated supramolecular assemblies&#x2020;
;
_journal_name_full               CrystEngComm
_journal_paper_doi               10.1039/C7CE01642E
_journal_year                    2017
_chemical_formula_moiety         'C42 H24 Co N8 O4'
_chemical_formula_sum            'C42 H24 Co N8 O4'
_chemical_formula_weight         763.62
_chemical_properties_physical    Air-sensitive,Moisture-sensitive
_space_group_crystal_system      trigonal
_space_group_IT_number           148
_space_group_name_Hall           '-R 3'
_space_group_name_H-M_alt        'R -3 :H'
_symmetry_space_group_name_Hall  '-R 3'
_symmetry_space_group_name_H-M   'R -3 :H'
_atom_sites_solution_hydrogens   geom
_atom_sites_solution_primary     direct
_atom_sites_solution_secondary   difmap
_audit_creation_method           SHELXL-2014/7
_audit_update_record
;
2017-09-11 deposited with the CCDC.
2017-10-30 downloaded from the CCDC.
;
_cell_angle_alpha                90
_cell_angle_beta                 90
_cell_angle_gamma                120
_cell_formula_units_Z            9
_cell_length_a                   32.7506(17)
_cell_length_b                   32.7506(17)
_cell_length_c                   9.1292(4)
_cell_measurement_reflns_used    2456
_cell_measurement_temperature    110(2)
_cell_measurement_theta_max      25.1
_cell_measurement_theta_min      2.34
_cell_volume                     8480.1(7)
_computing_cell_refinement       'Saint, Bruker-AXS'
_computing_data_collection       'Apex2, Bruker-AXS'
_computing_data_reduction        'Saint, Bruker-AXS'
_computing_structure_refinement  'SHELXL-2014/7 (Sheldrick, 2015)'
_computing_structure_solution    'SHELXT-2014 (Sheldrick, 2015)'
_diffrn_ambient_temperature      110(2)
_diffrn_detector_area_resol_mean 1.75
_diffrn_measured_fraction_theta_full 0.993
_diffrn_measured_fraction_theta_max 0.993
_diffrn_measurement_device_type  'ApexDuo, Bruker-AXS'
_diffrn_measurement_method       '1 deg. \f and \w scans'
_diffrn_radiation_type           MoK\a
_diffrn_radiation_wavelength     0.71073
_diffrn_reflns_av_R_equivalents  0.0466
_diffrn_reflns_av_unetI/netI     0.0666
_diffrn_reflns_Laue_measured_fraction_full 0.993
_diffrn_reflns_Laue_measured_fraction_max 0.993
_diffrn_reflns_limit_h_max       23
_diffrn_reflns_limit_h_min       -38
_diffrn_reflns_limit_k_max       39
_diffrn_reflns_limit_k_min       -13
_diffrn_reflns_limit_l_max       10
_diffrn_reflns_limit_l_min       -10
_diffrn_reflns_number            8027
_diffrn_reflns_point_group_measured_fraction_full 0.993
_diffrn_reflns_point_group_measured_fraction_max 0.993
_diffrn_reflns_theta_full        25.106
_diffrn_reflns_theta_max         25.106
_diffrn_reflns_theta_min         2.344
_diffrn_source                   'ImuS micro-focus'
_exptl_absorpt_coefficient_mu    0.509
_exptl_absorpt_correction_T_max  0.960
_exptl_absorpt_correction_T_min  0.842
_exptl_absorpt_correction_type   multi-scan
_exptl_absorpt_process_details   'Sadabs, Bruker-AXS'
_exptl_crystal_colour            red
_exptl_crystal_density_diffrn    1.346
_exptl_crystal_description       needle
_exptl_crystal_F_000             3519
_exptl_crystal_size_max          0.350
_exptl_crystal_size_mid          0.100
_exptl_crystal_size_min          0.080
_refine_diff_density_max         0.394
_refine_diff_density_min         -0.271
_refine_diff_density_rms         0.058
_refine_ls_extinction_method     none
_refine_ls_goodness_of_fit_ref   1.005
_refine_ls_hydrogen_treatment    constr
_refine_ls_matrix_type           full
_refine_ls_number_parameters     250
_refine_ls_number_reflns         3329
_refine_ls_number_restraints     0
_refine_ls_restrained_S_all      1.005
_refine_ls_R_factor_all          0.0669
_refine_ls_R_factor_gt           0.0420
_refine_ls_shift/su_max          0.000
_refine_ls_shift/su_mean         0.000
_refine_ls_structure_factor_coef Fsqd
_refine_ls_weighting_details
'w=1/[\s^2^(Fo^2^)+(0.0471P)^2^] where P=(Fo^2^+2Fc^2^)/3'
_refine_ls_weighting_scheme      calc
_refine_ls_wR_factor_gt          0.0887
_refine_ls_wR_factor_ref         0.0983
_reflns_Friedel_coverage         0.000
_reflns_number_gt                2456
_reflns_number_total             3329
_reflns_threshold_expression     'I > 2\s(I)'
_cod_data_source_file            c7ce01642e2.cif
_cod_data_source_block           gs35_sq
_cod_original_cell_volume        8480.1(10)
_cod_database_code               7229433
_shelx_shelxl_version_number     2014/7
_shelx_space_group_comment
;
The symmetry employed for this shelxl refinement is uniquely defined
by the following loop, which should always be used as a source of
symmetry information in preference to the above space-group names.
They are only intended as comments.
;
_shelx_estimated_absorpt_t_min   0.842
_shelx_estimated_absorpt_t_max   0.960
_platon_squeeze_void_probe_radius 1.20
_shelx_res_file
;

    gs35_sq.res created by SHELXL-2014/7


TITL mo_gs35_0m_a.res in R-3
REM Old TITL mo_gs35_0m in R-3

REM SHELXT solution in R-3
REM R1 0.138,  Rweak 0.010,  Alpha 0.038,  Orientation as input
REM Formula found by SHELXT:  C46 N6 O2 Co

CELL  0.71073  32.7506  32.7506   9.1292   90.000   90.000  120.000
ZERR    9.000   0.0017   0.0017   0.0004    0.000    0.000    0.000
LATT  3
SYMM -Y, X-Y, Z
SYMM -X+Y, -X, Z
SFAC C H N O CO
UNIT 378 216 72 36 9
TEMP -163.00
size 0.35 0.10 0.08
L.S. 5 0   19
BOND $H
acta
FMAP 2
PLAN -20
ABIN
WGHT    0.047100
FVAR       0.14643
CO1   5    0.500000    0.500000    1.000000    10.50000    0.01143    0.00968 =
         0.01292   -0.00024    0.00125    0.00274
N1    3    0.464649    0.466828    0.819165    11.00000    0.01325    0.01155 =
         0.01589   -0.00188    0.00095    0.00406
N2    3    0.501370    0.558002    0.928227    11.00000    0.01020    0.01380 =
         0.01466    0.00140    0.00029    0.00358
N3    3    0.376275    0.240367    0.761822    11.00000    0.02051    0.01489 =
         0.01891    0.00116   -0.00145    0.00974
N4    3    0.386710    0.577092    0.188047    11.00000    0.04008    0.03014 =
         0.04148    0.00701   -0.01069    0.01551
O1    4    0.406187    0.580298    0.070816    11.00000    0.07806    0.05575 =
         0.03479    0.00648   -0.00967    0.04342
O2    4    0.351753    0.581015    0.202226    11.00000    0.03669    0.07544 =
         0.06701    0.02283   -0.00571    0.03234
C1    1    0.483218    0.564718    0.799541    11.00000    0.01358    0.01701 =
         0.01825   -0.00019    0.00183    0.00724
C2    1    0.449032    0.484070    0.707018    11.00000    0.01451    0.01754 =
         0.01704   -0.00055   -0.00003    0.00690
C3    1    0.443798    0.418886    0.791768    11.00000    0.01777    0.01369 =
         0.01801   -0.00386   -0.00077    0.00461
C4    1    0.458210    0.530264    0.695724    11.00000    0.01266    0.01618 =
         0.02044    0.00140    0.00143    0.00511
C5    1    0.526044    0.602159    0.990575    11.00000    0.01744    0.01437 =
         0.01869    0.00032    0.00398    0.00751
C6    1    0.422718    0.336262    0.835837    11.00000    0.02304    0.01343 =
         0.01584    0.00037   -0.00478    0.00749
C7    1    0.448122    0.386812    0.880427    11.00000    0.01591    0.01311 =
         0.01854   -0.00163    0.00128    0.00489
C8    1    0.439929    0.319215    0.727227    11.00000    0.01885    0.01787 =
         0.02241   -0.00098    0.00118    0.00579
AFIX  43
H8    2    0.468077    0.340015    0.676247    11.00000   -1.20000
AFIX   0
C9    1    0.415993    0.406825    0.660161    11.00000    0.02569    0.01535 =
         0.02197   -0.00566   -0.00772    0.00599
AFIX  43
H9    2    0.398619    0.376349    0.617672    11.00000   -1.20000
AFIX   0
C10   1    0.439896    0.543543    0.564362    11.00000    0.01646    0.01120 =
         0.02216   -0.00122   -0.00503    0.00123
C11   1    0.359637    0.256948    0.866137    11.00000    0.02294    0.01789 =
         0.01799   -0.00021    0.00030    0.00631
AFIX  43
H11   2    0.331495    0.235330    0.915648    11.00000   -1.20000
AFIX   0
C12   1    0.457755    0.544098    0.425881    11.00000    0.02299    0.01854 =
         0.02368   -0.00221   -0.00341    0.00980
AFIX  43
H12   2    0.481593    0.535855    0.415302    11.00000   -1.20000
AFIX   0
C13   1    0.522163    0.636311    0.901593    11.00000    0.02545    0.01390 =
         0.02356    0.00017   -0.00071    0.00896
AFIX  43
H13   2    0.535736    0.668998    0.922007    11.00000   -1.20000
AFIX   0
C14   1    0.415821    0.271918    0.694193    11.00000    0.02371    0.02009 =
         0.01850   -0.00184    0.00304    0.01164
AFIX  43
H14   2    0.427988    0.261004    0.618815    11.00000   -1.20000
AFIX   0
C15   1    0.381335    0.303769    0.905031    11.00000    0.02697    0.01771 =
         0.01793   -0.00438    0.00153    0.00838
AFIX  43
H15   2    0.368000    0.313851    0.979205    11.00000   -1.20000
AFIX   0
C16   1    0.495788    0.613458    0.784198    11.00000    0.02449    0.01627 =
         0.02211    0.00165   -0.00205    0.00854
AFIX  43
H16   2    0.487118    0.626824    0.706283    11.00000   -1.20000
AFIX   0
C17   1    0.419216    0.446818    0.608536    11.00000    0.02550    0.02278 =
         0.01836   -0.00308   -0.00699    0.01123
AFIX  43
H17   2    0.404486    0.449831    0.522812    11.00000   -1.20000
AFIX   0
C18   1    0.441594    0.556378    0.303225    11.00000    0.02897    0.02260 =
         0.02161   -0.00160   -0.00359    0.01011
AFIX  43
H18   2    0.454594    0.557392    0.209362    11.00000   -1.20000
AFIX   0
C19   1    0.406229    0.567117    0.320023    11.00000    0.02908    0.01753 =
         0.02897    0.00497   -0.00895    0.00812
C20   1    0.404729    0.555305    0.578036    11.00000    0.02388    0.02510 =
         0.02560    0.00125   -0.00100    0.01202
AFIX  43
H20   2    0.392423    0.555418    0.672173    11.00000   -1.20000
AFIX   0
C21   1    0.387386    0.566885    0.455747    11.00000    0.02234    0.02683 =
         0.04601    0.00712   -0.00191    0.01255
AFIX  43
H21   2    0.363064    0.574494    0.465154    11.00000   -1.20000
AFIX   0
HKLF 4

REM  mo_gs35_0m_a.res in R-3
REM R1 =  0.0420 for    2456 Fo > 4sig(Fo)  and  0.0669 for all    3329 data
REM    250 parameters refined using      0 restraints

END

WGHT      0.0419      0.3187

REM Highest difference peak  0.394,  deepest hole -0.271,  1-sigma level  0.058
Q1    1   0.5140  0.4902  1.0879  11.00000  0.05    0.39
Q2    1   0.5080  0.5236  1.0924  11.00000  0.05    0.35
Q3    1   0.5047  0.4753  0.9435  11.00000  0.05    0.34
Q4    1   0.4924  0.4964  0.8809  11.00000  0.05    0.30
Q5    1   0.4683  0.5107  0.6735  11.00000  0.05    0.29
Q6    1   0.3873  0.5880 -0.0300  11.00000  0.05    0.27
Q7    1   0.4676  0.4894  0.9438  11.00000  0.05    0.26
Q8    1   0.4404  0.5020  0.7456  11.00000  0.05    0.24
Q9    1   0.5241  0.6017  1.0806  11.00000  0.05    0.24
Q10   1   0.4100  0.3200  0.8990  11.00000  0.05    0.23
Q11   1   0.4929  0.5854  0.7678  11.00000  0.05    0.23
Q12   1   0.4788  0.4870  1.0905  11.00000  0.05    0.22
Q13   1   0.4827  0.5464  0.7352  11.00000  0.05    0.22
Q14   1   0.0000  0.0000  0.2927  10.33333  0.05    0.22
Q15   1   0.4820  0.5581  0.8690  11.00000  0.05    0.22
Q16   1   0.3937  0.5634  0.2697  11.00000  0.05    0.22
Q17   1   0.5509  0.5303  0.8465  11.00000  0.05    0.22
Q18   1   0.4635  0.5562  0.5134  11.00000  0.05    0.22
Q19   1   0.3624  0.6040  0.3024  11.00000  0.05    0.22
Q20   1   0.4117  0.5835  0.3998  11.00000  0.05    0.22
;
_shelx_res_checksum              65515
_shelx_fab_file
;
   -4    5    0     88.00      0.00
   -3    6    0     51.81      0.00
    0    6    0     37.84      0.00
   -5    7    0     21.86      0.00
   -2    7    0     29.04      0.00
   -7    8    0     25.35      0.00
   -4    8    0     12.57      0.00
   -1    8    0     24.00      0.00
   -6    9    0     -1.14      0.00
   -3    9    0      6.14      0.00
    0    9    0     23.63      0.00
   -8   10    0     10.04      0.00
   -5   10    0     -7.83      0.00
   -2   10    0     17.63      0.00
  -10   11    0     21.84      0.00
   -7   11    0      1.89      0.00
   -4   11    0      2.45      0.00
   -1   11    0     19.22      0.00
   -9   12    0     12.03      0.00
   -6   12    0     -2.40      0.00
   -3   12    0     10.27      0.00
    0   12    0     20.55      0.00
  -11   13    0     20.04      0.00
   -8   13    0      7.26      0.00
   -5   13    0     -0.82      0.00
   -2   13    0      9.95      0.00
  -13   14    0     18.08      0.00
  -10   14    0     17.77      0.00
   -7   14    0      3.65      0.00
   -4   14    0     -2.15      0.00
   -1   14    0     12.06      0.00
  -12   15    0     20.37      0.00
   -9   15    0     15.71      0.00
   -6   15    0     -1.46      0.00
   -3   15    0      1.78      0.00
    0   15    0     12.00      0.00
  -14   16    0     16.17      0.00
  -11   16    0     22.75      0.00
   -8   16    0      8.12      0.00
   -5   16    0     -5.53      0.00
   -2   16    0      7.15      0.00
  -16   17    0      8.88      0.00
  -13   17    0     19.68      0.00
  -10   17    0     18.95      0.00
   -7   17    0     -2.22      0.00
   -4   17    0     -0.86      0.00
   -1   17    0      8.83      0.00
  -15   18    0      9.97      0.00
  -12   18    0     20.06      0.00
   -9   18    0      7.39      0.00
   -6   18    0     -4.51      0.00
   -3   18    0      5.01      0.00
    0   18    0      3.31      0.00
  -17   19    0      1.75      0.00
  -14   19    0     12.44      0.00
  -11   19    0     12.63      0.00
   -8   19    0     -0.71      0.00
   -5   19    0      2.23      0.00
   -2   19    0      5.97      0.00
  -19   20    0     -4.48      0.00
  -16   20    0      3.81      0.00
  -13   20    0     12.77      0.00
  -10   20    0      4.94      0.00
   -7   20    0      0.21      0.00
   -4   20    0      6.00      0.00
   -1   20    0      0.91      0.00
  -18   21    0     -3.20      0.00
  -15   21    0      5.00      0.00
  -12   21    0      5.03      0.00
   -9   21    0      1.95      0.00
   -6   21    0      5.29      0.00
   -3   21    0      4.49      0.00
    0   21    0     -4.42      0.00
  -20   22    0     -6.64      0.00
  -17   22    0     -0.92      0.00
  -14   22    0      1.13      0.00
  -11   22    0      1.38      0.00
   -8   22    0      5.81      0.00
   -5   22    0      6.25      0.00
   -2   22    0     -0.77      0.00
  -22   23    0     -7.00      0.00
  -19   23    0     -4.56      0.00
  -13   23    0     -0.94      0.00
  -10   23    0      3.95      0.00
   -7   23    0      7.22      0.00
   -4   23    0      4.14      0.00
   -1   23    0     -2.68      0.00
  -21   24    0     -5.13      0.00
  -18   24    0     -2.90      0.00
  -15   24    0     -5.30      0.00
  -12   24    0      1.64      0.00
   -9   24    0     10.01      0.00
   -6   24    0      7.17      0.00
   -3   24    0      1.73      0.00
    0   24    0     -3.65      0.00
  -23   25    0     -3.52      0.00
  -20   25    0     -1.91      0.00
  -17   25    0     -4.60      0.00
  -14   25    0     -3.41      0.00
  -11   25    0      7.74      0.00
   -8   25    0      9.23      0.00
   -5   25    0      3.94      0.00
   -2   25    0     -0.68      0.00
  -25   26    0     -1.14      0.00
  -22   26    0     -0.74      0.00
  -19   26    0     -2.51      0.00
  -16   26    0     -6.30      0.00
  -13   26    0      1.61      0.00
  -10   26    0      8.50      0.00
   -7   26    0      6.19      0.00
   -4   26    0      3.27      0.00
   -1   26    0     -0.75      0.00
  -24   27    0      1.12      0.00
  -21   27    0     -0.44      0.00
  -18   27    0     -8.07      0.00
  -15   27    0     -4.31      0.00
  -12   27    0      7.80      0.00
   -9   27    0      7.67      0.00
   -6   27    0      4.37      0.00
   -3   27    0      1.51      0.00
    0   27    0      0.67      0.00
  -26   28    0      2.66      0.00
  -23   28    0      2.31      0.00
  -20   28    0     -3.97      0.00
  -17   28    0     -6.72      0.00
  -14   28    0      2.39      0.00
  -11   28    0      7.20      0.00
   -8   28    0      5.06      0.00
   -5   28    0      3.03      0.00
   -2   28    0      1.17      0.00
  -28   29    0      4.22      0.00
  -25   29    0      5.62      0.00
  -22   29    0      1.07      0.00
  -19   29    0     -5.76      0.00
  -16   29    0     -0.98      0.00
  -13   29    0      5.42      0.00
  -10   29    0      4.73      0.00
   -7   29    0      4.85      0.00
   -4   29    0      2.90      0.00
   -1   29    0      2.82      0.00
  -27   30    0      7.38      0.00
  -24   30    0      5.65      0.00
  -21   30    0     -3.57      0.00
  -18   30    0     -4.35      0.00
  -15   30    0      4.07      0.00
  -12   30    0      5.50      0.00
   -9   30    0      4.30      0.00
   -6   30    0      4.13      0.00
   -3   30    0      3.86      0.00
    0   30    0      5.99      0.00
  -29   31    0      6.31      0.00
  -26   31    0      6.14      0.00
  -23   31    0     -0.83      0.00
  -20   31    0     -4.35      0.00
  -17   31    0      0.85      0.00
  -14   31    0      3.60      0.00
  -11   31    0      4.00      0.00
   -8   31    0      5.03      0.00
   -5   31    0      4.69      0.00
   -2   31    0      6.15      0.00
  -31   32    0      5.11      0.00
  -28   32    0      5.79      0.00
  -25   32    0      2.37      0.00
  -22   32    0     -4.13      0.00
  -19   32    0     -0.48      0.00
  -16   32    0      4.05      0.00
  -13   32    0      3.05      0.00
  -10   32    0      4.20      0.00
   -7   32    0      5.37      0.00
   -4   32    0      6.42      0.00
   -1   32    0      7.70      0.00
  -30   33    0      5.80      0.00
  -27   33    0      4.26      0.00
  -24   33    0     -2.14      0.00
  -21   33    0     -1.65      0.00
  -18   33    0      3.48      0.00
  -15   33    0      4.24      0.00
  -12   33    0      4.14      0.00
   -9   33    0      4.20      0.00
   -6   33    0      6.28      0.00
   -3   33    0      9.05      0.00
    0   33    0      8.14      0.00
  -32   34    0      4.50      0.00
  -29   34    0      3.01      0.00
  -26   34    0     -2.10      0.00
  -23   34    0     -3.14      0.00
  -20   34    0      2.96      0.00
  -17   34    0      2.90      0.00
  -14   34    0      2.75      0.00
  -11   34    0      4.60      0.00
   -8   34    0      5.78      0.00
   -5   34    0      8.62      0.00
   -2   34    0      8.66      0.00
  -31   35    0      1.03      0.00
  -28   35    0     -1.83      0.00
  -25   35    0     -6.09      0.00
  -22   35    0     -0.97      0.00
  -19   35    0      3.23      0.00
  -16   35    0      2.83      0.00
  -13   35    0      3.70      0.00
  -10   35    0      3.82      0.00
   -7   35    0      6.37      0.00
   -4   35    0      8.27      0.00
  -30   36    0     -2.01      0.00
  -27   36    0     -6.53      0.00
  -24   36    0     -2.87      0.00
  -21   36    0      3.91      0.00
  -18   36    0      3.17      0.00
  -15   36    0      4.63      0.00
  -12   36    0      3.50      0.00
   -9   36    0      3.19      0.00
   -6   36    0      6.58      0.00
  -29   37    0     -3.67      0.00
  -26   37    0     -3.99      0.00
  -23   37    0      4.21      0.00
  -20   37    0      4.96      0.00
  -17   37    0      2.91      0.00
  -14   37    0      3.86      0.00
  -11   37    0      2.92      0.00
   -8   37    0      4.59      0.00
  -25   38    0     -0.36      0.00
  -22   38    0      4.06      0.00
  -19   38    0      2.69      0.00
  -16   38    0      3.85      0.00
  -13   38    0      1.78      0.00
  -21   39    0      2.61      0.00
  -18   39    0      1.93      0.00
   -1    1    1    122.06      0.00
   -3    2    1     75.09      0.00
    0    2    1     90.64      0.00
   -5    3    1     24.80      0.00
   -2    3    1     52.00      0.00
    1    3    1     60.12      0.00
   -7    4    1      2.38      0.00
   -4    4    1     15.02      0.00
   -1    4    1     26.13      0.00
    2    4    1     21.13      0.00
   -9    5    1    -21.39      0.00
   -6    5    1    -21.22      0.00
   -3    5    1    -26.66      0.00
    0    5    1      9.91      0.00
    3    5    1     -3.33      0.00
   -8    6    1    -30.16      0.00
   -5    6    1    -56.19      0.00
   -2    6    1    -36.98      0.00
    1    6    1      5.58      0.00
  -13    7    1    -21.54      0.00
  -10    7    1    -26.39      0.00
   -7    7    1    -43.21      0.00
   -4    7    1    -66.34      0.00
   -1    7    1    -24.97      0.00
    2    7    1     -3.64      0.00
  -15    8    1    -11.02      0.00
  -12    8    1    -17.79      0.00
   -9    8    1    -29.84      0.00
   -6    8    1    -63.39      0.00
   -3    8    1    -49.66      0.00
    0    8    1     -2.69      0.00
    3    8    1     -5.92      0.00
    6    8    1    -12.74      0.00
  -17    9    1     -8.31      0.00
  -14    9    1    -12.68      0.00
  -11    9    1    -14.00      0.00
   -8    9    1    -37.30      0.00
   -5    9    1    -59.74      0.00
   -2    9    1    -29.61      0.00
    1    9    1      1.29      0.00
    4    9    1     -4.46      0.00
    7    9    1     -5.27      0.00
  -19   10    1    -10.54      0.00
  -16   10    1     -9.26      0.00
  -13   10    1     -9.52      0.00
  -10   10    1    -17.63      0.00
   -7   10    1    -41.46      0.00
   -4   10    1    -45.57      0.00
   -1   10    1    -12.97      0.00
    2   10    1      7.63      0.00
    5   10    1      0.81      0.00
    8   10    1     -5.13      0.00
  -21   11    1    -13.48      0.00
  -18   11    1    -11.45      0.00
  -15   11    1     -7.86      0.00
  -12   11    1     -7.75      0.00
   -9   11    1    -20.45      0.00
   -6   11    1    -33.51      0.00
   -3   11    1    -25.32      0.00
    0   11    1      4.33      0.00
    3   11    1      9.10      0.00
    6   11    1      0.21      0.00
    9   11    1     -9.86      0.00
  -23   12    1    -15.00      0.00
  -20   12    1    -13.52      0.00
  -17   12    1     -7.81      0.00
  -14   12    1     -3.41      0.00
  -11   12    1     -3.76      0.00
   -8   12    1    -12.87      0.00
   -5   12    1    -29.11      0.00
   -2   12    1    -14.69      0.00
    1   12    1     13.08      0.00
    4   12    1      7.00      0.00
    7   12    1     -4.23      0.00
   10   12    1    -13.03      0.00
  -25   13    1    -11.97      0.00
  -22   13    1    -12.72      0.00
  -19   13    1     -9.20      0.00
  -16   13    1     -2.90      0.00
  -13   13    1     -1.11      0.00
  -10   13    1      0.17      0.00
   -7   13    1    -13.32      0.00
   -4   13    1    -27.17      0.00
   -1   13    1      0.09      0.00
    2   13    1     13.23      0.00
    5   13    1     -0.44      0.00
    8   13    1     -8.94      0.00
   11   13    1    -13.22      0.00
  -27   14    1     -8.92      0.00
  -24   14    1     -8.38      0.00
  -21   14    1     -7.97      0.00
  -18   14    1     -3.63      0.00
  -15   14    1     -0.47      0.00
  -12   14    1      3.72      0.00
   -9   14    1      3.17      0.00
   -6   14    1    -19.93      0.00
   -3   14    1    -17.99      0.00
    0   14    1      8.90      0.00
    3   14    1      4.82      0.00
    6   14    1     -7.71      0.00
   12   14    1    -13.74      0.00
  -29   15    1     -5.78      0.00
  -26   15    1     -5.45      0.00
  -23   15    1     -4.51      0.00
  -20   15    1     -2.08      0.00
  -17   15    1      1.44      0.00
  -14   15    1      4.24      0.00
  -11   15    1     11.67      0.00
   -8   15    1     -2.89      0.00
   -5   15    1    -24.00      0.00
   -2   15    1     -5.23      0.00
    1   15    1      6.10      0.00
    4   15    1     -7.39      0.00
    7   15    1    -11.29      0.00
   10   15    1    -12.67      0.00
   13   15    1    -11.37      0.00
  -31   16    1     -5.06      0.00
  -28   16    1     -2.81      0.00
  -25   16    1     -1.23      0.00
  -22   16    1     -0.55      0.00
  -19   16    1      1.16      0.00
  -16   16    1      4.56      0.00
  -13   16    1     13.27      0.00
  -10   16    1     12.53      0.00
   -7   16    1    -13.13      0.00
   -4   16    1    -17.65      0.00
   -1   16    1      0.98      0.00
    2   16    1     -4.33      0.00
    5   16    1    -13.62      0.00
   11   16    1    -12.41      0.00
   14   16    1     -8.17      0.00
  -33   17    1     -2.60      0.00
  -30   17    1     -2.56      0.00
  -27   17    1     -0.01      0.00
  -24   17    1      2.51      0.00
  -21   17    1      2.87      0.00
  -18   17    1      3.55      0.00
  -15   17    1     10.08      0.00
  -12   17    1     16.99      0.00
   -9   17    1      2.88      0.00
   -6   17    1    -16.18      0.00
   -3   17    1     -8.84      0.00
    0   17    1     -3.16      0.00
    3   17    1    -13.79      0.00
    6   17    1    -13.73      0.00
    9   17    1    -10.89      0.00
   12   17    1    -10.74      0.00
   15   17    1     -6.23      0.00
  -35   18    1     -0.87      0.00
  -32   18    1     -2.59      0.00
  -29   18    1      0.04      0.00
  -26   18    1      2.86      0.00
  -23   18    1      4.21      0.00
  -20   18    1      2.97      0.00
  -17   18    1      6.63      0.00
  -14   18    1     14.96      0.00
  -11   18    1     11.68      0.00
   -8   18    1     -5.02      0.00
   -5   18    1    -12.03      0.00
   -2   18    1     -7.21      0.00
    1   18    1    -12.83      0.00
    4   18    1    -16.37      0.00
    7   18    1     -9.25      0.00
   10   18    1     -8.93      0.00
   13   18    1     -9.94      0.00
   16   18    1     -4.19      0.00
  -37   19    1      0.28      0.00
  -34   19    1     -1.66      0.00
  -31   19    1     -1.91      0.00
  -28   19    1      1.92      0.00
  -25   19    1      3.70      0.00
  -22   19    1      2.08      0.00
  -19   19    1      1.77      0.00
  -16   19    1     12.23      0.00
  -13   19    1     15.28      0.00
  -10   19    1      4.53      0.00
   -7   19    1     -6.41      0.00
   -4   19    1     -8.58      0.00
   -1   19    1     -9.79      0.00
    2   19    1    -16.71      0.00
    5   19    1    -13.13      0.00
    8   19    1     -6.34      0.00
   11   19    1     -7.13      0.00
   14   19    1     -5.86      0.00
   17   19    1      0.15      0.00
  -36   20    1      0.68      0.00
  -33   20    1     -2.45      0.00
  -30   20    1     -0.69      0.00
  -27   20    1      2.79      0.00
  -24   20    1      3.35      0.00
  -21   20    1      0.62      0.00
  -18   20    1      5.63      0.00
  -15   20    1     12.43      0.00
  -12   20    1      9.32      0.00
   -9   20    1      4.82      0.00
   -6   20    1     -3.33      0.00
   -3   20    1    -10.09      0.00
    0   20    1    -14.82      0.00
    3   20    1    -15.49      0.00
    6   20    1     -5.99      0.00
    9   20    1     -2.55      0.00
   12   20    1     -7.44      0.00
   15   20    1     -3.28      0.00
   18   20    1      2.16      0.00
  -38   21    1      0.59      0.00
  -35   21    1     -0.30      0.00
  -32   21    1     -1.60      0.00
  -29   21    1      1.72      0.00
  -26   21    1      2.53      0.00
  -23   21    1      0.78      0.00
  -20   21    1      1.65      0.00
  -17   21    1      9.86      0.00
  -14   21    1      8.48      0.00
  -11   21    1      6.97      0.00
   -8   21    1      5.19      0.00
   -5   21    1     -6.73      0.00
   -2   21    1    -13.75      0.00
    1   21    1    -15.46      0.00
    4   21    1     -9.68      0.00
    7   21    1     -0.20      0.00
   10   21    1     -2.45      0.00
   13   21    1     -5.89      0.00
   16   21    1      1.37      0.00
  -37   22    1      1.85      0.00
  -34   22    1     -0.45      0.00
  -31   22    1      0.18      0.00
  -28   22    1      1.91      0.00
  -25   22    1      0.63      0.00
  -22   22    1     -1.01      0.00
  -19   22    1      4.80      0.00
  -16   22    1      7.59      0.00
  -13   22    1      4.29      0.00
  -10   22    1      8.09      0.00
   -7   22    1      2.25      0.00
   -4   22    1     -9.83      0.00
   -1   22    1    -13.33      0.00
    2   22    1    -12.34      0.00
    5   22    1     -2.58      0.00
    8   22    1      3.16      0.00
   11   22    1     -3.52      0.00
   14   22    1     -1.70      0.00
  -36   23    1      0.43      0.00
  -33   23    1     -1.26      0.00
  -30   23    1      0.62      0.00
  -27   23    1      0.39      0.00
  -24   23    1     -0.78      0.00
  -21   23    1      1.57      0.00
  -18   23    1      3.42      0.00
  -15   23    1      0.75      0.00
  -12   23    1      8.04      0.00
   -9   23    1     11.51      0.00
   -6   23    1     -3.73      0.00
   -3   23    1    -12.19      0.00
    0   23    1    -11.50      0.00
    3   23    1     -5.71      0.00
    6   23    1      4.98      0.00
    9   23    1      1.06      0.00
   12   23    1     -6.08      0.00
   15   23    1      2.91      0.00
  -38   24    1     -0.23      0.00
  -35   24    1     -0.81      0.00
  -32   24    1     -0.41      0.00
  -29   24    1     -0.54      0.00
  -26   24    1     -2.47      0.00
  -23   24    1     -0.44      0.00
  -20   24    1      3.57      0.00
  -17   24    1      0.24      0.00
  -14   24    1      0.93      0.00
  -11   24    1     11.33      0.00
   -8   24    1      6.49      0.00
   -5   24    1     -8.00      0.00
   -2   24    1    -10.32      0.00
    1   24    1     -8.22      0.00
    4   24    1      0.13      0.00
    7   24    1      5.93      0.00
   10   24    1     -2.25      0.00
   13   24    1     -1.71      0.00
  -37   25    1     -0.85      0.00
  -34   25    1     -0.82      0.00
  -31   25    1     -0.99      0.00
  -28   25    1     -2.83      0.00
  -25   25    1     -2.56      0.00
  -22   25    1      2.22      0.00
  -19   25    1      0.09      0.00
  -16   25    1     -2.29      0.00
  -13   25    1      6.51      0.00
  -10   25    1     11.56      0.00
   -7   25    1      0.29      0.00
   -4   25    1     -8.29      0.00
   -1   25    1     -8.36      0.00
    2   25    1     -3.17      0.00
    5   25    1      5.94      0.00
    8   25    1      1.86      0.00
   11   25    1     -5.87      0.00
  -36   26    1     -2.04      0.00
  -33   26    1     -0.83      0.00
  -30   26    1     -1.87      0.00
  -27   26    1     -3.32      0.00
  -24   26    1      1.76      0.00
  -21   26    1      1.60      0.00
  -18   26    1     -5.40      0.00
  -15   26    1      1.11      0.00
  -12   26    1     11.97      0.00
   -9   26    1      6.60      0.00
   -6   26    1     -4.53      0.00
   -3   26    1     -6.34      0.00
    0   26    1     -4.16      0.00
    3   26    1      2.92      0.00
    6   26    1      5.62      0.00
    9   26    1     -5.33      0.00
   12   26    1     -4.98      0.00
  -35   27    1     -0.66      0.00
  -32   27    1     -0.53      0.00
  -29   27    1     -3.36      0.00
  -26   27    1     -1.96      0.00
  -23   27    1      2.95      0.00
  -20   27    1     -2.98      0.00
  -17   27    1     -4.92      0.00
  -14   27    1      4.28      0.00
  -11   27    1      9.27      0.00
   -8   27    1      2.59      0.00
   -5   27    1     -4.14      0.00
   -2   27    1     -4.35      0.00
    1   27    1     -1.10      0.00
    4   27    1      3.99      0.00
    7   27    1      0.39      0.00
   10   27    1     -6.21      0.00
  -37   28    1     -2.14      0.00
  -34   28    1      0.36      0.00
  -31   28    1     -1.08      0.00
  -28   28    1     -2.75      0.00
  -25   28    1      1.73      0.00
  -22   28    1     -1.51      0.00
  -19   28    1     -7.22      0.00
  -16   28    1      0.28      0.00
  -13   28    1      6.90      0.00
  -10   28    1      4.76      0.00
   -7   28    1     -0.63      0.00
   -4   28    1     -4.81      0.00
   -1   28    1     -3.57      0.00
    2   28    1      1.51      0.00
    5   28    1      1.80      0.00
    8   28    1     -6.47      0.00
  -36   29    1      0.37      0.00
  -33   29    1      2.90      0.00
  -30   29    1      0.03      0.00
  -27   29    1      1.18      0.00
  -24   29    1      2.52      0.00
  -21   29    1     -5.75      0.00
  -18   29    1     -4.38      0.00
  -15   29    1      4.53      0.00
  -12   29    1      5.13      0.00
   -9   29    1      0.80      0.00
   -6   29    1     -2.82      0.00
   -3   29    1     -3.44      0.00
    0   29    1     -1.38      0.00
    3   29    1      1.42      0.00
    6   29    1     -2.63      0.00
  -35   30    1      3.74      0.00
  -32   30    1      3.67      0.00
  -29   30    1      1.16      0.00
  -26   30    1      3.02      0.00
  -23   30    1     -0.98      0.00
  -20   30    1     -4.47      0.00
  -17   30    1     -0.07      0.00
  -14   30    1      2.95      0.00
  -11   30    1      3.58      0.00
   -8   30    1      1.16      0.00
   -5   30    1     -2.54      0.00
   -2   30    1     -1.86      0.00
    1   30    1     -0.72      0.00
    4   30    1     -1.07      0.00
  -34   31    1      4.83      0.00
  -31   31    1      3.30      0.00
  -28   31    1      3.12      0.00
  -25   31    1      0.33      0.00
  -22   31    1     -5.68      0.00
  -19   31    1     -1.56      0.00
  -16   31    1      2.86      0.00
  -13   31    1      1.75      0.00
  -10   31    1      2.03      0.00
   -7   31    1     -0.15      0.00
   -4   31    1     -2.54      0.00
   -1   31    1     -2.00      0.00
    2   31    1     -1.15      0.00
  -33   32    1      5.48      0.00
  -30   32    1      2.21      0.00
  -27   32    1      0.90      0.00
  -24   32    1     -3.03      0.00
  -21   32    1     -2.91      0.00
  -18   32    1      1.47      0.00
  -15   32    1      2.63      0.00
  -12   32    1      2.03      0.00
   -9   32    1     -0.04      0.00
   -6   32    1     -1.57      0.00
   -3   32    1     -1.88      0.00
    0   32    1     -2.19      0.00
    3   32    1     -1.82      0.00
  -32   33    1      4.18      0.00
  -29   33    1      1.91      0.00
  -26   33    1     -0.55      0.00
  -23   33    1     -0.30      0.00
  -20   33    1      3.09      0.00
  -17   33    1      2.05      0.00
  -14   33    1      2.08      0.00
  -11   33    1      3.00      0.00
   -8   33    1      0.31      0.00
   -5   33    1     -0.88      0.00
   -2   33    1     -1.15      0.00
    1   33    1     -1.14      0.00
  -31   34    1      3.80      0.00
  -28   34    1      0.77      0.00
  -25   34    1     -1.73      0.00
  -22   34    1      1.74      0.00
  -19   34    1      4.17      0.00
  -16   34    1      2.30      0.00
  -13   34    1      2.04      0.00
  -10   34    1      1.41      0.00
   -7   34    1      0.93      0.00
   -4   34    1      0.15      0.00
   -1   34    1      0.29      0.00
  -30   35    1     -1.89      0.00
  -27   35    1     -3.10      0.00
  -24   35    1      0.24      0.00
  -21   35    1      2.53      0.00
  -18   35    1      1.35      0.00
  -15   35    1      2.53      0.00
  -12   35    1      1.34      0.00
   -9   35    1     -0.19      0.00
   -6   35    1      0.84      0.00
   -3   35    1      0.40      0.00
  -29   36    1     -3.66      0.00
  -26   36    1     -1.86      0.00
  -23   36    1      3.06      0.00
  -20   36    1      2.43      0.00
  -17   36    1      0.54      0.00
  -14   36    1      2.18      0.00
  -11   36    1      0.95      0.00
   -8   36    1      0.04      0.00
  -28   37    1     -2.24      0.00
  -25   37    1      1.20      0.00
  -22   37    1      3.35      0.00
  -19   37    1      2.47      0.00
  -16   37    1      1.95      0.00
  -13   37    1      0.39      0.00
  -10   37    1     -0.06      0.00
  -24   38    1      2.54      0.00
  -21   38    1      1.00      0.00
  -18   38    1      0.82      0.00
  -15   38    1      1.65      0.00
  -12   38    1     -0.12      0.00
    0    1    2    -26.60      0.00
   -2    2    2    -29.47      0.00
    1    2    2    -14.14      0.00
   -4    3    2    -20.25      0.00
   -1    3    2    -36.52      0.00
    2    3    2     -4.17      0.00
   -6    4    2    -17.26      0.00
   -3    4    2    -41.05      0.00
    0    4    2    -14.60      0.00
    3    4    2      2.55      0.00
   -8    5    2    -17.77      0.00
   -5    5    2    -45.52      0.00
   -2    5    2    -47.58      0.00
    1    5    2     -5.31      0.00
    4    5    2     -6.14      0.00
  -10    6    2    -21.93      0.00
   -7    6    2    -43.24      0.00
   -4    6    2    -65.84      0.00
   -1    6    2    -40.89      0.00
    2    6    2     -1.26      0.00
    5    6    2     -6.45      0.00
  -12    7    2    -18.36      0.00
   -9    7    2    -40.35      0.00
   -6    7    2    -61.39      0.00
   -3    7    2    -56.32      0.00
    0    7    2    -20.37      0.00
    3    7    2      1.30      0.00
    6    7    2     -6.89      0.00
  -11    8    2    -24.10      0.00
   -8    8    2    -46.31      0.00
   -5    8    2    -59.47      0.00
   -2    8    2    -46.31      0.00
    1    8    2     -5.61      0.00
    4    8    2      5.92      0.00
    7    8    2     -5.31      0.00
  -16    9    2     -5.77      0.00
  -13    9    2    -12.58      0.00
  -10    9    2    -30.27      0.00
   -7    9    2    -43.34      0.00
   -4    9    2    -50.34      0.00
   -1    9    2    -29.84      0.00
    2    9    2      9.54      0.00
    5    9    2      5.71      0.00
    8    9    2     -6.79      0.00
  -18   10    2     -7.71      0.00
  -15   10    2     -4.65      0.00
  -12   10    2    -15.46      0.00
   -9   10    2    -27.74      0.00
   -6   10    2    -34.24      0.00
   -3   10    2    -40.26      0.00
    0   10    2     -7.91      0.00
    3   10    2     16.56      0.00
    6   10    2      0.60      0.00
    9   10    2     -9.82      0.00
  -20   11    2     -9.92      0.00
  -17   11    2     -3.99      0.00
  -14   11    2     -4.31      0.00
  -11   11    2    -12.29      0.00
   -8   11    2    -16.53      0.00
   -5   11    2    -32.94      0.00
   -2   11    2    -26.87      0.00
    1   11    2     14.01      0.00
    4   11    2     14.12      0.00
    7   11    2     -6.17      0.00
  -19   12    2     -8.31      0.00
  -16   12    2     -1.94      0.00
  -13   12    2     -3.20      0.00
  -10   12    2     -2.06      0.00
   -7   12    2    -10.41      0.00
   -4   12    2    -29.97      0.00
   -1   12    2     -5.50      0.00
    2   12    2     21.12      0.00
    5   12    2      2.99      0.00
    8   12    2    -10.46      0.00
  -24   13    2     -9.73      0.00
  -21   13    2     -9.55      0.00
  -18   13    2     -4.53      0.00
  -15   13    2      0.38      0.00
  -12   13    2      3.39      0.00
   -9   13    2      4.41      0.00
   -6   13    2    -16.45      0.00
   -3   13    2    -21.13      0.00
    0   13    2     10.99      0.00
    3   13    2     14.10      0.00
    6   13    2     -6.90      0.00
    9   13    2    -10.21      0.00
   12   13    2     -8.35      0.00
  -26   14    2     -8.04      0.00
  -23   14    2     -8.68      0.00
  -20   14    2     -6.20      0.00
  -17   14    2     -1.24      0.00
  -14   14    2      4.04      0.00
  -11   14    2      9.72      0.00
   -8   14    2     -1.22      0.00
   -5   14    2    -21.25      0.00
   -2   14    2     -6.90      0.00
    1   14    2     14.07      0.00
    4   14    2      1.51      0.00
    7   14    2     -9.06      0.00
   13   14    2     -7.77      0.00
  -28   15    2     -7.19      0.00
  -25   15    2     -5.57      0.00
  -22   15    2     -5.96      0.00
  -19   15    2     -4.28      0.00
  -16   15    2      2.39      0.00
  -13   15    2     11.59      0.00
  -10   15    2      9.36      0.00
   -7   15    2     -9.86      0.00
   -4   15    2    -16.53      0.00
   -1   15    2      2.66      0.00
    2   15    2      6.02      0.00
    5   15    2     -8.36      0.00
    8   15    2     -8.55      0.00
   11   15    2     -4.69      0.00
   14   15    2     -7.35      0.00
  -30   16    2     -7.93      0.00
  -27   16    2     -3.63      0.00
  -24   16    2     -2.20      0.00
  -21   16    2     -2.30      0.00
  -18   16    2     -0.23      0.00
  -15   16    2      9.59      0.00
  -12   16    2     14.02      0.00
   -9   16    2      2.55      0.00
   -6   16    2    -12.22      0.00
   -3   16    2    -10.49      0.00
    0   16    2      0.56      0.00
    3   16    2     -4.72      0.00
    6   16    2    -10.01      0.00
    9   16    2     -4.79      0.00
   12   16    2     -4.77      0.00
   15   16    2     -8.40      0.00
  -32   17    2     -6.35      0.00
  -29   17    2     -3.92      0.00
  -26   17    2      1.07      0.00
  -23   17    2      0.79      0.00
  -20   17    2      0.41      0.00
  -17   17    2      6.74      0.00
  -14   17    2     15.04      0.00
  -11   17    2      8.02      0.00
   -8   17    2     -3.71      0.00
   -5   17    2    -11.97      0.00
   -2   17    2    -10.11      0.00
    1   17    2     -6.06      0.00
    4   17    2     -9.73      0.00
    7   17    2     -7.14      0.00
   10   17    2     -1.62      0.00
   13   17    2     -5.60      0.00
   16   17    2     -6.26      0.00
  -34   18    2     -3.50      0.00
  -31   18    2     -5.47      0.00
  -28   18    2      1.69      0.00
  -25   18    2      3.99      0.00
  -22   18    2      1.22      0.00
  -19   18    2      2.51      0.00
  -16   18    2     13.41      0.00
  -13   18    2     12.04      0.00
  -10   18    2      0.95      0.00
   -7   18    2     -5.19      0.00
   -4   18    2    -12.40      0.00
   -1   18    2    -12.19      0.00
    2   18    2    -10.93      0.00
    5   18    2    -10.06      0.00
    8   18    2     -1.54      0.00
   11   18    2      0.70      0.00
   14   18    2     -5.90      0.00
   17   18    2     -4.46      0.00
  -36   19    2     -2.46      0.00
  -33   19    2     -5.10      0.00
  -30   19    2     -2.43      0.00
  -27   19    2      4.98      0.00
  -24   19    2      4.06      0.00
  -21   19    2      2.11      0.00
  -18   19    2      7.66      0.00
  -15   19    2     12.80      0.00
  -12   19    2      6.01      0.00
   -9   19    2      2.73      0.00
   -6   19    2     -6.16      0.00
   -3   19    2    -17.66      0.00
    0   19    2    -13.74      0.00
    3   19    2     -9.33      0.00
    6   19    2     -4.00      0.00
    9   19    2      2.82      0.00
   12   19    2     -2.00      0.00
   15   19    2     -6.01      0.00
   18   19    2     -2.53      0.00
  -38   20    2     -3.16      0.00
  -35   20    2     -4.10      0.00
  -32   20    2     -5.07      0.00
  -29   20    2      2.19      0.00
  -26   20    2      5.62      0.00
  -23   20    2      2.83      0.00
  -20   20    2      5.97      0.00
  -17   20    2     12.75      0.00
  -14   20    2      7.73      0.00
  -11   20    2      3.49      0.00
   -8   20    2      4.47      0.00
   -5   20    2    -10.46      0.00
   -2   20    2    -18.63      0.00
    1   20    2    -11.69      0.00
    4   20    2     -7.10      0.00
    7   20    2      1.69      0.00
   10   20    2      5.17      0.00
   13   20    2     -3.06      0.00
   16   20    2     -5.18      0.00
  -37   21    2     -2.54      0.00
  -34   21    2     -4.84      0.00
  -31   21    2     -2.00      0.00
  -28   21    2      5.13      0.00
  -25   21    2      4.02      0.00
  -22   21    2      3.21      0.00
  -19   21    2      9.71      0.00
  -16   21    2     10.14      0.00
  -13   21    2      4.53      0.00
  -10   21    2      7.58      0.00
   -7   21    2      2.33      0.00
   -4   21    2    -16.35      0.00
   -1   21    2    -16.72      0.00
    2   21    2     -8.76      0.00
    5   21    2     -1.00      0.00
    8   21    2      7.21      0.00
   11   21    2      3.47      0.00
   14   21    2     -4.35      0.00
   17   21    2     -3.22      0.00
  -36   22    2     -4.59      0.00
  -33   22    2     -4.75      0.00
  -30   22    2      1.14      0.00
  -27   22    2      5.05      0.00
  -24   22    2      3.33      0.00
  -21   22    2      7.70      0.00
  -18   22    2      8.38      0.00
  -15   22    2      4.43      0.00
  -12   22    2      7.77      0.00
   -9   22    2     10.37      0.00
   -6   22    2     -6.66      0.00
   -3   22    2    -18.08      0.00
    0   22    2     -9.63      0.00
    3   22    2     -1.98      0.00
    6   22    2      6.40      0.00
    9   22    2      8.77      0.00
   12   22    2      0.25      0.00
   15   22    2     -3.16      0.00
  -38   23    2     -3.27      0.00
  -35   23    2     -5.65      0.00
  -32   23    2     -2.51      0.00
  -29   23    2      2.63      0.00
  -26   23    2      2.60      0.00
  -23   23    2      5.23      0.00
  -20   23    2     10.38      0.00
  -17   23    2      4.09      0.00
  -14   23    2      2.30      0.00
  -11   23    2     10.89      0.00
   -8   23    2      8.47      0.00
   -5   23    2    -10.49      0.00
   -2   23    2    -13.14      0.00
    1   23    2     -4.43      0.00
    4   23    2      3.26      0.00
    7   23    2     10.98      0.00
   10   23    2      7.80      0.00
   13   23    2     -2.01      0.00
  -37   24    2     -5.81      0.00
  -34   24    2     -5.39      0.00
  -31   24    2     -1.04      0.00
  -28   24    2      2.04      0.00
  -25   24    2      2.21      0.00
  -22   24    2      7.93      0.00
  -19   24    2      5.28      0.00
  -16   24    2      1.65      0.00
  -13   24    2      7.48      0.00
  -10   24    2     12.28      0.00
   -7   24    2      0.76      0.00
   -4   24    2    -12.68      0.00
   -1   24    2     -8.72      0.00
    2   24    2      0.34      0.00
    5   24    2      7.34      0.00
    8   24    2      9.04      0.00
   11   24    2      2.51      0.00
   14   24    2     -0.74      0.00
  -36   25    2     -7.52      0.00
  -33   25    2     -3.85      0.00
  -30   25    2     -0.28      0.00
  -27   25    2      0.60      0.00
  -24   25    2      5.28      0.00
  -21   25    2      6.76      0.00
  -18   25    2     -1.12      0.00
  -15   25    2      2.72      0.00
  -12   25    2     10.95      0.00
   -9   25    2      7.60      0.00
   -6   25    2     -5.76      0.00
   -3   25    2    -10.16      0.00
    0   25    2     -3.48      0.00
    3   25    2      4.00      0.00
    6   25    2      9.47      0.00
    9   25    2      6.28      0.00
   12   25    2     -0.09      0.00
  -35   26    2     -6.60      0.00
  -32   26    2     -3.23      0.00
  -29   26    2     -2.23      0.00
  -26   26    2      0.09      0.00
  -23   26    2      6.79      0.00
  -20   26    2      2.51      0.00
  -17   26    2     -2.01      0.00
  -14   26    2      4.82      0.00
  -11   26    2     10.97      0.00
   -8   26    2      4.76      0.00
   -5   26    2     -6.63      0.00
   -2   26    2     -6.13      0.00
    1   26    2      1.42      0.00
    4   26    2      6.80      0.00
    7   26    2      8.54      0.00
   10   26    2      2.65      0.00
  -37   27    2     -9.03      0.00
  -34   27    2     -6.04      0.00
  -31   27    2     -3.00      0.00
  -28   27    2     -2.11      0.00
  -25   27    2      2.36      0.00
  -22   27    2      2.54      0.00
  -19   27    2     -1.81      0.00
  -16   27    2      1.89      0.00
  -13   27    2      6.77      0.00
  -10   27    2      6.74      0.00
   -7   27    2      0.97      0.00
   -4   27    2     -5.99      0.00
   -1   27    2     -2.17      0.00
    2   27    2      3.74      0.00
    5   27    2      5.83      0.00
    8   27    2      3.23      0.00
  -36   28    2     -7.60      0.00
  -33   28    2     -3.27      0.00
  -30   28    2     -3.43      0.00
  -27   28    2     -1.59      0.00
  -24   28    2      1.89      0.00
  -21   28    2     -2.14      0.00
  -18   28    2     -3.30      0.00
  -15   28    2      3.14      0.00
  -12   28    2      5.62      0.00
   -9   28    2      3.15      0.00
   -6   28    2     -2.77      0.00
   -3   28    2     -5.38      0.00
    0   28    2     -1.53      0.00
    3   28    2      3.31      0.00
    6   28    2      4.70      0.00
  -35   29    2     -4.60      0.00
  -32   29    2     -1.98      0.00
  -29   29    2     -3.16      0.00
  -26   29    2     -0.70      0.00
  -23   29    2      0.28      0.00
  -20   29    2     -1.45      0.00
  -17   29    2     -1.12      0.00
  -14   29    2      2.13      0.00
  -11   29    2      3.98      0.00
   -8   29    2      0.73      0.00
   -5   29    2     -5.69      0.00
   -2   29    2     -4.28      0.00
    1   29    2     -0.46      0.00
    4   29    2      2.91      0.00
    7   29    2      2.55      0.00
  -34   30    2      0.14      0.00
  -31   30    2      0.69      0.00
  -28   30    2     -0.58      0.00
  -25   30    2     -1.39      0.00
  -22   30    2     -1.35      0.00
  -19   30    2      0.23      0.00
  -16   30    2      0.71      0.00
  -13   30    2     -0.07      0.00
  -10   30    2      1.72      0.00
   -7   30    2     -1.00      0.00
   -4   30    2     -5.03      0.00
   -1   30    2     -3.09      0.00
    2   30    2      1.24      0.00
    5   30    2      2.27      0.00
  -33   31    2      1.92      0.00
  -30   31    2     -1.28      0.00
  -27   31    2     -2.40      0.00
  -24   31    2     -1.62      0.00
  -21   31    2     -1.19      0.00
  -18   31    2     -1.15      0.00
  -15   31    2      0.09      0.00
  -12   31    2      0.30      0.00
   -9   31    2     -0.69      0.00
   -6   31    2     -3.32      0.00
   -3   31    2     -5.36      0.00
    0   31    2     -3.31      0.00
    3   31    2      1.85      0.00
  -32   32    2      1.26      0.00
  -29   32    2     -3.07      0.00
  -26   32    2     -3.91      0.00
  -23   32    2      0.40      0.00
  -20   32    2      0.72      0.00
  -17   32    2     -2.11      0.00
  -14   32    2     -1.47      0.00
  -11   32    2      0.00      0.00
   -8   32    2     -3.32      0.00
   -5   32    2     -6.57      0.00
   -2   32    2     -6.53      0.00
    1   32    2     -1.95      0.00
  -31   33    2      0.11      0.00
  -28   33    2     -3.88      0.00
  -25   33    2     -1.34      0.00
  -22   33    2      2.87      0.00
  -19   33    2      2.13      0.00
  -16   33    2     -1.13      0.00
  -13   33    2     -1.98      0.00
  -10   33    2     -1.88      0.00
   -7   33    2     -3.71      0.00
   -4   33    2     -6.74      0.00
   -1   33    2     -3.82      0.00
  -30   34    2     -2.99      0.00
  -27   34    2     -0.62      0.00
  -24   34    2      4.46      0.00
  -21   34    2      3.05      0.00
  -18   34    2      0.82      0.00
  -15   34    2      0.19      0.00
  -12   34    2     -1.63      0.00
   -9   34    2     -2.75      0.00
   -6   34    2     -3.73      0.00
   -3   34    2     -5.18      0.00
  -29   35    2     -3.91      0.00
  -26   35    2      1.61      0.00
  -23   35    2      5.02      0.00
  -20   35    2      1.76      0.00
  -17   35    2     -1.27      0.00
  -14   35    2     -0.63      0.00
  -11   35    2     -1.62      0.00
   -8   35    2     -3.85      0.00
   -5   35    2     -5.47      0.00
  -28   36    2     -1.00      0.00
  -25   36    2      3.68      0.00
  -22   36    2      3.37      0.00
  -19   36    2      1.78      0.00
  -16   36    2     -1.23      0.00
  -13   36    2     -3.04      0.00
  -10   36    2     -2.64      0.00
   -7   36    2     -3.46      0.00
  -27   37    2      5.20      0.00
  -24   37    2      4.42      0.00
  -21   37    2      1.58      0.00
  -18   37    2      0.60      0.00
  -15   37    2     -0.99      0.00
  -12   37    2     -2.57      0.00
  -23   38    2      2.17      0.00
  -20   38    2      0.43      0.00
  -17   38    2     -1.35      0.00
    0    0    3    -25.19      0.00
    1    1    3    -16.74      0.00
   -1    2    3    -21.09      0.00
    2    2    3     -2.70      0.00
   -3    3    3     -6.20      0.00
    0    3    3     -6.13      0.00
    3    3    3      8.09      0.00
   -5    4    3      0.45      0.00
   -2    4    3     -4.62      0.00
    1    4    3      5.33      0.00
    4    4    3     15.83      0.00
   -7    5    3      3.81      0.00
   -4    5    3     -1.14      0.00
   -1    5    3     -0.82      0.00
    2    5    3     15.06      0.00
    5    5    3     21.17      0.00
   -9    6    3      2.46      0.00
   -6    6    3     -3.61      0.00
   -3    6    3     -0.28      0.00
    0    6    3      1.76      0.00
    3    6    3     23.70      0.00
    6    6    3     21.55      0.00
  -11    7    3      5.23      0.00
   -8    7    3     -9.30      0.00
   -5    7    3     -4.86      0.00
   -2    7    3     -4.86      0.00
    1    7    3     13.18      0.00
    4    7    3     34.19      0.00
    7    7    3     17.18      0.00
  -13    8    3      6.84      0.00
  -10    8    3     -6.64      0.00
   -7    8    3     -5.40      0.00
   -4    8    3     -3.38      0.00
   -1    8    3     -2.72      0.00
    2    8    3     29.05      0.00
    5    8    3     33.44      0.00
    8    8    3      8.10      0.00
  -15    9    3      5.72      0.00
  -12    9    3     -0.98      0.00
   -9    9    3     -5.85      0.00
   -6    9    3      0.61      0.00
   -3    9    3     -6.27      0.00
    0    9    3     10.30      0.00
    3    9    3     39.53      0.00
    6    9    3     23.31      0.00
    9    9    3      1.72      0.00
  -17   10    3      2.82      0.00
  -14   10    3      3.39      0.00
   -8   10    3      2.85      0.00
   -5   10    3     -0.67      0.00
   -2   10    3     -1.53      0.00
    1   10    3     29.58      0.00
    4   10    3     38.09      0.00
    7   10    3     11.46      0.00
   10   10    3      0.08      0.00
  -16   11    3      2.66      0.00
  -13   11    3      4.44      0.00
  -10   11    3      8.33      0.00
   -7   11    3      9.06      0.00
   -4   11    3     -1.26      0.00
   -1   11    3     12.92      0.00
    2   11    3     38.92      0.00
    5   11    3     25.07      0.00
    8   11    3      2.51      0.00
   11   11    3      1.53      0.00
  -21   12    3      0.20      0.00
  -18   12    3      0.41      0.00
  -15   12    3      4.76      0.00
  -12   12    3     11.91      0.00
   -9   12    3     16.25      0.00
   -6   12    3      8.07      0.00
   -3   12    3      4.73      0.00
    0   12    3     26.42      0.00
    3   12    3     34.39      0.00
    6   12    3     12.40      0.00
    9   12    3      0.93      0.00
   12   12    3      3.10      0.00
  -23   13    3      1.35      0.00
  -20   13    3     -0.06      0.00
  -17   13    3      2.36      0.00
  -14   13    3     11.56      0.00
  -11   13    3     19.86      0.00
   -8   13    3     15.75      0.00
   -5   13    3      7.40      0.00
   -2   13    3     14.18      0.00
    1   13    3     30.45      0.00
    4   13    3     23.26      0.00
    7   13    3      4.49      0.00
   10   13    3      1.47      0.00
   13   13    3      3.02      0.00
  -25   14    3      3.57      0.00
  -19   14    3     -1.50      0.00
  -16   14    3      5.79      0.00
  -13   14    3     19.39      0.00
  -10   14    3     19.49      0.00
   -7   14    3     11.69      0.00
   -4   14    3     10.62      0.00
   -1   14    3     19.57      0.00
    2   14    3     24.11      0.00
    5   14    3     11.25      0.00
    8   14    3      2.40      0.00
   11   14    3      5.08      0.00
   14   14    3      1.42      0.00
  -27   15    3      1.04      0.00
  -24   15    3      2.05      0.00
  -18   15    3     -0.65      0.00
  -15   15    3     11.89      0.00
  -12   15    3     20.23      0.00
   -9   15    3     14.34      0.00
   -6   15    3     11.05      0.00
   -3   15    3     10.89      0.00
    0   15    3     16.67      0.00
    3   15    3     17.16      0.00
    6   15    3      6.79      0.00
    9   15    3      4.04      0.00
   12   15    3      5.07      0.00
   15   15    3     -0.69      0.00
  -29   16    3     -1.67      0.00
  -26   16    3      3.92      0.00
  -23   16    3      1.55      0.00
  -20   16    3     -1.55      0.00
  -17   16    3      5.13      0.00
  -14   16    3     16.47      0.00
  -11   16    3     13.62      0.00
   -8   16    3     10.87      0.00
   -5   16    3     11.43      0.00
   -2   16    3      7.75      0.00
    1   16    3     11.78      0.00
    4   16    3     10.22      0.00
    7   16    3      4.20      0.00
   10   16    3      6.64      0.00
   13   16    3      4.46      0.00
   16   16    3     -1.57      0.00
  -31   17    3     -1.65      0.00
  -28   17    3      3.35      0.00
  -25   17    3      6.57      0.00
  -22   17    3      0.19      0.00
  -19   17    3      0.17      0.00
  -16   17    3     11.13      0.00
  -13   17    3     13.72      0.00
  -10   17    3      7.55      0.00
   -7   17    3     10.94      0.00
   -4   17    3      6.87      0.00
   -1   17    3      1.30      0.00
    2   17    3      6.74      0.00
    5   17    3      6.19      0.00
    8   17    3      6.02      0.00
   11   17    3      7.93      0.00
   14   17    3      3.23      0.00
   17   17    3     -1.00      0.00
  -33   18    3     -0.53      0.00
  -30   18    3      1.24      0.00
  -27   18    3      7.91      0.00
  -24   18    3      5.87      0.00
  -21   18    3      0.00      0.00
  -18   18    3      4.26      0.00
  -15   18    3      9.48      0.00
  -12   18    3      6.43      0.00
   -9   18    3      7.04      0.00
   -6   18    3      7.94      0.00
   -3   18    3     -3.06      0.00
    0   18    3     -0.02      0.00
    3   18    3      7.37      0.00
    6   18    3      6.29      0.00
    9   18    3      8.37      0.00
   12   18    3      8.69      0.00
   15   18    3      1.44      0.00
   18   18    3     -0.84      0.00
  -35   19    3     -1.36      0.00
  -32   19    3     -0.01      0.00
  -29   19    3      5.87      0.00
  -26   19    3      9.81      0.00
  -23   19    3      2.46      0.00
  -20   19    3      1.93      0.00
  -17   19    3      6.12      0.00
  -14   19    3      3.08      0.00
  -11   19    3      2.28      0.00
   -8   19    3     10.05      0.00
   -5   19    3      3.45      0.00
   -2   19    3     -7.79      0.00
    1   19    3      1.14      0.00
    4   19    3      7.32      0.00
    7   19    3      9.07      0.00
   10   19    3     11.51      0.00
   13   19    3      6.27      0.00
   16   19    3     -3.15      0.00
  -37   20    3     -0.01      0.00
  -34   20    3     -1.33      0.00
  -31   20    3      2.89      0.00
  -28   20    3      9.20      0.00
  -25   20    3      7.51      0.00
  -22   20    3      0.87      0.00
  -19   20    3      4.53      0.00
  -16   20    3      3.69      0.00
  -13   20    3      0.84      0.00
  -10   20    3      5.10      0.00
   -7   20    3      9.03      0.00
   -4   20    3     -4.75      0.00
   -1   20    3     -7.14      0.00
    2   20    3      4.58      0.00
    5   20    3      8.60      0.00
    8   20    3      9.14      0.00
   11   20    3      9.68      0.00
   14   20    3      1.43      0.00
   17   20    3     -2.75      0.00
  -36   21    3     -2.25      0.00
  -33   21    3      0.17      0.00
  -30   21    3      6.48      0.00
  -27   21    3     10.21      0.00
  -24   21    3      4.40      0.00
  -21   21    3      3.36      0.00
  -18   21    3      2.03      0.00
  -15   21    3     -1.46      0.00
  -12   21    3      2.82      0.00
   -9   21    3      9.25      0.00
   -6   21    3      3.18      0.00
   -3   21    3     -8.26      0.00
    0   21    3     -1.73      0.00
    3   21    3      7.05      0.00
    6   21    3      8.88      0.00
    9   21    3     10.20      0.00
   12   21    3      6.03      0.00
   15   21    3     -3.19      0.00
  -35   22    3     -3.22      0.00
  -32   22    3      2.06      0.00
  -29   22    3      7.32      0.00
  -26   22    3      6.53      0.00
  -23   22    3      2.69      0.00
  -20   22    3      4.51      0.00
  -17   22    3     -1.38      0.00
  -14   22    3     -1.29      0.00
  -11   22    3      7.65      0.00
   -8   22    3     11.60      0.00
   -5   22    3     -1.10      0.00
   -2   22    3     -7.31      0.00
    1   22    3      3.56      0.00
    4   22    3     10.20      0.00
    7   22    3     10.66      0.00
   10   22    3      9.42      0.00
   13   22    3      0.19      0.00
  -37   23    3     -3.84      0.00
  -34   23    3     -3.43      0.00
  -31   23    3      3.05      0.00
  -28   23    3      6.67      0.00
  -25   23    3      4.42      0.00
  -22   23    3      4.48      0.00
  -19   23    3      2.39      0.00
  -16   23    3     -0.65      0.00
  -13   23    3      3.90      0.00
  -10   23    3     10.05      0.00
   -7   23    3      8.26      0.00
   -4   23    3     -2.18      0.00
   -1   23    3     -0.84      0.00
    2   23    3      9.33      0.00
    5   23    3      9.90      0.00
    8   23    3      8.69      0.00
   11   23    3      5.36      0.00
   14   23    3     -1.14      0.00
  -36   24    3     -6.30      0.00
  -33   24    3     -1.10      0.00
  -30   24    3      4.64      0.00
  -27   24    3      5.73      0.00
  -24   24    3      5.66      0.00
  -21   24    3      4.09      0.00
  -18   24    3     -1.64      0.00
  -15   24    3      1.51      0.00
  -12   24    3      9.26      0.00
   -9   24    3     10.77      0.00
   -6   24    3      5.20      0.00
   -3   24    3     -1.85      0.00
    0   24    3      3.42      0.00
    3   24    3      9.17      0.00
    6   24    3      8.79      0.00
    9   24    3      5.78      0.00
   12   24    3      0.11      0.00
  -35   25    3     -6.20      0.00
  -32   25    3      0.15      0.00
  -29   25    3      3.81      0.00
  -26   25    3      5.13      0.00
  -23   25    3      5.97      0.00
  -20   25    3      2.94      0.00
  -17   25    3     -0.20      0.00
  -14   25    3      4.37      0.00
  -11   25    3      9.97      0.00
   -8   25    3      9.49      0.00
   -5   25    3      1.71      0.00
   -2   25    3     -0.81      0.00
    1   25    3      6.49      0.00
    4   25    3      7.18      0.00
    7   25    3      5.78      0.00
   10   25    3      2.19      0.00
  -34   26    3     -4.62      0.00
  -31   26    3      1.84      0.00
  -28   26    3      3.96      0.00
  -25   26    3      5.24      0.00
  -22   26    3      3.17      0.00
  -19   26    3      2.01      0.00
  -16   26    3      2.83      0.00
  -13   26    3      5.41      0.00
  -10   26    3      7.91      0.00
   -7   26    3      9.02      0.00
   -4   26    3      2.21      0.00
   -1   26    3      3.56      0.00
    2   26    3      7.02      0.00
    5   26    3      5.20      0.00
    8   26    3      2.26      0.00
  -36   27    3     -8.01      0.00
  -33   27    3     -2.95      0.00
  -30   27    3      0.64      0.00
  -27   27    3      3.39      0.00
  -24   27    3      3.34      0.00
  -21   27    3      1.09      0.00
  -18   27    3      1.45      0.00
  -15   27    3      4.96      0.00
  -12   27    3      6.37      0.00
   -9   27    3      8.02      0.00
   -6   27    3      7.17      0.00
   -3   27    3      3.00      0.00
    0   27    3      4.28      0.00
    3   27    3      5.30      0.00
    6   27    3      2.89      0.00
    9   27    3     -1.39      0.00
  -35   28    3     -7.97      0.00
  -32   28    3     -1.82      0.00
  -29   28    3      0.71      0.00
  -26   28    3      1.75      0.00
  -23   28    3      1.33      0.00
  -20   28    3      2.82      0.00
  -17   28    3      1.29      0.00
  -14   28    3      2.04      0.00
  -11   28    3      4.90      0.00
   -8   28    3      7.41      0.00
   -5   28    3      3.72      0.00
   -2   28    3      2.10      0.00
    1   28    3      1.82      0.00
    4   28    3      1.35      0.00
    7   28    3     -0.82      0.00
  -34   29    3     -3.46      0.00
  -31   29    3      0.51      0.00
  -28   29    3      0.56      0.00
  -25   29    3     -1.41      0.00
  -22   29    3      0.86      0.00
  -19   29    3      3.47      0.00
  -16   29    3      1.52      0.00
  -13   29    3     -0.08      0.00
  -10   29    3      4.27      0.00
   -7   29    3      5.88      0.00
   -4   29    3      1.73      0.00
   -1   29    3     -0.21      0.00
    2   29    3      1.12      0.00
    5   29    3     -0.73      0.00
  -33   30    3     -0.88      0.00
  -30   30    3      0.86      0.00
  -27   30    3      0.09      0.00
  -24   30    3      0.72      0.00
  -21   30    3      3.36      0.00
  -18   30    3      3.03      0.00
  -15   30    3      1.21      0.00
  -12   30    3      0.10      0.00
   -9   30    3      3.04      0.00
   -6   30    3      4.22      0.00
   -3   30    3      0.01      0.00
    0   30    3     -1.30      0.00
    3   30    3      1.12      0.00
  -32   31    3      2.82      0.00
  -29   31    3      0.29      0.00
  -26   31    3     -1.19      0.00
  -23   31    3      3.74      0.00
  -20   31    3      3.79      0.00
  -17   31    3     -0.69      0.00
  -14   31    3     -1.48      0.00
  -11   31    3      1.26      0.00
   -8   31    3      2.12      0.00
   -5   31    3      0.55      0.00
   -2   31    3     -2.78      0.00
    1   31    3     -0.96      0.00
  -31   32    3      1.56      0.00
  -28   32    3     -2.27      0.00
  -25   32    3      0.02      0.00
  -22   32    3      3.91      0.00
  -19   32    3      3.21      0.00
  -16   32    3     -1.11      0.00
  -13   32    3     -2.78      0.00
  -10   32    3     -0.60      0.00
   -7   32    3      0.37      0.00
   -4   32    3     -4.19      0.00
   -1   32    3     -3.77      0.00
  -30   33    3      0.37      0.00
  -27   33    3      1.41      0.00
  -24   33    3      4.99      0.00
  -21   33    3      3.69      0.00
  -18   33    3      1.63      0.00
  -15   33    3     -1.02      0.00
  -12   33    3     -3.37      0.00
   -9   33    3     -2.04      0.00
   -6   33    3     -2.50      0.00
   -3   33    3     -6.04      0.00
  -29   34    3     -0.32      0.00
  -26   34    3      4.57      0.00
  -23   34    3      6.29      0.00
  -20   34    3      2.76      0.00
  -17   34    3     -0.06      0.00
  -14   34    3     -0.60      0.00
  -11   34    3     -2.12      0.00
   -8   34    3     -2.94      0.00
   -5   34    3     -4.92      0.00
  -28   35    3      2.90      0.00
  -25   35    3      5.28      0.00
  -22   35    3      4.40      0.00
  -19   35    3      3.19      0.00
  -16   35    3     -0.30      0.00
  -13   35    3     -3.06      0.00
  -10   35    3     -1.98      0.00
   -7   35    3     -3.81      0.00
  -27   36    3      6.38      0.00
  -24   36    3      4.36      0.00
  -21   36    3      1.97      0.00
  -18   36    3      1.99      0.00
  -15   36    3     -0.48      0.00
  -12   36    3     -3.60      0.00
   -9   36    3     -4.16      0.00
  -23   37    3      4.20      0.00
  -20   37    3      2.09      0.00
  -17   37    3      1.16      0.00
  -14   37    3     -1.00      0.00
   -1    1    4    -18.35      0.00
   -3    2    4    -16.05      0.00
    0    2    4    -17.12      0.00
   -5    3    4    -15.05      0.00
   -2    3    4    -10.87      0.00
    1    3    4    -17.71      0.00
   -7    4    4     -9.40      0.00
   -4    4    4     -7.15      0.00
   -1    4    4    -10.28      0.00
    2    4    4    -15.10      0.00
   -9    5    4     -0.41      0.00
   -6    5    4     -5.94      0.00
   -3    5    4     -0.98      0.00
    0    5    4    -13.28      0.00
    3    5    4     -4.75      0.00
  -11    6    4      6.11      0.00
   -8    6    4     -4.35      0.00
   -5    6    4      1.43      0.00
   -2    6    4     -3.75      0.00
    1    6    4     -9.11      0.00
    4    6    4      9.25      0.00
  -13    7    4      5.90      0.00
  -10    7    4     -1.82      0.00
   -7    7    4     -1.29      0.00
   -4    7    4      1.83      0.00
   -1    7    4     -7.60      0.00
    2    7    4      3.63      0.00
    5    7    4     15.28      0.00
  -15    8    4     -1.12      0.00
  -12    8    4     -2.95      0.00
   -9    8    4     -3.39      0.00
   -6    8    4      2.04      0.00
   -3    8    4     -3.35      0.00
    0    8    4     -3.37      0.00
    3    8    4     15.32      0.00
    6    8    4     12.45      0.00
  -17    9    4     -4.57      0.00
  -14    9    4     -6.26      0.00
  -11    9    4     -4.69      0.00
   -8    9    4      0.01      0.00
   -5    9    4     -0.28      0.00
   -2    9    4     -4.73      0.00
    1    9    4      7.85      0.00
    4    9    4     19.67      0.00
    7    9    4      5.22      0.00
  -19   10    4     -5.75      0.00
  -16   10    4     -8.85      0.00
  -13   10    4     -6.23      0.00
  -10   10    4     -0.01      0.00
   -7   10    4      0.50      0.00
   -4   10    4     -2.72      0.00
   -1   10    4      2.33      0.00
    2   10    4     16.04      0.00
    5   10    4     13.91      0.00
    8   10    4     -1.13      0.00
  -21   11    4     -2.71      0.00
  -18   11    4     -8.44      0.00
  -15   11    4     -9.68      0.00
  -12   11    4     -0.34      0.00
   -9   11    4      3.60      0.00
   -6   11    4     -1.07      0.00
   -3   11    4     -0.65      0.00
    0   11    4      9.03      0.00
    3   11    4     17.27      0.00
    6   11    4      8.24      0.00
    9   11    4     -2.50      0.00
  -23   12    4      0.83      0.00
  -20   12    4     -3.94      0.00
  -17   12    4     -9.08      0.00
  -14   12    4     -3.36      0.00
  -11   12    4      5.81      0.00
   -8   12    4      1.96      0.00
   -5   12    4      0.15      0.00
   -2   12    4      4.93      0.00
    1   12    4     12.30      0.00
    4   12    4     13.50      0.00
    7   12    4      2.45      0.00
   10   12    4     -1.35      0.00
  -25   13    4      3.49      0.00
  -22   13    4      0.28      0.00
  -19   13    4     -6.99      0.00
  -16   13    4     -5.61      0.00
  -13   13    4      6.61      0.00
  -10   13    4      6.63      0.00
   -7   13    4      0.48      0.00
   -4   13    4      5.32      0.00
   -1   13    4      7.96      0.00
    2   13    4     10.61      0.00
    5   13    4      8.43      0.00
    8   13    4      0.34      0.00
   11   13    4     -0.01      0.00
  -27   14    4      1.49      0.00
  -24   14    4      3.71      0.00
  -21   14    4     -1.93      0.00
  -18   14    4     -7.05      0.00
  -15   14    4      1.16      0.00
  -12   14    4      9.39      0.00
   -9   14    4      3.14      0.00
   -6   14    4      2.95      0.00
   -3   14    4      6.84      0.00
    0   14    4      7.32      0.00
    3   14    4     10.69      0.00
    6   14    4      4.74      0.00
    9   14    4     -1.16      0.00
   12   14    4      0.47      0.00
  -29   15    4      0.04      0.00
  -26   15    4      3.07      0.00
  -23   15    4      1.42      0.00
  -20   15    4     -6.60      0.00
  -17   15    4     -4.42      0.00
  -14   15    4      4.92      0.00
  -11   15    4      4.45      0.00
   -8   15    4      1.51      0.00
   -5   15    4      7.30      0.00
   -2   15    4      4.30      0.00
    1   15    4      4.88      0.00
    4   15    4      8.11      0.00
    7   15    4      2.95      0.00
   10   15    4      0.57      0.00
   13   15    4      1.40      0.00
  -31   16    4     -2.99      0.00
  -28   16    4      0.21      0.00
  -25   16    4      2.99      0.00
  -22   16    4     -3.82      0.00
  -19   16    4     -7.79      0.00
  -16   16    4      0.51      0.00
  -13   16    4      3.51      0.00
  -10   16    4     -1.67      0.00
   -7   16    4      2.20      0.00
   -4   16    4      5.78      0.00
   -1   16    4     -0.31      0.00
    2   16    4      5.00      0.00
    5   16    4      7.18      0.00
    8   16    4      1.55      0.00
   11   16    4     -0.23      0.00
   14   16    4      1.19      0.00
  -33   17    4     -5.80      0.00
  -30   17    4     -0.70      0.00
  -27   17    4      2.80      0.00
  -24   17    4      2.18      0.00
  -21   17    4     -6.65      0.00
  -18   17    4     -5.60      0.00
  -15   17    4     -2.41      0.00
  -12   17    4     -3.02      0.00
   -9   17    4     -3.03      0.00
   -6   17    4      2.54      0.00
   -3   17    4     -0.40      0.00
    0   17    4     -0.53      0.00
    3   17    4      5.82      0.00
    6   17    4      4.27      0.00
    9   17    4      0.23      0.00
   12   17    4      1.63      0.00
   15   17    4     -2.28      0.00
  -35   18    4     -6.63      0.00
  -32   18    4     -2.76      0.00
  -29   18    4      2.86      0.00
  -26   18    4      4.35      0.00
  -23   18    4     -3.48      0.00
  -20   18    4     -8.60      0.00
  -17   18    4     -6.24      0.00
  -14   18    4     -8.39      0.00
  -11   18    4     -7.42      0.00
   -8   18    4     -1.39      0.00
   -5   18    4      0.28      0.00
   -2   18    4     -6.48      0.00
    1   18    4     -0.68      0.00
    4   18    4      7.14      0.00
    7   18    4      4.65      0.00
   10   18    4      1.95      0.00
   13   18    4      2.00      0.00
   16   18    4     -6.11      0.00
  -34   19    4     -5.48      0.00
  -31   19    4      0.58      0.00
  -28   19    4      3.80      0.00
  -25   19    4      1.57      0.00
  -22   19    4     -7.58      0.00
  -19   19    4     -8.01      0.00
  -16   19    4    -10.64      0.00
  -13   19    4    -12.74      0.00
  -10   19    4     -8.94      0.00
   -7   19    4     -2.14      0.00
   -4   19    4     -3.71      0.00
   -1   19    4     -5.75      0.00
    2   19    4      4.02      0.00
    5   19    4      8.21      0.00
    8   19    4      3.02      0.00
   11   19    4      3.50      0.00
   14   19    4     -0.54      0.00
   17   19    4     -6.12      0.00
  -36   20    4     -4.03      0.00
  -33   20    4     -1.68      0.00
  -30   20    4      4.73      0.00
  -27   20    4      4.67      0.00
  -24   20    4     -2.07      0.00
  -21   20    4     -8.38      0.00
  -18   20    4    -12.64      0.00
  -15   20    4    -16.21      0.00
  -12   20    4    -10.92      0.00
   -9   20    4     -6.09      0.00
   -6   20    4     -3.87      0.00
   -3   20    4     -5.52      0.00
    0   20    4     -2.58      0.00
    3   20    4      7.00      0.00
    6   20    4      6.95      0.00
    9   20    4      3.17      0.00
   12   20    4      0.67      0.00
   15   20    4     -5.48      0.00
  -35   21    4     -3.08      0.00
  -32   21    4      2.04      0.00
  -29   21    4      5.76      0.00
  -26   21    4      2.02      0.00
  -23   21    4     -5.10      0.00
  -20   21    4     -9.34      0.00
  -17   21    4    -15.82      0.00
  -14   21    4    -16.14      0.00
  -11   21    4     -8.74      0.00
   -8   21    4     -4.38      0.00
   -5   21    4     -4.11      0.00
   -2   21    4     -6.45      0.00
    1   21    4      1.88      0.00
    4   21    4      8.83      0.00
    7   21    4      4.30      0.00
   10   21    4      1.56      0.00
   13   21    4     -2.75      0.00
  -34   22    4     -1.73      0.00
  -31   22    4      3.57      0.00
  -28   22    4      3.38      0.00
  -25   22    4     -1.07      0.00
  -22   22    4     -6.63      0.00
  -19   22    4    -13.20      0.00
  -16   22    4    -16.50      0.00
  -13   22    4    -11.84      0.00
  -10   22    4     -6.45      0.00
   -7   22    4     -2.00      0.00
   -4   22    4     -1.48      0.00
   -1   22    4     -2.94      0.00
    2   22    4      6.09      0.00
    5   22    4      6.31      0.00
    8   22    4      2.32      0.00
   11   22    4     -0.51      0.00
   14   22    4     -3.63      0.00
  -33   23    4     -1.20      0.00
  -30   23    4      2.36      0.00
  -27   23    4     -0.14      0.00
  -24   23    4     -2.35      0.00
  -21   23    4     -9.50      0.00
  -18   23    4    -14.23      0.00
  -15   23    4    -10.36      0.00
  -12   23    4     -4.64      0.00
   -9   23    4     -4.17      0.00
   -6   23    4      0.58      0.00
   -3   23    4     -1.12      0.00
    0   23    4      0.95      0.00
    3   23    4      7.18      0.00
    6   23    4      4.74      0.00
    9   23    4     -0.59      0.00
   12   23    4     -3.74      0.00
  -35   24    4     -5.31      0.00
  -32   24    4     -1.87      0.00
  -29   24    4      0.65      0.00
  -26   24    4      0.89      0.00
  -23   24    4     -1.82      0.00
  -20   24    4     -8.14      0.00
  -17   24    4     -9.97      0.00
  -14   24    4     -7.14      0.00
  -11   24    4     -3.65      0.00
   -8   24    4      0.20      0.00
   -5   24    4      2.31      0.00
   -2   24    4     -1.09      0.00
    1   24    4      3.25      0.00
    4   24    4      3.67      0.00
    7   24    4      0.96      0.00
   10   24    4     -2.20      0.00
  -34   25    4     -4.55      0.00
  -31   25    4     -0.50      0.00
  -28   25    4      1.16      0.00
  -25   25    4      2.59      0.00
  -22   25    4     -4.10      0.00
  -19   25    4     -6.19      0.00
  -16   25    4     -4.53      0.00
  -13   25    4     -3.67      0.00
  -10   25    4     -2.33      0.00
   -7   25    4      4.45      0.00
   -4   25    4      1.75      0.00
   -1   25    4     -1.13      0.00
    2   25    4      1.29      0.00
    5   25    4      0.97      0.00
    8   25    4     -1.96      0.00
  -33   26    4     -4.55      0.00
  -30   26    4     -0.55      0.00
  -27   26    4      3.46      0.00
  -24   26    4      2.10      0.00
  -21   26    4     -2.72      0.00
  -18   26    4     -1.09      0.00
  -15   26    4     -0.48      0.00
  -12   26    4     -3.24      0.00
   -9   26    4      0.11      0.00
   -6   26    4      5.33      0.00
   -3   26    4      0.97      0.00
    0   26    4     -1.52      0.00
    3   26    4      0.45      0.00
    6   26    4     -0.38      0.00
    9   26    4     -3.23      0.00
  -32   27    4     -3.76      0.00
  -29   27    4      1.44      0.00
  -26   27    4      4.16      0.00
  -23   27    4      1.42      0.00
  -20   27    4      0.72      0.00
  -17   27    4     -1.24      0.00
  -14   27    4     -3.07      0.00
  -11   27    4     -0.68      0.00
   -8   27    4      5.16      0.00
   -5   27    4      4.67      0.00
   -2   27    4     -0.34      0.00
    1   27    4     -2.91      0.00
    4   27    4     -0.77      0.00
    7   27    4     -1.00      0.00
  -34   28    4     -6.97      0.00
  -31   28    4     -3.19      0.00
  -28   28    4      1.45      0.00
  -25   28    4      1.14      0.00
  -22   28    4      0.71      0.00
  -19   28    4      2.43      0.00
  -16   28    4     -0.44      0.00
  -13   28    4     -4.03      0.00
  -10   28    4      1.16      0.00
   -7   28    4      6.12      0.00
   -4   28    4      2.49      0.00
   -1   28    4     -4.04      0.00
    2   28    4     -2.62      0.00
    5   28    4     -1.64      0.00
  -33   29    4     -6.50      0.00
  -30   29    4     -0.94      0.00
  -27   29    4      1.27      0.00
  -24   29    4      1.78      0.00
  -21   29    4      2.23      0.00
  -18   29    4      0.72      0.00
  -15   29    4     -3.22      0.00
  -12   29    4     -3.14      0.00
   -9   29    4      2.61      0.00
   -6   29    4      5.68      0.00
   -3   29    4     -1.44      0.00
    0   29    4     -5.84      0.00
    3   29    4     -1.57      0.00
  -32   30    4     -3.56      0.00
  -29   30    4     -1.38      0.00
  -26   30    4      0.12      0.00
  -23   30    4      3.29      0.00
  -20   30    4      1.18      0.00
  -17   30    4     -2.63      0.00
  -14   30    4     -2.40      0.00
  -11   30    4      0.98      0.00
   -8   30    4      3.32      0.00
   -5   30    4      2.51      0.00
   -2   30    4     -4.68      0.00
    1   30    4     -3.98      0.00
  -31   31    4     -3.10      0.00
  -28   31    4     -1.92      0.00
  -25   31    4      1.78      0.00
  -22   31    4      3.13      0.00
  -19   31    4      1.10      0.00
  -16   31    4     -3.10      0.00
  -13   31    4     -3.07      0.00
  -10   31    4      0.52      0.00
   -7   31    4      3.38      0.00
   -4   31    4     -2.68      0.00
   -1   31    4     -5.15      0.00
  -30   32    4     -2.13      0.00
  -27   32    4      0.88      0.00
  -24   32    4      3.26      0.00
  -21   32    4     -0.43      0.00
  -18   32    4     -2.68      0.00
  -15   32    4     -2.23      0.00
  -12   32    4     -2.40      0.00
   -9   32    4     -0.22      0.00
   -6   32    4     -0.53      0.00
   -3   32    4     -6.10      0.00
  -29   33    4     -1.79      0.00
  -26   33    4      3.59      0.00
  -23   33    4      2.70      0.00
  -20   33    4     -1.49      0.00
  -17   33    4     -1.57      0.00
  -14   33    4     -0.20      0.00
  -11   33    4     -2.76      0.00
   -8   33    4     -2.41      0.00
   -5   33    4     -4.82      0.00
  -28   34    4      3.08      0.00
  -25   34    4      3.99      0.00
  -22   34    4      1.24      0.00
  -19   34    4     -0.78      0.00
  -16   34    4     -1.11      0.00
  -13   34    4     -2.46      0.00
  -24   35    4      0.57      0.00
  -21   35    4     -2.50      0.00
  -18   35    4      0.22      0.00
  -15   35    4      0.99      0.00
  -20   36    4     -1.39      0.00
  -17   36    4      1.40      0.00
  -14   36    4     -0.35      0.00
    0    1    5     11.99      0.00
   -2    2    5      8.83      0.00
    1    2    5      1.73      0.00
   -4    3    5      0.43      0.00
   -1    3    5      7.10      0.00
    2    3    5     -8.04      0.00
   -6    4    5     -5.79      0.00
   -3    4    5      5.65      0.00
    0    4    5     -4.52      0.00
    3    4    5    -12.91      0.00
   -8    5    5     -5.89      0.00
   -5    5    5      2.60      0.00
   -2    5    5      0.81      0.00
    1    5    5    -13.10      0.00
    4    5    5     -8.69      0.00
  -10    6    5     -4.64      0.00
   -7    6    5      0.75      0.00
   -4    6    5      5.08      0.00
   -1    6    5     -4.74      0.00
    2    6    5    -11.34      0.00
    5    6    5     -5.42      0.00
  -12    7    5     -4.67      0.00
   -9    7    5      1.71      0.00
   -6    7    5      5.46      0.00
   -3    7    5     -0.30      0.00
    0    7    5     -8.50      0.00
    3    7    5     -6.29      0.00
    6    7    5     -3.44      0.00
  -14    8    5     -9.10      0.00
  -11    8    5     -3.33      0.00
   -8    8    5      4.96      0.00
   -5    8    5      2.10      0.00
   -2    8    5     -4.51      0.00
    1    8    5     -6.32      0.00
    4    8    5     -2.30      0.00
    7    8    5     -4.18      0.00
  -16    9    5    -10.38      0.00
  -13    9    5     -9.13      0.00
  -10    9    5      1.92      0.00
   -7    9    5      2.39      0.00
   -4    9    5     -2.08      0.00
   -1    9    5     -3.03      0.00
    2    9    5     -3.77      0.00
    5    9    5     -1.38      0.00
    8    9    5     -3.97      0.00
  -18   10    5     -8.93      0.00
  -15   10    5    -13.95      0.00
  -12   10    5     -3.66      0.00
   -9   10    5      3.69      0.00
   -6   10    5     -3.03      0.00
   -3   10    5     -2.81      0.00
    0   10    5     -1.05      0.00
    3   10    5     -0.67      0.00
    6   10    5     -0.82      0.00
    9   10    5     -4.80      0.00
  -20   11    5     -4.81      0.00
  -17   11    5    -14.53      0.00
  -14   11    5    -11.86      0.00
  -11   11    5      1.02      0.00
   -8   11    5     -0.32      0.00
   -5   11    5     -3.85      0.00
   -2   11    5     -0.21      0.00
    1   11    5     -2.41      0.00
    4   11    5     -1.73      0.00
    7   11    5     -2.60      0.00
   10   11    5     -2.85      0.00
  -22   12    5     -1.96      0.00
  -19   12    5    -10.14      0.00
  -16   12    5    -13.26      0.00
  -13   12    5     -2.75      0.00
  -10   12    5      0.76      0.00
   -7   12    5     -5.95      0.00
   -4   12    5     -1.39      0.00
   -1   12    5     -1.25      0.00
    2   12    5     -4.66      0.00
    5   12    5     -1.54      0.00
    8   12    5     -2.39      0.00
   11   12    5     -2.19      0.00
  -24   13    5      2.24      0.00
  -21   13    5     -1.60      0.00
  -18   13    5    -11.24      0.00
  -15   13    5     -7.14      0.00
  -12   13    5      1.30      0.00
   -9   13    5     -2.52      0.00
   -6   13    5     -5.45      0.00
   -3   13    5      0.07      0.00
    0   13    5     -2.93      0.00
    3   13    5     -3.58      0.00
    6   13    5     -3.16      0.00
    9   13    5     -3.94      0.00
   12   13    5     -2.14      0.00
  -26   14    5      3.84      0.00
  -23   14    5      3.47      0.00
  -20   14    5     -5.89      0.00
  -17   14    5     -7.90      0.00
  -14   14    5     -0.43      0.00
  -11   14    5      0.89      0.00
   -8   14    5     -3.51      0.00
   -5   14    5     -0.70      0.00
   -2   14    5     -1.84      0.00
    1   14    5     -6.29      0.00
    4   14    5     -4.08      0.00
    7   14    5     -3.20      0.00
   10   14    5     -4.10      0.00
   13   14    5      0.12      0.00
  -28   15    5      3.88      0.00
  -25   15    5      4.42      0.00
  -22   15    5     -0.06      0.00
  -19   15    5     -6.15      0.00
  -16   15    5     -1.02      0.00
  -13   15    5      0.36      0.00
  -10   15    5     -2.85      0.00
   -7   15    5     -2.54      0.00
   -4   15    5      0.53      0.00
   -1   15    5     -4.95      0.00
    2   15    5     -6.20      0.00
    5   15    5     -3.16      0.00
    8   15    5     -4.55      0.00
   11   15    5     -4.56      0.00
   14   15    5      3.05      0.00
  -30   16    5      2.17      0.00
  -27   16    5      4.57      0.00
  -24   16    5      3.74      0.00
  -21   16    5     -3.62      0.00
  -18   16    5     -4.12      0.00
  -15   16    5     -1.28      0.00
  -12   16    5     -1.19      0.00
   -9   16    5     -2.36      0.00
   -6   16    5     -2.86      0.00
   -3   16    5     -2.81      0.00
    0   16    5     -6.03      0.00
    3   16    5     -5.76      0.00
    6   16    5     -3.39      0.00
    9   16    5     -5.38      0.00
   12   16    5     -2.79      0.00
   15   16    5     -0.02      0.00
  -32   17    5     -2.32      0.00
  -29   17    5      4.13      0.00
  -26   17    5      4.43      0.00
  -23   17    5     -0.59      0.00
  -20   17    5     -4.03      0.00
  -17   17    5     -1.64      0.00
  -14   17    5     -4.60      0.00
  -11   17    5     -4.36      0.00
   -8   17    5     -3.37      0.00
   -5   17    5     -4.34      0.00
   -2   17    5     -6.15      0.00
    1   17    5     -7.00      0.00
    4   17    5     -2.77      0.00
    7   17    5     -3.68      0.00
   10   17    5     -5.99      0.00
   13   17    5     -1.33      0.00
   16   17    5     -3.62      0.00
  -34   18    5     -5.35      0.00
  -31   18    5     -0.29      0.00
  -28   18    5      4.33      0.00
  -25   18    5      1.85      0.00
  -22   18    5     -3.16      0.00
  -19   18    5     -4.06      0.00
  -16   18    5     -7.55      0.00
  -13   18    5     -9.64      0.00
  -10   18    5     -5.60      0.00
   -7   18    5     -5.62      0.00
   -4   18    5     -4.91      0.00
   -1   18    5     -6.45      0.00
    2   18    5     -5.59      0.00
    5   18    5     -2.14      0.00
    8   18    5     -5.82      0.00
   11   18    5     -3.94      0.00
   14   18    5     -1.16      0.00
  -33   19    5     -4.05      0.00
  -30   19    5      2.23      0.00
  -27   19    5      2.16      0.00
  -24   19    5     -3.32      0.00
  -21   19    5     -6.22      0.00
  -18   19    5     -9.60      0.00
  -15   19    5    -12.06      0.00
  -12   19    5     -8.23      0.00
   -9   19    5     -8.56      0.00
   -6   19    5    -10.26      0.00
   -3   19    5     -5.15      0.00
    0   19    5     -6.75      0.00
    3   19    5     -2.55      0.00
    6   19    5     -1.32      0.00
    9   19    5     -4.78      0.00
   12   19    5     -3.75      0.00
   15   19    5     -2.57      0.00
  -32   20    5     -2.77      0.00
  -29   20    5      3.05      0.00
  -26   20    5     -1.01      0.00
  -23   20    5     -4.28      0.00
  -20   20    5     -7.62      0.00
  -17   20    5    -14.57      0.00
  -14   20    5    -16.23      0.00
  -11   20    5    -10.92      0.00
   -8   20    5    -11.72      0.00
   -5   20    5     -8.43      0.00
   -2   20    5     -5.53      0.00
    1   20    5     -3.49      0.00
    4   20    5      1.00      0.00
    7   20    5     -2.73      0.00
   10   20    5     -4.05      0.00
   13   20    5     -2.70      0.00
  -34   21    5     -3.07      0.00
  -31   21    5      1.15      0.00
  -28   21    5      2.46      0.00
  -25   21    5     -1.99      0.00
  -22   21    5     -5.56      0.00
  -19   21    5    -14.92      0.00
  -16   21    5    -18.23      0.00
  -13   21    5    -14.31      0.00
  -10   21    5    -12.63      0.00
   -7   21    5    -11.17      0.00
   -4   21    5     -3.23      0.00
   -1   21    5     -3.94      0.00
    2   21    5     -0.03      0.00
    5   21    5      0.80      0.00
    8   21    5     -2.78      0.00
   11   21    5     -3.52      0.00
  -33   22    5     -1.32      0.00
  -30   22    5      2.67      0.00
  -27   22    5     -1.00      0.00
  -24   22    5     -3.46      0.00
  -21   22    5    -11.05      0.00
  -18   22    5    -17.17      0.00
  -15   22    5    -15.03      0.00
  -12   22    5    -13.25      0.00
   -9   22    5    -14.48      0.00
   -6   22    5     -5.37      0.00
   -3   22    5     -0.02      0.00
    0   22    5     -0.79      0.00
    3   22    5      2.67      0.00
    6   22    5      0.67      0.00
    9   22    5     -3.62      0.00
   12   22    5     -3.17      0.00
  -32   23    5     -1.72      0.00
  -29   23    5      0.61      0.00
  -26   23    5     -1.80      0.00
  -23   23    5     -5.20      0.00
  -20   23    5    -14.57      0.00
  -17   23    5    -17.05      0.00
  -14   23    5    -14.43      0.00
  -11   23    5    -11.77      0.00
   -8   23    5     -7.35      0.00
   -5   23    5      0.10      0.00
   -2   23    5      0.56      0.00
    1   23    5      1.40      0.00
    4   23    5      1.41      0.00
    7   23    5     -0.49      0.00
   10   23    5     -2.08      0.00
  -31   24    5     -2.48      0.00
  -28   24    5     -1.59      0.00
  -25   24    5     -1.78      0.00
  -22   24    5     -9.31      0.00
  -19   24    5    -13.08      0.00
  -16   24    5    -10.90      0.00
  -13   24    5    -12.09      0.00
  -10   24    5    -10.77      0.00
   -7   24    5     -0.98      0.00
   -4   24    5      2.69      0.00
   -1   24    5      0.38      0.00
    2   24    5      0.59      0.00
    5   24    5      1.20      0.00
    8   24    5     -1.06      0.00
  -33   25    5     -4.21      0.00
  -30   25    5     -1.48      0.00
  -27   25    5      0.54      0.00
  -24   25    5     -1.98      0.00
  -21   25    5     -7.59      0.00
  -18   25    5     -8.33      0.00
  -15   25    5     -9.92      0.00
  -12   25    5    -11.37      0.00
   -9   25    5     -3.84      0.00
   -6   25    5      3.90      0.00
   -3   25    5      3.10      0.00
    0   25    5     -1.16      0.00
    3   25    5     -0.24      0.00
    6   25    5      0.50      0.00
  -32   26    5     -3.50      0.00
  -29   26    5      0.90      0.00
  -26   26    5      1.62      0.00
  -23   26    5     -1.77      0.00
  -20   26    5     -4.58      0.00
  -17   26    5     -6.62      0.00
  -14   26    5     -7.58      0.00
  -11   26    5     -3.25      0.00
   -8   26    5      2.18      0.00
   -5   26    5      3.78      0.00
   -2   26    5      0.23      0.00
    1   26    5     -4.36      0.00
    4   26    5     -0.81      0.00
  -31   27    5     -3.26      0.00
  -28   27    5      1.78      0.00
  -25   27    5      1.55      0.00
  -22   27    5      1.56      0.00
  -19   27    5      0.22      0.00
  -16   27    5     -5.05      0.00
  -13   27    5     -7.15      0.00
  -10   27    5      0.34      0.00
   -7   27    5      4.81      0.00
   -4   27    5      3.07      0.00
   -1   27    5     -4.56      0.00
    2   27    5     -3.76      0.00
    5   27    5      0.65      0.00
  -30   28    5     -0.02      0.00
  -27   28    5      1.86      0.00
  -24   28    5      3.98      0.00
  -21   28    5      2.47      0.00
  -18   28    5     -3.55      0.00
  -15   28    5     -5.96      0.00
  -12   28    5     -0.30      0.00
   -9   28    5      4.23      0.00
   -6   28    5      6.00      0.00
   -3   28    5     -0.15      0.00
    0   28    5     -6.55      0.00
    3   28    5     -1.33      0.00
  -29   29    5     -0.68      0.00
  -26   29    5      2.12      0.00
  -23   29    5      5.80      0.00
  -20   29    5      0.55      0.00
  -17   29    5     -4.06      0.00
  -14   29    5      0.08      0.00
  -11   29    5      4.57      0.00
   -8   29    5      5.33      0.00
   -5   29    5      5.39      0.00
   -2   29    5     -3.86      0.00
    1   29    5     -5.29      0.00
  -28   30    5     -1.01      0.00
  -25   30    5      5.21      0.00
  -22   30    5      5.31      0.00
  -19   30    5     -1.89      0.00
  -16   30    5     -3.92      0.00
  -13   30    5      3.22      0.00
  -10   30    5      6.87      0.00
   -7   30    5      8.39      0.00
   -4   30    5      1.29      0.00
   -1   30    5     -5.07      0.00
  -27   31    5      0.23      0.00
  -24   31    5      4.96      0.00
  -21   31    5     -1.37      0.00
  -18   31    5     -4.35      0.00
  -15   31    5      3.13      0.00
  -12   31    5      6.22      0.00
   -9   31    5      6.69      0.00
   -6   31    5      6.37      0.00
   -3   31    5     -2.19      0.00
  -26   32    5      3.61      0.00
  -23   32    5      3.01      0.00
  -20   32    5     -3.50      0.00
  -17   32    5     -1.20      0.00
  -14   32    5      5.58      0.00
  -11   32    5      4.83      0.00
   -8   32    5      6.43      0.00
   -5   32    5      2.44      0.00
  -25   33    5      4.00      0.00
  -22   33    5     -0.61      0.00
  -19   33    5     -3.84      0.00
  -16   33    5      2.30      0.00
  -13   33    5      5.97      0.00
  -10   33    5      6.27      0.00
  -21   34    5     -2.56      0.00
  -18   34    5      1.81      0.00
  -15   34    5      5.97      0.00
  -12   34    5      3.53      0.00
    0    0    6     33.47      0.00
    1    1    6     26.07      0.00
   -1    2    6     28.21      0.00
    2    2    6     15.85      0.00
   -3    3    6     19.64      0.00
    0    3    6     17.62      0.00
    3    3    6      6.98      0.00
   -5    4    6     12.51      0.00
   -2    4    6     14.32      0.00
    1    4    6      6.57      0.00
    4    4    6      2.53      0.00
   -7    5    6      8.21      0.00
   -4    5    6     11.30      0.00
   -1    5    6      6.22      0.00
    2    5    6     -0.32      0.00
    5    5    6     -0.96      0.00
   -9    6    6      6.71      0.00
   -6    6    6      9.66      0.00
   -3    6    6      3.61      0.00
    0    6    6      1.38      0.00
    3    6    6     -0.99      0.00
    6    6    6     -0.97      0.00
  -11    7    6      3.19      0.00
   -8    7    6     12.66      0.00
   -5    7    6      6.40      0.00
   -2    7    6      0.68      0.00
    1    7    6     -0.02      0.00
    4    7    6     -2.87      0.00
    7    7    6     -2.51      0.00
  -13    8    6     -0.02      0.00
  -10    8    6     10.12      0.00
   -7    8    6      9.51      0.00
   -4    8    6      0.53      0.00
   -1    8    6      1.17      0.00
    2    8    6     -1.87      0.00
    5    8    6     -1.85      0.00
    8    8    6      0.04      0.00
  -15    9    6     -3.27      0.00
  -12    9    6      5.04      0.00
   -9    9    6     12.03      0.00
   -6    9    6      2.27      0.00
   -3    9    6     -0.18      0.00
    0    9    6      3.42      0.00
    3    9    6      0.03      0.00
    6    9    6      1.25      0.00
    9    9    6      1.71      0.00
  -17   10    6     -4.76      0.00
  -14   10    6     -1.55      0.00
  -11   10    6     10.30      0.00
   -8   10    6      8.53      0.00
   -5   10    6      0.29      0.00
   -2   10    6      3.79      0.00
    1   10    6      2.36      0.00
    4   10    6      0.57      0.00
    7   10    6      3.37      0.00
   10   10    6      4.00      0.00
  -19   11    6     -2.02      0.00
  -16   11    6     -4.89      0.00
  -13   11    6      4.03      0.00
  -10   11    6      8.32      0.00
   -7   11    6      2.63      0.00
   -4   11    6      3.27      0.00
   -1   11    6      5.19      0.00
    2   11    6      1.19      0.00
    5   11    6      2.66      0.00
    8   11    6      4.91      0.00
   11   11    6      2.98      0.00
  -21   12    6     -0.10      0.00
  -18   12    6     -7.51      0.00
  -15   12    6     -1.96      0.00
  -12   12    6      7.20      0.00
   -9   12    6      6.20      0.00
   -6   12    6      1.44      0.00
   -3   12    6      4.11      0.00
    0   12    6      3.55      0.00
    3   12    6      0.31      0.00
    6   12    6      2.83      0.00
    9   12    6      5.35      0.00
   12   12    6      1.88      0.00
  -23   13    6      2.29      0.00
  -20   13    6     -3.75      0.00
  -17   13    6     -3.49      0.00
  -14   13    6      4.70      0.00
  -11   13    6      6.09      0.00
   -8   13    6      3.77      0.00
   -5   13    6      2.42      0.00
   -2   13    6      2.22      0.00
    1   13    6      0.19      0.00
    4   13    6      0.49      0.00
    7   13    6      5.06      0.00
   10   13    6      4.08      0.00
   13   13    6      1.52      0.00
  -25   14    6      4.24      0.00
  -22   14    6      1.57      0.00
  -19   14    6     -1.61      0.00
  -16   14    6      2.69      0.00
  -13   14    6      4.28      0.00
  -10   14    6      4.88      0.00
   -7   14    6      5.32      0.00
   -4   14    6      2.56      0.00
   -1   14    6      1.32      0.00
    2   14    6     -0.75      0.00
    5   14    6      1.06      0.00
    8   14    6      3.14      0.00
   11   14    6      0.56      0.00
   14   14    6      3.86      0.00
  -27   15    6      5.94      0.00
  -24   15    6      4.06      0.00
  -21   15    6     -0.63      0.00
  -18   15    6      2.03      0.00
  -15   15    6      6.42      0.00
  -12   15    6      7.05      0.00
   -9   15    6      7.76      0.00
   -6   15    6      2.59      0.00
   -3   15    6      0.54      0.00
    0   15    6      0.08      0.00
    3   15    6     -2.94      0.00
    6   15    6      1.99      0.00
    9   15    6      2.13      0.00
   12   15    6     -0.22      0.00
   15   15    6      4.97      0.00
  -29   16    6      5.42      0.00
  -26   16    6      6.54      0.00
  -23   16    6      2.91      0.00
  -20   16    6      4.60      0.00
  -17   16    6      8.09      0.00
  -14   16    6      5.69      0.00
  -11   16    6      7.17      0.00
   -8   16    6      7.76      0.00
   -5   16    6     -0.84      0.00
   -2   16    6     -1.14      0.00
    1   16    6     -2.06      0.00
    4   16    6     -0.65      0.00
    7   16    6      1.92      0.00
   10   16    6     -0.65      0.00
   13   16    6      0.83      0.00
   16   16    6      5.54      0.00
  -31   17    6      5.12      0.00
  -28   17    6      8.25      0.00
  -25   17    6      6.62      0.00
  -22   17    6      5.73      0.00
  -19   17    6      8.34      0.00
  -16   17    6      5.78      0.00
  -13   17    6      5.93      0.00
  -10   17    6      9.81      0.00
   -7   17    6      2.73      0.00
   -4   17    6     -1.90      0.00
   -1   17    6      0.07      0.00
    2   17    6     -2.44      0.00
    5   17    6      0.34      0.00
    8   17    6     -0.48      0.00
   11   17    6     -1.23      0.00
   14   17    6      4.01      0.00
  -30   18    6      6.13      0.00
  -27   18    6      8.37      0.00
  -24   18    6      4.36      0.00
  -21   18    6      7.56      0.00
  -18   18    6      7.33      0.00
  -15   18    6      5.59      0.00
  -12   18    6      7.68      0.00
   -9   18    6      5.27      0.00
   -6   18    6     -2.07      0.00
   -3   18    6      1.39      0.00
    0   18    6     -0.59      0.00
    3   18    6     -0.98      0.00
    6   18    6      1.14      0.00
    9   18    6     -2.47      0.00
   12   18    6     -1.31      0.00
  -32   19    6      2.18      0.00
  -29   19    6      6.83      0.00
  -26   19    6      5.48      0.00
  -23   19    6      5.48      0.00
  -20   19    6      6.49      0.00
  -17   19    6      1.36      0.00
  -14   19    6      2.86      0.00
  -11   19    6      7.23      0.00
   -8   19    6      1.31      0.00
   -5   19    6     -2.53      0.00
   -2   19    6      0.32      0.00
    1   19    6     -1.07      0.00
    4   19    6     -0.66      0.00
    7   19    6     -2.66      0.00
   10   19    6     -3.13      0.00
   13   19    6      2.69      0.00
  -31   20    6      2.37      0.00
  -28   20    6      5.29      0.00
  -25   20    6      3.17      0.00
  -22   20    6      4.52      0.00
  -19   20    6     -0.07      0.00
  -16   20    6      0.52      0.00
  -13   20    6      3.78      0.00
  -10   20    6     -0.17      0.00
   -7   20    6     -4.35      0.00
   -4   20    6     -0.45      0.00
   -1   20    6     -0.99      0.00
    2   20    6     -1.44      0.00
    5   20    6     -1.13      0.00
    8   20    6     -3.55      0.00
   11   20    6     -1.18      0.00
  -30   21    6      4.16      0.00
  -27   21    6      3.84      0.00
  -24   21    6      3.23      0.00
  -21   21    6      0.89      0.00
  -18   21    6     -2.45      0.00
  -15   21    6     -0.66      0.00
  -12   21    6     -2.35      0.00
   -9   21    6     -4.90      0.00
   -6   21    6     -1.00      0.00
   -3   21    6      1.61      0.00
    0   21    6      0.72      0.00
    3   21    6      0.74      0.00
    6   21    6     -1.57      0.00
    9   21    6     -3.50      0.00
  -29   22    6      5.07      0.00
  -26   22    6      3.76      0.00
  -23   22    6      0.37      0.00
  -20   22    6     -5.50      0.00
  -17   22    6     -4.11      0.00
  -14   22    6     -1.06      0.00
  -11   22    6     -2.64      0.00
   -8   22    6     -1.77      0.00
   -5   22    6      0.98      0.00
   -2   22    6      3.22      0.00
    1   22    6      2.38      0.00
    4   22    6     -0.50      0.00
    7   22    6     -1.84      0.00
  -31   23    6      1.36      0.00
  -28   23    6      2.44      0.00
  -25   23    6      0.44      0.00
  -22   23    6     -4.74      0.00
  -19   23    6     -3.67      0.00
  -16   23    6     -0.96      0.00
  -13   23    6     -5.65      0.00
  -10   23    6     -4.59      0.00
   -4   23    6      3.25      0.00
   -1   23    6      3.32      0.00
    2   23    6      1.54      0.00
    5   23    6     -0.15      0.00
    8   23    6     -1.00      0.00
  -30   24    6      0.87      0.00
  -27   24    6      1.09      0.00
  -24   24    6     -3.67      0.00
  -21   24    6     -4.70      0.00
  -18   24    6     -2.73      0.00
  -15   24    6     -4.78      0.00
  -12   24    6     -5.58      0.00
   -9   24    6      1.09      0.00
   -6   24    6      2.83      0.00
   -3   24    6      4.66      0.00
    0   24    6      3.55      0.00
    3   24    6      0.78      0.00
    6   24    6      0.48      0.00
  -29   25    6      1.45      0.00
  -26   25    6     -1.25      0.00
  -23   25    6     -4.86      0.00
  -20   25    6     -1.55      0.00
  -17   25    6     -1.15      0.00
  -14   25    6     -3.79      0.00
  -11   25    6     -0.33      0.00
   -8   25    6      2.39      0.00
   -5   25    6      3.94      0.00
   -2   25    6      6.38      0.00
    1   25    6      1.81      0.00
    4   25    6      1.43      0.00
  -28   26    6      1.01      0.00
  -25   26    6     -2.50      0.00
  -22   26    6      1.36      0.00
  -19   26    6      2.89      0.00
  -16   26    6     -3.43      0.00
  -13   26    6     -2.90      0.00
  -10   26    6      4.89      0.00
   -7   26    6      4.34      0.00
   -4   26    6      5.22      0.00
   -1   26    6      2.79      0.00
    2   26    6      0.25      0.00
  -27   27    6     -1.50      0.00
  -24   27    6      0.58      0.00
  -21   27    6      4.64      0.00
  -18   27    6      0.60      0.00
  -15   27    6     -0.83      0.00
  -12   27    6      4.38      0.00
   -9   27    6      2.04      0.00
   -6   27    6      2.01      0.00
   -3   27    6      3.00      0.00
    0   27    6     -2.17      0.00
  -26   28    6      0.24      0.00
  -23   28    6      6.59      0.00
  -20   28    6      5.50      0.00
  -17   28    6     -0.50      0.00
  -14   28    6      2.14      0.00
  -11   28    6      3.26      0.00
   -8   28    6     -0.16      0.00
   -5   28    6      3.04      0.00
   -2   28    6     -0.64      0.00
  -25   29    6      5.71      0.00
  -22   29    6      8.55      0.00
  -19   29    6      1.43      0.00
  -16   29    6      0.29      0.00
  -13   29    6      7.51      0.00
  -10   29    6      4.24      0.00
   -7   29    6      2.91      0.00
   -4   29    6      1.93      0.00
  -24   30    6      8.09      0.00
  -21   30    6      5.25      0.00
  -18   30    6      2.69      0.00
  -15   30    6      8.61      0.00
  -12   30    6      6.68      0.00
   -9   30    6      2.41      0.00
   -6   30    6      4.61      0.00
  -23   31    6      6.74      0.00
  -20   31    6      1.65      0.00
  -17   31    6      3.40      0.00
  -14   31    6      8.67      0.00
  -11   31    6      4.99      0.00
   -8   31    6      4.57      0.00
  -19   32    6      0.70      0.00
  -16   32    6      7.59      0.00
  -13   32    6      8.52      0.00
   -1    1    7     12.28      0.00
   -3    2    7      8.25      0.00
    0    2    7      9.05      0.00
   -5    3    7      7.33      0.00
   -2    3    7      5.67      0.00
    1    3    7      5.74      0.00
   -7    4    7      4.41      0.00
   -4    4    7      4.14      0.00
   -1    4    7      0.18      0.00
    2    4    7      2.41      0.00
   -9    5    7      0.63      0.00
   -6    5    7      3.62      0.00
   -3    5    7     -4.01      0.00
    0    5    7     -1.49      0.00
    3    5    7      0.58      0.00
  -11    6    7     -1.46      0.00
   -8    6    7      4.84      0.00
   -5    6    7     -2.26      0.00
   -2    6    7     -8.17      0.00
    1    6    7     -2.51      0.00
    4    6    7     -3.50      0.00
  -13    7    7     -3.75      0.00
  -10    7    7      1.75      0.00
   -7    7    7      0.84      0.00
   -4    7    7     -8.38      0.00
   -1    7    7     -6.55      0.00
    2    7    7     -3.62      0.00
    5    7    7     -4.88      0.00
  -15    8    7     -4.21      0.00
  -12    8    7      0.82      0.00
   -9    8    7      4.04      0.00
   -6    8    7     -4.71      0.00
   -3    8    7     -9.56      0.00
    0    8    7     -4.51      0.00
    3    8    7     -4.76      0.00
    6    8    7     -5.32      0.00
  -17    9    7     -2.92      0.00
  -14    9    7     -0.33      0.00
  -11    9    7      5.06      0.00
   -8    9    7      0.10      0.00
   -5    9    7     -8.04      0.00
   -2    9    7     -7.72      0.00
    1    9    7     -4.48      0.00
    4    9    7     -4.23      0.00
    7    9    7     -1.70      0.00
  -19   10    7      1.64      0.00
  -16   10    7     -1.93      0.00
  -13   10    7      2.33      0.00
  -10   10    7      1.95      0.00
   -7   10    7     -3.04      0.00
   -4   10    7     -5.85      0.00
   -1   10    7     -4.54      0.00
    2   10    7     -1.66      0.00
    5   10    7     -1.32      0.00
    8   10    7      0.81      0.00
  -21   11    7      0.70      0.00
  -18   11    7     -4.20      0.00
  -15   11    7      0.69      0.00
  -12   11    7      4.58      0.00
   -9   11    7      0.58      0.00
   -6   11    7     -2.81      0.00
   -3   11    7     -4.58      0.00
    0   11    7     -1.64      0.00
    3   11    7     -0.58      0.00
    6   11    7      0.75      0.00
    9   11    7      4.60      0.00
  -23   12    7     -0.38      0.00
  -20   12    7     -4.16      0.00
  -17   12    7     -2.27      0.00
  -14   12    7      3.04      0.00
  -11   12    7      1.03      0.00
   -8   12    7      0.73      0.00
   -5   12    7     -1.44      0.00
   -2   12    7     -4.54      0.00
    1   12    7      0.21      0.00
    4   12    7      1.49      0.00
    7   12    7      4.76      0.00
   10   12    7      4.72      0.00
  -25   13    7     -5.27      0.00
  -22   13    7     -3.48      0.00
  -19   13    7     -3.85      0.00
  -16   13    7      0.22      0.00
  -13   13    7      1.16      0.00
  -10   13    7      1.71      0.00
   -7   13    7      2.63      0.00
   -4   13    7     -4.19      0.00
   -1   13    7     -1.93      0.00
    2   13    7      2.60      0.00
    5   13    7      2.24      0.00
    8   13    7      4.46      0.00
   11   13    7      0.11      0.00
  -27   14    7     -8.20      0.00
  -24   14    7     -4.22      0.00
  -21   14    7     -5.79      0.00
  -18   14    7      0.01      0.00
  -15   14    7      2.66      0.00
  -12   14    7      0.92      0.00
   -9   14    7      2.81      0.00
   -6   14    7     -0.35      0.00
   -3   14    7     -4.23      0.00
    0   14    7      1.70      0.00
    3   14    7      2.56      0.00
    6   14    7      4.90      0.00
    9   14    7      3.52      0.00
   12   14    7     -7.43      0.00
  -29   15    7     -9.48      0.00
  -26   15    7     -5.00      0.00
  -23   15    7     -4.72      0.00
  -20   15    7     -1.69      0.00
  -17   15    7      1.22      0.00
  -14   15    7     -0.71      0.00
  -11   15    7      3.11      0.00
   -8   15    7      5.78      0.00
   -5   15    7     -3.47      0.00
   -2   15    7     -2.39      0.00
    1   15    7      3.43      0.00
    4   15    7      2.56      0.00
    7   15    7      2.63      0.00
   10   15    7     -3.02      0.00
   13   15    7    -11.02      0.00
  -28   16    7     -6.81      0.00
  -25   16    7     -4.80      0.00
  -22   16    7     -2.81      0.00
  -19   16    7      2.04      0.00
  -16   16    7      0.77      0.00
  -13   16    7      3.26      0.00
  -10   16    7      6.51      0.00
   -7   16    7     -0.07      0.00
   -4   16    7     -5.09      0.00
   -1   16    7      0.60      0.00
    2   16    7      1.21      0.00
    5   16    7      0.64      0.00
    8   16    7     -0.90      0.00
   11   16    7     -7.81      0.00
  -27   17    7     -2.62      0.00
  -24   17    7     -2.45      0.00
  -21   17    7      3.55      0.00
  -18   17    7      4.54      0.00
  -15   17    7      1.70      0.00
  -12   17    7      4.16      0.00
   -9   17    7      3.11      0.00
   -6   17    7     -2.87      0.00
   -3   17    7     -1.79      0.00
    0   17    7      1.54      0.00
    3   17    7      1.84      0.00
    6   17    7      0.73      0.00
    9   17    7     -6.05      0.00
   12   17    7    -10.12      0.00
  -29   18    7     -0.99      0.00
  -26   18    7      0.37      0.00
  -23   18    7      3.02      0.00
  -20   18    7      4.31      0.00
  -17   18    7      0.23      0.00
  -14   18    7      4.22      0.00
  -11   18    7      7.23      0.00
   -8   18    7      1.12      0.00
   -5   18    7     -2.04      0.00
   -2   18    7      1.82      0.00
    1   18    7      3.13      0.00
    4   18    7     -0.11      0.00
    7   18    7     -3.58      0.00
   10   18    7     -7.06      0.00
  -28   19    7     -0.73      0.00
  -25   19    7      0.87      0.00
  -22   19    7      4.40      0.00
  -19   19    7      1.98      0.00
  -16   19    7      3.22      0.00
  -13   19    7      6.11      0.00
  -10   19    7      1.75      0.00
   -7   19    7      0.59      0.00
   -4   19    7      1.33      0.00
   -1   19    7      0.73      0.00
    2   19    7      0.11      0.00
    5   19    7     -2.83      0.00
    8   19    7     -6.96      0.00
  -27   20    7     -0.35      0.00
  -24   20    7      2.39      0.00
  -21   20    7      2.20      0.00
  -18   20    7      0.47      0.00
  -15   20    7      2.69      0.00
  -12   20    7      1.65      0.00
   -9   20    7     -0.08      0.00
   -6   20    7      0.81      0.00
   -3   20    7     -1.56      0.00
    0   20    7     -0.75      0.00
    3   20    7     -2.85      0.00
    6   20    7     -7.18      0.00
    9   20    7     -7.50      0.00
  -29   21    7     -0.42      0.00
  -26   21    7      1.64      0.00
  -23   21    7      0.57      0.00
  -20   21    7     -2.48      0.00
  -17   21    7      1.17      0.00
  -14   21    7      2.48      0.00
  -11   21    7     -2.33      0.00
   -8   21    7     -0.78      0.00
   -5   21    7     -0.61      0.00
   -2   21    7     -0.88      0.00
    1   21    7     -1.44      0.00
    4   21    7     -5.67      0.00
    7   21    7     -5.87      0.00
  -28   22    7     -0.22      0.00
  -25   22    7      1.22      0.00
  -22   22    7     -1.97      0.00
  -19   22    7     -0.07      0.00
  -16   22    7      0.32      0.00
  -13   22    7     -4.39      0.00
  -10   22    7     -0.88      0.00
   -7   22    7      4.06      0.00
   -4   22    7     -1.09      0.00
   -1   22    7     -0.68      0.00
    2   22    7     -2.08      0.00
    5   22    7     -5.89      0.00
  -27   23    7     -0.12      0.00
  -24   23    7     -3.23      0.00
  -21   23    7     -2.86      0.00
  -18   23    7      0.04      0.00
  -15   23    7     -2.46      0.00
  -12   23    7     -3.07      0.00
   -9   23    7      1.89      0.00
   -6   23    7     -0.62      0.00
   -3   23    7     -1.25      0.00
    0   23    7     -1.19      0.00
    3   23    7     -5.69      0.00
  -26   24    7     -2.43      0.00
  -23   24    7     -5.21      0.00
  -20   24    7     -0.33      0.00
  -17   24    7     -1.09      0.00
  -14   24    7     -6.45      0.00
  -11   24    7     -2.82      0.00
   -8   24    7     -0.20      0.00
   -5   24    7     -1.92      0.00
   -2   24    7      0.15      0.00
    1   24    7     -2.32      0.00
  -25   25    7     -4.08      0.00
  -22   25    7     -1.01      0.00
  -19   25    7     -0.62      0.00
  -16   25    7     -7.28      0.00
  -13   25    7     -4.51      0.00
  -10   25    7      2.62      0.00
   -7   25    7     -0.72      0.00
   -4   25    7      0.45      0.00
   -1   25    7      2.25      0.00
  -24   26    7     -2.43      0.00
  -21   26    7      1.48      0.00
  -18   26    7     -1.59      0.00
  -15   26    7     -4.05      0.00
  -12   26    7      0.20      0.00
   -9   26    7     -1.28      0.00
   -6   26    7      0.36      0.00
   -3   26    7      4.20      0.00
  -23   27    7      1.94      0.00
  -20   27    7      1.24      0.00
  -17   27    7     -4.87      0.00
  -14   27    7     -2.96      0.00
  -11   27    7     -0.77      0.00
   -8   27    7     -3.40      0.00
   -5   27    7      0.82      0.00
  -22   28    7      2.69      0.00
  -19   28    7     -2.85      0.00
  -16   28    7     -4.04      0.00
  -13   28    7     -0.49      0.00
  -10   28    7     -5.31      0.00
   -7   28    7     -4.68      0.00
  -21   29    7      1.92      0.00
  -18   29    7     -1.48      0.00
  -15   29    7     -1.39      0.00
  -12   29    7     -4.94      0.00
   -9   29    7     -6.21      0.00
    0    1    8     -1.85      0.00
   -2    2    8     -1.84      0.00
    1    2    8     -0.45      0.00
   -4    3    8      0.88      0.00
   -1    3    8     -3.76      0.00
    2    3    8      1.63      0.00
   -6    4    8      1.86      0.00
   -3    4    8     -4.30      0.00
    0    4    8     -3.57      0.00
    3    4    8      1.06      0.00
   -8    5    8      0.82      0.00
   -5    5    8     -3.31      0.00
   -2    5    8     -8.20      0.00
    1    5    8     -3.37      0.00
    4    5    8     -0.74      0.00
  -10    6    8     -2.05      0.00
   -7    6    8     -2.98      0.00
   -4    6    8     -8.54      0.00
   -1    6    8     -8.69      0.00
    2    6    8     -2.98      0.00
    5    6    8     -1.98      0.00
  -12    7    8     -3.52      0.00
   -9    7    8     -3.82      0.00
   -6    7    8     -9.39      0.00
   -3    7    8    -11.38      0.00
    0    7    8     -8.62      0.00
    3    7    8     -3.80      0.00
    6    7    8     -4.71      0.00
  -14    8    8     -5.62      0.00
  -11    8    8     -4.64      0.00
   -8    8    8     -9.22      0.00
   -5    8    8    -10.86      0.00
   -2    8    8    -11.02      0.00
    1    8    8     -7.60      0.00
    4    8    8     -3.43      0.00
    7    8    8     -4.57      0.00
  -16    9    8     -5.78      0.00
  -13    9    8     -5.01      0.00
  -10    9    8     -6.88      0.00
   -7    9    8    -10.31      0.00
   -4    9    8    -10.02      0.00
   -1    9    8    -10.73      0.00
    2    9    8     -4.51      0.00
    5    9    8     -3.19      0.00
    8    9    8     -4.36      0.00
  -18   10    8     -2.40      0.00
  -15   10    8     -2.92      0.00
  -12   10    8     -4.68      0.00
   -9   10    8    -10.82      0.00
   -6   10    8     -9.98      0.00
   -3   10    8    -10.33      0.00
    0   10    8     -8.74      0.00
    3   10    8     -1.95      0.00
    6   10    8     -0.75      0.00
    9   10    8      1.74      0.00
  -20   11    8      0.77      0.00
  -17   11    8     -4.31      0.00
  -14   11    8     -4.49      0.00
  -11   11    8     -8.61      0.00
   -8   11    8     -8.39      0.00
   -5   11    8     -6.34      0.00
   -2   11    8     -9.73      0.00
    1   11    8     -3.57      0.00
    4   11    8      1.32      0.00
    7   11    8      1.76      0.00
   10   11    8      5.74      0.00
  -22   12    8      3.48      0.00
  -19   12    8     -2.97      0.00
  -16   12    8     -3.79      0.00
  -13   12    8     -4.53      0.00
  -10   12    8     -6.06      0.00
   -7   12    8     -4.59      0.00
   -4   12    8     -7.11      0.00
   -1   12    8     -6.42      0.00
    2   12    8      0.89      0.00
    5   12    8      1.85      0.00
    8   12    8      4.72      0.00
   11   12    8      7.72      0.00
  -24   13    8      1.80      0.00
  -21   13    8     -1.36      0.00
  -18   13    8     -1.16      0.00
  -15   13    8     -2.08      0.00
  -12   13    8     -5.50      0.00
   -9   13    8     -3.96      0.00
   -6   13    8     -3.42      0.00
   -3   13    8     -7.07      0.00
    0   13    8     -2.28      0.00
    3   13    8      4.54      0.00
    6   13    8      5.66      0.00
    9   13    8      6.15      0.00
   12   13    8      0.13      0.00
  -26   14    8     -1.68      0.00
  -23   14    8      0.35      0.00
  -20   14    8     -2.02      0.00
  -17   14    8     -2.48      0.00
  -14   14    8     -3.76      0.00
  -11   14    8     -1.50      0.00
   -8   14    8     -0.50      0.00
   -5   14    8     -4.43      0.00
   -2   14    8     -3.54      0.00
    1   14    8      3.77      0.00
    4   14    8      4.98      0.00
    7   14    8      4.54      0.00
   10   14    8      3.37      0.00
  -25   15    8     -3.27      0.00
  -22   15    8     -1.58      0.00
  -19   15    8     -1.06      0.00
  -16   15    8     -2.33      0.00
  -13   15    8     -0.58      0.00
  -10   15    8      0.65      0.00
   -7   15    8     -1.84      0.00
   -4   15    8     -2.32      0.00
   -1   15    8      0.89      0.00
    2   15    8      4.72      0.00
    5   15    8      3.73      0.00
    8   15    8      2.10      0.00
   11   15    8     -2.81      0.00
  -24   16    8     -4.30      0.00
  -21   16    8     -0.54      0.00
  -18   16    8     -0.52      0.00
  -15   16    8     -2.00      0.00
  -12   16    8      1.27      0.00
   -9   16    8      1.04      0.00
   -6   16    8     -1.44      0.00
   -3   16    8     -1.57      0.00
    0   16    8      1.90      0.00
    3   16    8      3.80      0.00
    6   16    8     -0.72      0.00
    9   16    8     -5.87      0.00
  -26   17    8     -4.62      0.00
  -23   17    8     -0.90      0.00
  -20   17    8     -0.14      0.00
  -17   17    8     -0.77      0.00
  -14   17    8      2.94      0.00
  -11   17    8      2.32      0.00
   -8   17    8     -2.48      0.00
   -5   17    8     -0.91      0.00
   -2   17    8      0.51      0.00
    1   17    8      1.54      0.00
    4   17    8     -1.27      0.00
    7   17    8     -4.95      0.00
  -25   18    8     -1.90      0.00
  -22   18    8      3.22      0.00
  -19   18    8      1.49      0.00
  -16   18    8      1.64      0.00
  -13   18    8      2.23      0.00
  -10   18    8     -0.74      0.00
   -7   18    8      1.41      0.00
   -4   18    8      2.36      0.00
   -1   18    8      0.64      0.00
    2   18    8      1.63      0.00
    5   18    8     -3.75      0.00
  -24   19    8      0.99      0.00
  -21   19    8      2.64      0.00
  -18   19    8      1.98      0.00
  -15   19    8      2.88      0.00
  -12   19    8      2.03      0.00
   -9   19    8      1.45      0.00
   -6   19    8      3.98      0.00
   -3   19    8      1.19      0.00
    0   19    8      0.33      0.00
    3   19    8     -3.04      0.00
    6   19    8     -9.29      0.00
  -23   20    8      2.01      0.00
  -20   20    8      2.13      0.00
  -17   20    8      4.79      0.00
  -14   20    8      2.22      0.00
  -11   20    8     -1.88      0.00
   -8   20    8      2.33      0.00
   -5   20    8      3.00      0.00
   -2   20    8     -2.21      0.00
    1   20    8     -4.10      0.00
    4   20    8     -8.01      0.00
  -22   21    8      3.21      0.00
  -19   21    8      3.71      0.00
  -16   21    8      0.45      0.00
  -13   21    8     -2.96      0.00
  -10   21    8      1.46      0.00
   -7   21    8      4.52      0.00
   -4   21    8     -1.65      0.00
   -1   21    8     -3.61      0.00
    2   21    8     -5.20      0.00
  -21   22    8      3.62      0.00
  -18   22    8      3.39      0.00
  -15   22    8     -1.66      0.00
  -12   22    8     -1.49      0.00
   -9   22    8      4.12      0.00
   -6   22    8      3.05      0.00
   -3   22    8     -1.37      0.00
    0   22    8     -4.55      0.00
  -23   23    8      1.79      0.00
  -20   23    8      4.76      0.00
  -17   23    8      0.20      0.00
  -14   23    8     -4.48      0.00
  -11   23    8      1.86      0.00
   -8   23    8      5.09      0.00
   -5   23    8     -0.07      0.00
   -2   23    8     -4.11      0.00
  -19   24    8      0.67      0.00
  -16   24    8     -5.39      0.00
  -13   24    8     -1.52      0.00
  -10   24    8      3.95      0.00
   -7   24    8      0.12      0.00
   -4   24    8     -2.73      0.00
  -18   25    8     -2.42      0.00
  -15   25    8     -5.31      0.00
  -12   25    8      0.20      0.00
   -9   25    8      2.73      0.00
   -6   25    8      2.30      0.00
  -17   26    8     -4.77      0.00
  -14   26    8     -0.51      0.00
  -11   26    8      4.80      0.00
    0    0    9      1.02      0.00
    1    1    9      3.15      0.00
   -1    2    9      2.40      0.00
    2    2    9      6.32      0.00
   -3    3    9      3.63      0.00
    0    3    9      3.24      0.00
    3    3    9      7.76      0.00
   -5    4    9      5.77      0.00
   -2    4    9      2.73      0.00
    1    4    9      4.82      0.00
    4    4    9      8.55      0.00
   -7    5    9      7.84      0.00
   -4    5    9      2.80      0.00
   -1    5    9      2.29      0.00
    2    5    9      6.07      0.00
    5    5    9      8.08      0.00
   -9    6    9      6.78      0.00
   -6    6    9      1.55      0.00
   -3    6    9      0.47      0.00
    0    6    9      1.04      0.00
    3    6    9      5.63      0.00
    6    6    9      6.20      0.00
  -11    7    9      4.19      0.00
   -8    7    9      0.85      0.00
   -5    7    9     -1.58      0.00
   -2    7    9     -0.50      0.00
    1    7    9      0.73      0.00
    4    7    9      5.24      0.00
    7    7    9      2.96      0.00
  -13    8    9      0.79      0.00
  -10    8    9      0.38      0.00
   -7    8    9     -3.88      0.00
   -4    8    9     -1.97      0.00
   -1    8    9     -1.01      0.00
    2    8    9      1.69      0.00
    5    8    9      4.54      0.00
    8    8    9      0.61      0.00
  -15    9    9     -0.52      0.00
  -12    9    9     -1.30      0.00
   -9    9    9     -4.85      0.00
   -6    9    9     -3.88      0.00
   -3    9    9     -0.90      0.00
    0    9    9     -1.62      0.00
    3    9    9      3.73      0.00
    6    9    9      6.28      0.00
    9    9    9      2.33      0.00
  -17   10    9     -1.65      0.00
  -14   10    9     -1.92      0.00
  -11   10    9     -3.85      0.00
   -8   10    9     -5.34      0.00
   -5   10    9     -2.16      0.00
   -2   10    9     -1.36      0.00
    1   10    9     -0.46      0.00
    4   10    9      5.28      0.00
    7   10    9      5.48      0.00
   10   10    9      5.59      0.00
  -19   11    9      1.58      0.00
  -16   11    9     -3.06      0.00
  -13   11    9     -3.51      0.00
  -10   11    9     -5.94      0.00
   -7   11    9     -5.09      0.00
   -4   11    9     -1.17      0.00
   -1   11    9     -1.00      0.00
    2   11    9      2.49      0.00
    5   11    9      7.68      0.00
    8   11    9      8.48      0.00
   11   11    9      9.16      0.00
  -21   12    9      3.08      0.00
  -18   12    9     -1.63      0.00
  -15   12    9     -3.56      0.00
  -12   12    9     -4.79      0.00
   -9   12    9     -3.64      0.00
   -6   12    9     -1.31      0.00
   -3   12    9     -0.41      0.00
    0   12    9      0.05      0.00
    3   12    9      7.35      0.00
    6   12    9     10.29      0.00
    9   12    9      8.59      0.00
  -20   13    9      0.47      0.00
  -17   13    9     -2.00      0.00
  -14   13    9     -0.90      0.00
  -11   13    9     -1.01      0.00
   -8   13    9     -2.07      0.00
   -5   13    9     -0.71      0.00
   -2   13    9      0.37      0.00
    1   13    9      2.15      0.00
    4   13    9      8.15      0.00
    7   13    9     10.77      0.00
  -19   14    9      1.11      0.00
  -16   14    9     -0.41      0.00
  -13   14    9      0.43      0.00
  -10   14    9     -0.90      0.00
   -7   14    9     -1.71      0.00
   -4   14    9      1.29      0.00
   -1   14    9      1.88      0.00
    2   14    9      6.40      0.00
    5   14    9     10.78      0.00
  -21   15    9      2.04      0.00
  -18   15    9      0.64      0.00
  -15   15    9      0.97      0.00
  -12   15    9      2.60      0.00
   -9   15    9      1.13      0.00
   -6   15    9      0.84      0.00
   -3   15    9      3.02      0.00
    0   15    9      4.33      0.00
    3   15    9      8.72      0.00
    6   15    9      7.72      0.00
  -20   16    9      1.32      0.00
  -17   16    9      2.88      0.00
  -14   16    9      5.39      0.00
  -11   16    9      2.21      0.00
   -8   16    9     -0.35      0.00
   -5   16    9      3.48      0.00
   -2   16    9      3.42      0.00
    1   16    9      3.11      0.00
    4   16    9      6.22      0.00
  -19   17    9      2.94      0.00
  -16   17    9      4.20      0.00
  -13   17    9      3.72      0.00
  -10   17    9      0.74      0.00
   -7   17    9      1.44      0.00
   -4   17    9      3.49      0.00
   -1   17    9      2.27      0.00
    2   17    9      3.92      0.00
  -18   18    9      4.92      0.00
  -15   18    9      4.79      0.00
  -12   18    9      2.24      0.00
   -9   18    9      1.06      0.00
   -6   18    9      3.76      0.00
   -3   18    9      3.81      0.00
    0   18    9      1.83      0.00
  -17   19    9      6.58      0.00
  -14   19    9      2.51      0.00
  -11   19    9      0.07      0.00
   -8   19    9      3.94      0.00
   -5   19    9      5.39      0.00
   -2   19    9      1.54      0.00
  -16   20    9      2.62      0.00
  -13   20    9      0.45      0.00
  -10   20    9      2.47      0.00
   -7   20    9      3.49      0.00
   -4   20    9      1.68      0.00
  -15   21    9     -0.93      0.00
  -12   21    9     -1.10      0.00
   -9   21    9      2.85      0.00
   -6   21    9      2.70      0.00
  -11   22    9      2.16      0.00
   -1    1   10     -2.32      0.00
   -3    2   10     -0.26      0.00
    0    2   10     -1.08      0.00
   -5    3   10      1.38      0.00
   -2    3   10     -1.30      0.00
    1    3   10      0.82      0.00
   -7    4   10      2.65      0.00
   -4    4   10     -1.24      0.00
   -1    4   10      0.00      0.00
    2    4   10      2.73      0.00
   -9    5   10      2.66      0.00
   -6    5   10      0.84      0.00
   -3    5   10     -0.45      0.00
    0    5   10      1.51      0.00
    3    5   10      2.83      0.00
  -11    6   10      3.22      0.00
   -8    6   10      1.75      0.00
   -5    6   10     -1.80      0.00
   -2    6   10      0.23      0.00
    1    6   10      1.15      0.00
    4    6   10      0.76      0.00
  -13    7   10      1.31      0.00
  -10    7   10      0.29      0.00
   -7    7   10     -3.49      0.00
   -4    7   10     -3.23      0.00
   -1    7   10     -0.10      0.00
    2    7   10     -1.21      0.00
    5    7   10      0.36      0.00
  -15    8   10     -0.10      0.00
  -12    8   10     -1.15      0.00
   -9    8   10     -4.00      0.00
   -6    8   10     -4.75      0.00
   -3    8   10     -1.63      0.00
    0    8   10     -1.28      0.00
    3    8   10     -1.44      0.00
    6    8   10      1.99      0.00
  -14    9   10     -1.03      0.00
  -11    9   10     -3.07      0.00
   -8    9   10     -5.81      0.00
   -5    9   10     -3.69      0.00
   -2    9   10     -0.22      0.00
    1    9   10     -3.06      0.00
    4    9   10     -1.18      0.00
  -13   10   10     -3.23      0.00
  -10   10   10     -6.36      0.00
   -7   10   10     -6.18      0.00
   -4   10   10     -1.92      0.00
   -1   10   10     -0.87      0.00
    2   10   10     -2.53      0.00
    5   10   10      1.78      0.00
  -15   11   10     -3.79      0.00
  -12   11   10     -5.49      0.00
   -9   11   10     -6.35      0.00
   -6   11   10     -4.27      0.00
   -3   11   10     -1.05      0.00
    0   11   10     -1.92      0.00
    3   11   10     -0.33      0.00
  -14   12   10     -3.74      0.00
  -11   12   10     -5.70      0.00
   -8   12   10     -5.92      0.00
   -5   12   10     -2.40      0.00
   -2   12   10     -0.38      0.00
    1   12   10     -2.39      0.00
  -13   13   10     -3.15      0.00
  -10   13   10     -4.63      0.00
   -7   13   10     -4.23      0.00
   -4   13   10     -1.10      0.00
   -1   13   10     -0.19      0.00
  -12   14   10     -1.73      0.00
   -9   14   10     -3.71      0.00
   -6   14   10     -3.63      0.00
   -3   14   10     -0.76      0.00
  -11   15   10     -2.96      0.00
   -8   15   10     -3.85      0.00
   -5   15   10     -1.18      0.00
   -1    2    0    255.92      0.00
    0    3    0    184.04      0.00
   -2    4    0    144.54      0.00
   -1    5    0     85.81      0.00
  -16   23    0     -0.76      0.00
  -34   35    0      3.50      0.00
   -1   35    0      7.31      0.00
  -33   36    0      1.74      0.00
   -3   36    0      7.28      0.00
    0   36    0      4.01      0.00
  -35   37    0      1.79      0.00
  -32   37    0     -0.48      0.00
   -5   37    0      5.38      0.00
   -2   37    0      3.94      0.00
  -34   38    0      0.84      0.00
  -31   38    0     -1.47      0.00
  -28   38    0     -4.21      0.00
  -10   38    0      1.29      0.00
   -7   38    0      3.05      0.00
   -4   38    0      3.79      0.00
  -33   39    0     -1.40      0.00
  -30   39    0     -4.48      0.00
  -27   39    0     -2.94      0.00
  -24   39    0      3.40      0.00
  -15   39    0      2.26      0.00
  -12   39    0     -0.17      0.00
   -9   39    0      0.70      0.00
   -6   39    0      1.62      0.00
  -11    6    1    -27.46      0.00
    4    6    1    -18.93      0.00
    5    7    1    -17.15      0.00
    9   14    1    -13.14      0.00
    8   16    1    -11.78      0.00
  -39   20    1     -0.61      0.00
   19   21    1      1.84      0.00
   17   22    1      3.24      0.00
   20   22    1     -0.22      0.00
  -39   23    1      1.42      0.00
   18   23    1      4.64      0.00
   16   24    1      5.24      0.00
   14   25    1      1.58      0.00
   17   25    1      3.42      0.00
  -39   26    1     -1.61      0.00
   15   26    1      4.27      0.00
  -38   27    1     -2.83      0.00
   13   27    1     -1.03      0.00
   11   28    1     -5.64      0.00
  -39   29    1     -2.40      0.00
    9   29    1     -7.21      0.00
   12   29    1     -2.55      0.00
  -38   30    1     -0.41      0.00
    7   30    1     -4.28      0.00
   10   30    1     -4.24      0.00
  -37   31    1      0.64      0.00
    5   31    1     -3.86      0.00
    8   31    1     -4.41      0.00
  -39   32    1     -1.32      0.00
  -36   32    1      3.47      0.00
    6   32    1     -2.08      0.00
  -38   33    1      0.28      0.00
  -35   33    1      4.82      0.00
    4   33    1     -0.71      0.00
  -37   34    1      2.59      0.00
  -34   34    1      5.90      0.00
    2   34    1     -0.25      0.00
    5   34    1     -0.10      0.00
  -36   35    1      4.11      0.00
  -33   35    1      2.79      0.00
    0   35    1      0.34      0.00
    3   35    1      1.29      0.00
  -35   36    1      2.02      0.00
  -32   36    1     -0.57      0.00
   -5   36    1      0.02      0.00
   -2   36    1      1.12      0.00
    1   36    1      1.21      0.00
  -34   37    1      1.64      0.00
  -31   37    1     -2.12      0.00
   -7   37    1      1.06      0.00
   -4   37    1      1.89      0.00
   -1   37    1      1.79      0.00
  -33   38    1     -1.86      0.00
  -30   38    1     -3.28      0.00
  -27   38    1      0.75      0.00
   -9   38    1     -0.04      0.00
   -6   38    1      0.67      0.00
   -3   38    1      1.13      0.00
  -32   39    1     -2.67      0.00
  -29   39    1     -1.93      0.00
  -26   39    1     -0.02      0.00
  -23   39    1      0.74      0.00
  -20   39    1      0.27      0.00
  -17   39    1      0.07      0.00
  -14   39    1      0.74      0.00
  -11   39    1     -0.55      0.00
   -8   39    1     -1.13      0.00
   -5   39    1      0.07      0.00
  -14    8    2     -9.44      0.00
   10   11    2    -10.03      0.00
  -22   12    2    -11.16      0.00
   11   12    2     -9.92      0.00
   10   14    2     -7.15      0.00
   19   20    2     -2.34      0.00
   20   21    2     -2.02      0.00
  -39   22    2     -0.96      0.00
   18   22    2     -0.80      0.00
   16   23    2     -2.02      0.00
   19   23    2     -0.89      0.00
   17   24    2      1.06      0.00
  -39   25    2     -3.43      0.00
   15   25    2      0.90      0.00
  -38   26    2     -6.31      0.00
   13   26    2     -1.07      0.00
   11   27    2      0.70      0.00
   14   27    2      1.27      0.00
  -39   28    2     -6.14      0.00
    9   28    2      0.81      0.00
   12   28    2     -0.77      0.00
  -38   29    2     -6.38      0.00
   10   29    2     -0.02      0.00
  -37   30    2     -4.90      0.00
    8   30    2      1.30      0.00
  -39   31    2     -2.17      0.00
  -36   31    2     -0.86      0.00
    6   31    2      2.49      0.00
    9   31    2      0.20      0.00
  -38   32    2     -2.89      0.00
  -35   32    2      0.69      0.00
    4   32    2      1.69      0.00
    7   32    2      2.28      0.00
  -37   33    2     -0.28      0.00
  -34   33    2      3.18      0.00
    2   33    2      0.90      0.00
    5   33    2      2.23      0.00
  -36   34    2      1.48      0.00
  -33   34    2      1.21      0.00
    0   34    2     -0.89      0.00
    3   34    2      2.59      0.00
  -35   35    2      1.78      0.00
  -32   35    2     -0.78      0.00
   -2   35    2     -2.50      0.00
    1   35    2      0.75      0.00
  -37   36    2      0.20      0.00
  -34   36    2     -0.83      0.00
  -31   36    2     -4.32      0.00
   -4   36    2     -3.41      0.00
   -1   36    2     -0.19      0.00
  -36   37    2     -0.16      0.00
  -33   37    2     -2.57      0.00
  -30   37    2     -1.34      0.00
   -9   37    2     -2.79      0.00
   -6   37    2     -2.64      0.00
   -3   37    2     -0.59      0.00
  -32   38    2     -1.92      0.00
  -29   38    2      1.05      0.00
  -26   38    2      3.70      0.00
  -14   38    2     -1.09      0.00
  -11   38    2     -1.69      0.00
   -8   38    2     -2.69      0.00
   -5   38    2     -0.53      0.00
  -31   39    2     -1.20      0.00
  -28   39    2      2.11      0.00
  -25   39    2     -0.05      0.00
  -22   39    2      0.18      0.00
  -19   39    2     -0.01      0.00
  -16   39    2     -2.55      0.00
  -13   39    2     -1.87      0.00
  -10   39    2     -1.41      0.00
   -7   39    2     -1.03      0.00
  -11   10    3     -1.11      0.00
  -19   11    3     -0.27      0.00
  -22   14    3      0.09      0.00
  -21   15    3     -1.45      0.00
   19   19    3      0.30      0.00
   20   20    3      1.65      0.00
  -39   21    3      1.80      0.00
   18   21    3     -0.82      0.00
  -38   22    3      0.47      0.00
   16   22    3     -3.70      0.00
   19   22    3      0.17      0.00
   17   23    3     -1.23      0.00
  -39   24    3     -0.84      0.00
   15   24    3     -1.30      0.00
  -38   25    3     -3.65      0.00
   13   25    3     -0.46      0.00
   16   25    3     -0.09      0.00
  -37   26    3     -7.18      0.00
   11   26    3      1.03      0.00
   14   26    3      0.58      0.00
  -39   27    3     -3.75      0.00
   12   27    3     -0.64      0.00
  -38   28    3     -6.93      0.00
   10   28    3     -1.18      0.00
  -37   29    3     -6.86      0.00
    8   29    3     -2.72      0.00
   11   29    3     -1.21      0.00
  -39   30    3     -2.68      0.00
  -36   30    3     -4.93      0.00
    6   30    3     -1.55      0.00
    9   30    3     -2.94      0.00
  -38   31    3     -2.79      0.00
  -35   31    3     -1.20      0.00
    4   31    3     -0.24      0.00
    7   31    3     -1.13      0.00
  -37   32    3     -0.83      0.00
  -34   32    3      1.55      0.00
    2   32    3     -0.36      0.00
    5   32    3     -1.42      0.00
  -36   33    3     -0.05      0.00
  -33   33    3      2.36      0.00
    0   33    3     -2.27      0.00
    3   33    3      0.34      0.00
  -35   34    3      3.04      0.00
  -32   34    3      2.45      0.00
   -2   34    3     -3.22      0.00
    1   34    3     -0.39      0.00
  -34   35    3      0.71      0.00
  -31   35    3      0.04      0.00
   -4   35    3     -5.18      0.00
   -1   35    3     -1.79      0.00
  -33   36    3     -0.13      0.00
  -30   36    3      1.95      0.00
   -6   36    3     -4.91      0.00
   -3   36    3     -2.94      0.00
  -32   37    3      0.50      0.00
  -29   37    3      4.44      0.00
  -26   37    3      6.40      0.00
  -11   37    3     -2.93      0.00
   -8   37    3     -4.48      0.00
   -5   37    3     -2.26      0.00
  -31   38    3      4.54      0.00
  -28   38    3      6.25      0.00
  -25   38    3      3.72      0.00
  -22   38    3      2.89      0.00
  -19   38    3      2.23      0.00
  -16   38    3     -0.87      0.00
  -13   38    3     -1.69      0.00
  -10   38    3     -2.00      0.00
   -7   38    3     -2.56      0.00
  -30   39    3      4.02      0.00
  -27   39    3      3.34      0.00
  -24   39    3      0.81      0.00
  -21   39    3      0.50      0.00
  -18   39    3      1.64      0.00
  -15   39    3     -0.65      0.00
  -12   39    3     -2.71      0.00
   -9   39    3     -2.89      0.00
  -37   19    4     -2.67      0.00
  -39   20    4      0.23      0.00
   18   20    4     -2.43      0.00
  -38   21    4      1.10      0.00
   16   21    4     -4.88      0.00
   19   21    4      0.02      0.00
  -37   22    4     -0.38      0.00
   17   22    4     -3.00      0.00
  -39   23    4      1.34      0.00
  -36   23    4     -2.63      0.00
   15   23    4     -2.46      0.00
  -38   24    4     -0.55      0.00
   13   24    4     -2.03      0.00
   16   24    4     -1.20      0.00
  -37   25    4     -2.36      0.00
   11   25    4     -2.15      0.00
   14   25    4     -0.38      0.00
  -39   26    4     -0.17      0.00
  -36   26    4     -4.67      0.00
   12   26    4     -0.58      0.00
  -38   27    4     -2.09      0.00
  -35   27    4     -6.86      0.00
   10   27    4     -0.85      0.00
  -37   28    4     -3.60      0.00
    8   28    4     -2.44      0.00
   11   28    4     -0.42      0.00
  -36   29    4     -6.40      0.00
    6   29    4     -1.72      0.00
    9   29    4     -2.29      0.00
  -38   30    4     -1.56      0.00
  -35   30    4     -5.77      0.00
    4   30    4     -0.78      0.00
    7   30    4     -0.89      0.00
  -37   31    4     -2.85      0.00
  -34   31    4     -5.84      0.00
    2   31    4     -1.05      0.00
    5   31    4     -0.61      0.00
  -36   32    4     -3.34      0.00
  -33   32    4     -3.00      0.00
    0   32    4     -3.29      0.00
    3   32    4      0.74      0.00
  -35   33    4     -1.65      0.00
  -32   33    4     -2.52      0.00
   -2   33    4     -4.80      0.00
    1   33    4     -1.39      0.00
  -34   34    4     -1.29      0.00
  -31   34    4     -0.63      0.00
  -10   34    4     -2.07      0.00
   -7   34    4     -4.41      0.00
   -4   34    4     -6.10      0.00
   -1   34    4     -2.10      0.00
  -33   35    4     -1.38      0.00
  -30   35    4      0.84      0.00
  -27   35    4      4.01      0.00
  -12   35    4     -3.31      0.00
   -9   35    4     -4.43      0.00
   -6   35    4     -5.50      0.00
   -3   35    4     -3.38      0.00
  -32   36    4     -1.63      0.00
  -29   36    4      2.20      0.00
  -26   36    4      2.59      0.00
  -23   36    4     -0.25      0.00
  -11   36    4     -3.99      0.00
   -8   36    4     -6.18      0.00
   -5   36    4     -4.20      0.00
  -31   37    4      2.64      0.00
  -28   37    4      2.77      0.00
  -25   37    4      0.38      0.00
  -22   37    4     -0.90      0.00
  -19   37    4      0.05      0.00
  -16   37    4      0.48      0.00
  -13   37    4     -1.21      0.00
  -10   37    4     -3.98      0.00
   -7   37    4     -5.14      0.00
  -30   38    4      2.50      0.00
  -27   38    4      1.31      0.00
  -24   38    4     -1.28      0.00
  -21   38    4     -0.98      0.00
  -18   38    4      2.54      0.00
  -15   38    4      0.77      0.00
  -12   38    4     -3.00      0.00
   -9   38    4     -3.76      0.00
  -26   39    4      0.52      0.00
  -23   39    4     -1.06      0.00
  -20   39    4     -0.47      0.00
  -17   39    4      1.20      0.00
  -14   39    4      0.19      0.00
  -11   39    4     -2.83      0.00
   17   18    5     -4.62      0.00
  -36   19    5     -4.24      0.00
   18   19    5     -2.84      0.00
  -38   20    5     -1.86      0.00
  -35   20    5     -4.78      0.00
   16   20    5     -2.86      0.00
  -37   21    5     -0.95      0.00
   14   21    5     -1.90      0.00
   17   21    5     -2.75      0.00
  -36   22    5     -0.25      0.00
   15   22    5     -1.13      0.00
  -38   23    5      0.98      0.00
  -35   23    5     -2.41      0.00
   13   23    5     -1.44      0.00
  -37   24    5      0.27      0.00
  -34   24    5     -3.55      0.00
   11   24    5     -1.29      0.00
   14   24    5     -0.80      0.00
  -36   25    5     -2.03      0.00
    9   25    5     -0.94      0.00
   12   25    5     -0.59      0.00
  -38   26    5      0.07      0.00
  -35   26    5     -3.11      0.00
    7   26    5      1.40      0.00
   10   26    5      0.35      0.00
  -37   27    5     -0.16      0.00
  -34   27    5     -4.69      0.00
    8   27    5      1.38      0.00
  -36   28    5     -2.15      0.00
  -33   28    5     -4.40      0.00
    6   28    5      2.41      0.00
    9   28    5      0.92      0.00
  -35   29    5     -3.20      0.00
  -32   29    5     -3.68      0.00
    4   29    5      0.95      0.00
    7   29    5      2.11      0.00
  -34   30    5     -4.37      0.00
  -31   30    5     -3.42      0.00
    2   30    5     -1.76      0.00
    5   30    5      1.48      0.00
  -33   31    5     -4.54      0.00
  -30   31    5     -5.24      0.00
    0   31    5     -3.64      0.00
    3   31    5      1.22      0.00
  -35   32    5     -3.81      0.00
  -32   32    5     -6.87      0.00
  -29   32    5     -4.53      0.00
   -2   32    5     -2.71      0.00
    1   32    5     -1.18      0.00
  -34   33    5     -3.21      0.00
  -31   33    5     -5.14      0.00
  -28   33    5      0.44      0.00
   -7   33    5      3.92      0.00
   -4   33    5     -0.84      0.00
   -1   33    5     -1.36      0.00
  -33   34    5     -4.36      0.00
  -30   34    5     -2.77      0.00
  -27   34    5      3.06      0.00
  -24   34    5      1.41      0.00
   -9   34    5      3.47      0.00
   -6   34    5      1.08      0.00
   -3   34    5     -1.66      0.00
  -32   35    5     -3.21      0.00
  -29   35    5      0.97      0.00
  -26   35    5      3.13      0.00
  -23   35    5      0.08      0.00
  -20   35    5     -1.69      0.00
  -17   35    5      2.80      0.00
  -14   35    5      4.15      0.00
  -11   35    5      2.41      0.00
   -8   35    5      0.32      0.00
   -5   35    5     -0.63      0.00
  -28   36    5      0.87      0.00
  -25   36    5      0.35      0.00
  -22   36    5     -1.43      0.00
  -19   36    5      0.80      0.00
  -16   36    5      3.58      0.00
  -13   36    5      3.69      0.00
  -10   36    5      0.58      0.00
   -7   36    5     -1.11      0.00
  -27   37    5      1.03      0.00
  -24   37    5     -0.26      0.00
  -21   37    5      0.77      0.00
  -18   37    5      3.45      0.00
  -15   37    5      2.66      0.00
  -12   37    5      0.83      0.00
   -9   37    5     -0.60      0.00
  -26   38    5      0.62      0.00
  -23   38    5     -0.54      0.00
  -20   38    5      0.61      0.00
  -17   38    5      2.28      0.00
  -14   38    5      3.06      0.00
   17   17    6      5.91      0.00
  -33   18    6      4.92      0.00
   15   18    6      6.61      0.00
   18   18    6      4.63      0.00
  -35   19    6      3.13      0.00
   16   19    6      6.27      0.00
  -34   20    6      1.39      0.00
   14   20    6      5.32      0.00
  -36   21    6      1.48      0.00
  -33   21    6      0.75      0.00
   12   21    6      1.84      0.00
   15   21    6      4.87      0.00
  -35   22    6      1.17      0.00
  -32   22    6      2.30      0.00
   10   22    6      0.28      0.00
   13   22    6      3.05      0.00
  -34   23    6      1.49      0.00
   -7   23    6      2.34      0.00
   11   23    6      1.52      0.00
  -36   24    6      0.64      0.00
  -33   24    6      0.33      0.00
    9   24    6      1.44      0.00
   12   24    6      1.42      0.00
  -35   25    6      0.21      0.00
  -32   25    6     -0.75      0.00
    7   25    6      3.12      0.00
   10   25    6      1.48      0.00
  -34   26    6     -0.46      0.00
  -31   26    6     -0.92      0.00
    5   26    6      1.62      0.00
    8   26    6      1.85      0.00
  -33   27    6     -0.71      0.00
  -30   27    6      0.20      0.00
    3   27    6     -0.86      0.00
    6   27    6      2.92      0.00
  -32   28    6     -1.19      0.00
  -29   28    6     -0.27      0.00
    1   28    6     -3.04      0.00
    4   28    6      1.62      0.00
  -34   29    6      0.04      0.00
  -31   29    6     -0.07      0.00
  -28   29    6     -0.03      0.00
   -1   29    6     -2.59      0.00
    2   29    6     -1.79      0.00
    5   29    6      1.31      0.00
  -33   30    6      0.53      0.00
  -30   30    6     -1.89      0.00
  -27   30    6      1.96      0.00
   -3   30    6     -0.60      0.00
    0   30    6     -4.03      0.00
    3   30    6     -0.21      0.00
  -32   31    6     -1.97      0.00
  -29   31    6     -1.54      0.00
  -26   31    6      5.14      0.00
   -5   31    6      2.91      0.00
   -2   31    6     -2.27      0.00
    1   31    6     -2.31      0.00
  -31   32    6     -4.15      0.00
  -28   32    6     -0.06      0.00
  -25   32    6      4.26      0.00
  -22   32    6      1.79      0.00
  -10   32    6      5.49      0.00
   -7   32    6      4.51      0.00
   -4   32    6      1.28      0.00
   -1   32    6     -1.85      0.00
  -30   33    6     -2.72      0.00
  -27   33    6      2.11      0.00
  -24   33    6      2.83      0.00
  -21   33    6      1.22      0.00
  -18   33    6      5.29      0.00
  -15   33    6      7.31      0.00
  -12   33    6      5.54      0.00
   -9   33    6      5.95      0.00
   -6   33    6      4.36      0.00
   -3   33    6     -0.09      0.00
  -29   34    6     -0.17      0.00
  -26   34    6      2.00      0.00
  -23   34    6      0.86      0.00
  -20   34    6      0.73      0.00
  -17   34    6      5.12      0.00
  -14   34    6      6.67      0.00
  -11   34    6      5.98      0.00
   -8   34    6      3.89      0.00
   -5   34    6      2.40      0.00
  -25   35    6      0.70      0.00
  -22   35    6      0.41      0.00
  -19   35    6      3.25      0.00
  -16   35    6      4.13      0.00
  -13   35    6      4.83      0.00
  -10   35    6      3.01      0.00
  -24   36    6      0.72      0.00
  -21   36    6      1.50      0.00
  -18   36    6      1.90      0.00
  -15   36    6      1.37      0.00
  -12   36    6      2.93      0.00
  -31   16    7     -4.55      0.00
   14   16    7     -8.34      0.00
  -33   17    7     -0.22      0.00
  -30   17    7     -4.76      0.00
   15   17    7     -1.94      0.00
  -32   18    7     -0.83      0.00
   13   18    7     -4.35      0.00
   16   18    7      1.83      0.00
  -34   19    7      1.12      0.00
  -31   19    7     -0.33      0.00
   11   19    7     -6.03      0.00
   14   19    7      0.23      0.00
  -33   20    7     -0.59      0.00
  -30   20    7     -0.19      0.00
   12   20    7     -1.35      0.00
  -32   21    7      0.39      0.00
   10   21    7     -1.95      0.00
   13   21    7      0.45      0.00
  -34   22    7      0.49      0.00
  -31   22    7     -0.11      0.00
    8   22    7     -4.25      0.00
   11   22    7      0.00      0.00
  -33   23    7      1.43      0.00
  -30   23    7     -0.46      0.00
    6   23    7     -4.71      0.00
    9   23    7     -0.14      0.00
  -32   24    7     -0.87      0.00
  -29   24    7     -1.33      0.00
    4   24    7     -3.63      0.00
    7   24    7      0.03      0.00
  -31   25    7     -1.90      0.00
  -28   25    7     -1.71      0.00
    2   25    7     -0.85      0.00
    5   25    7     -0.41      0.00
    8   25    7      1.52      0.00
  -30   26    7     -1.40      0.00
  -27   26    7     -3.58      0.00
    0   26    7      0.78      0.00
    3   26    7     -0.04      0.00
    6   26    7      2.92      0.00
  -32   27    7     -1.20      0.00
  -29   27    7     -1.97      0.00
  -26   27    7     -2.29      0.00
   -2   27    7      1.70      0.00
    1   27    7     -0.39      0.00
    4   27    7      1.27      0.00
  -31   28    7     -1.79      0.00
  -28   28    7     -2.34      0.00
  -25   28    7      1.70      0.00
   -4   28    7      0.32      0.00
   -1   28    7     -0.42      0.00
    2   28    7     -0.23      0.00
  -30   29    7     -1.27      0.00
  -27   29    7      1.29      0.00
  -24   29    7      4.39      0.00
   -6   29    7     -0.62      0.00
   -3   29    7      0.20      0.00
    0   29    7     -0.78      0.00
  -29   30    7      1.25      0.00
  -26   30    7      4.49      0.00
  -23   30    7      3.85      0.00
  -20   30    7     -0.21      0.00
  -17   30    7     -0.32      0.00
  -14   30    7      0.12      0.00
  -11   30    7     -4.12      0.00
   -8   30    7     -4.05      0.00
   -5   30    7     -0.75      0.00
   -2   30    7     -0.80      0.00
  -28   31    7      2.64      0.00
  -25   31    7      3.88      0.00
  -22   31    7      1.71      0.00
  -19   31    7      1.09      0.00
  -16   31    7      1.85      0.00
  -13   31    7     -2.70      0.00
  -10   31    7     -5.05      0.00
   -7   31    7     -3.32      0.00
   -4   31    7     -1.53      0.00
  -27   32    7      2.50      0.00
  -24   32    7      1.95      0.00
  -21   32    7      0.93      0.00
  -18   32    7      1.54      0.00
  -15   32    7     -1.47      0.00
  -12   32    7     -3.02      0.00
   -9   32    7     -2.37      0.00
   -6   32    7     -1.48      0.00
  -23   33    7      0.46      0.00
  -20   33    7      1.21      0.00
  -17   33    7      2.46      0.00
  -14   33    7      0.32      0.00
  -11   33    7     -0.57      0.00
   -8   33    7     -1.67      0.00
  -22   34    7      1.26      0.00
  -19   34    7      2.43      0.00
  -16   34    7      0.20      0.00
  -13   34    7      0.26      0.00
   13   14    8     -4.50      0.00
  -28   15    8     -6.13      0.00
   14   15    8     -7.00      0.00
  -30   16    8     -4.63      0.00
  -27   16    8     -4.64      0.00
   12   16    8     -7.52      0.00
   15   16    8     -4.14      0.00
  -29   17    8     -4.17      0.00
   10   17    8     -6.57      0.00
   13   17    8     -5.91      0.00
  -31   18    8     -0.75      0.00
  -28   18    8     -3.87      0.00
    8   18    8     -8.42      0.00
   11   18    8     -5.68      0.00
  -30   19    8      0.98      0.00
  -27   19    8     -2.78      0.00
    9   19    8     -7.13      0.00
   12   19    8     -1.53      0.00
  -29   20    8     -1.97      0.00
  -26   20    8     -0.79      0.00
    7   20    8     -8.36      0.00
   10   20    8     -3.08      0.00
  -31   21    8      0.66      0.00
  -28   21    8     -2.20      0.00
  -25   21    8      1.53      0.00
    5   21    8     -9.72      0.00
    8   21    8     -5.17      0.00
  -30   22    8      0.15      0.00
  -27   22    8     -0.86      0.00
  -24   22    8      0.85      0.00
    3   22    8     -7.91      0.00
    6   22    8     -5.73      0.00
  -29   23    8     -0.72      0.00
  -26   23    8     -0.12      0.00
    1   23    8     -6.67      0.00
    4   23    8     -7.47      0.00
    7   23    8     -2.85      0.00
  -28   24    8     -1.73      0.00
  -25   24    8      0.04      0.00
  -22   24    8      4.12      0.00
   -1   24    8     -5.06      0.00
    2   24    8     -7.57      0.00
    5   24    8     -4.80      0.00
  -27   25    8     -2.34      0.00
  -24   25    8      1.59      0.00
  -21   25    8      3.31      0.00
   -3   25    8     -0.65      0.00
    0   25    8     -4.62      0.00
    3   25    8     -3.43      0.00
  -26   26    8     -0.16      0.00
  -23   26    8      3.24      0.00
  -20   26    8     -0.27      0.00
   -8   26    8      3.97      0.00
   -5   26    8      3.30      0.00
   -2   26    8      0.68      0.00
    1   26    8     -2.15      0.00
  -25   27    8      2.36      0.00
  -22   27    8      1.51      0.00
  -19   27    8     -3.15      0.00
  -16   27    8     -2.17      0.00
  -13   27    8      1.93      0.00
  -10   27    8      2.55      0.00
   -7   27    8      3.74      0.00
   -4   27    8      3.00      0.00
   -1   27    8     -0.89      0.00
  -24   28    8      1.58      0.00
  -21   28    8     -1.31      0.00
  -18   28    8     -3.73      0.00
  -15   28    8     -2.48      0.00
  -12   28    8     -0.39      0.00
   -9   28    8      2.89      0.00
   -6   28    8      3.65      0.00
   -3   28    8      1.28      0.00
  -23   29    8     -0.47      0.00
  -20   29    8     -3.14      0.00
  -17   29    8     -1.72      0.00
  -14   29    8     -0.51      0.00
  -11   29    8      0.16      0.00
   -8   29    8      1.90      0.00
   -5   29    8      2.78      0.00
  -22   30    8     -0.83      0.00
  -19   30    8     -1.04      0.00
  -16   30    8     -0.91      0.00
  -13   30    8     -1.98      0.00
  -10   30    8      1.31      0.00
   -7   30    8      1.99      0.00
  -21   31    8     -0.68      0.00
  -18   31    8     -0.61      0.00
  -15   31    8     -2.12      0.00
  -12   31    8     -0.71      0.00
   12   12    9      6.04      0.00
  -23   13    9      4.32      0.00
   10   13    9      9.18      0.00
   13   13    9      3.92      0.00
  -25   14    9      2.51      0.00
  -22   14    9      3.82      0.00
    8   14    9      8.82      0.00
   11   14    9      5.09      0.00
   14   14    9      1.93      0.00
  -27   15    9      1.70      0.00
  -24   15    9     -0.19      0.00
    9   15    9      3.60      0.00
   12   15    9      3.68      0.00
  -26   16    9     -1.67      0.00
  -23   16    9      0.56      0.00
    7   16    9      3.68      0.00
   10   16    9      0.88      0.00
  -25   17    9     -2.18      0.00
  -22   17    9      2.85      0.00
    5   17    9      1.28      0.00
    8   17    9     -2.96      0.00
  -27   18    9     -3.11      0.00
  -24   18    9     -0.67      0.00
  -21   18    9      3.52      0.00
    3   18    9      1.52      0.00
    6   18    9     -2.34      0.00
    9   18    9     -1.48      0.00
  -26   19    9     -1.04      0.00
  -23   19    9      1.76      0.00
  -20   19    9      4.81      0.00
    1   19    9      0.37      0.00
    4   19    9     -0.77      0.00
    7   19    9     -3.26      0.00
  -25   20    9     -0.23      0.00
  -22   20    9      3.99      0.00
  -19   20    9      5.62      0.00
   -1   20    9     -0.43      0.00
    2   20    9     -2.18      0.00
    5   20    9     -4.93      0.00
  -24   21    9      0.47      0.00
  -21   21    9      6.01      0.00
  -18   21    9      4.79      0.00
   -3   21    9     -0.46      0.00
    0   21    9     -3.00      0.00
    3   21    9     -2.67      0.00
  -26   22    9      0.00      0.00
  -23   22    9      2.89      0.00
  -20   22    9      5.83      0.00
  -17   22    9      0.52      0.00
  -14   22    9     -2.67      0.00
   -8   22    9      3.92      0.00
   -5   22    9      1.03      0.00
   -2   22    9     -1.21      0.00
    1   22    9     -1.86      0.00
    4   22    9     -1.52      0.00
  -25   23    9      0.65      0.00
  -22   23    9      5.44      0.00
  -19   23    9      2.18      0.00
  -16   23    9     -1.95      0.00
  -13   23    9      0.56      0.00
  -10   23    9      3.22      0.00
   -7   23    9      1.32      0.00
   -4   23    9     -0.46      0.00
   -1   23    9     -2.84      0.00
    2   23    9     -2.67      0.00
  -24   24    9      2.25      0.00
  -21   24    9      4.72      0.00
  -18   24    9     -0.77      0.00
  -15   24    9     -3.26      0.00
  -12   24    9      0.49      0.00
   -9   24    9      1.93      0.00
   -6   24    9     -0.50      0.00
   -3   24    9     -3.63      0.00
    0   24    9     -3.87      0.00
  -23   25    9      3.07      0.00
  -20   25    9      0.59      0.00
  -17   25    9     -2.76      0.00
  -14   25    9     -0.66      0.00
  -11   25    9      1.26      0.00
   -8   25    9      0.07      0.00
   -5   25    9     -1.35      0.00
   -2   25    9     -2.40      0.00
  -22   26    9      1.85      0.00
  -19   26    9     -1.16      0.00
  -16   26    9     -0.67      0.00
  -13   26    9      1.30      0.00
  -10   26    9      2.30      0.00
   -7   26    9      1.99      0.00
   -4   26    9     -0.67      0.00
  -18   27    9     -0.65      0.00
  -15   27    9      0.53      0.00
  -12   27    9      2.16      0.00
   -9   27    9      3.41      0.00
  -14   28    9      0.56      0.00
  -17    9   10     -0.73      0.00
    7    9   10      2.46      0.00
  -19   10   10      1.17      0.00
  -16   10   10     -2.44      0.00
    8   10   10      2.98      0.00
  -21   11   10      0.47      0.00
  -18   11   10     -1.27      0.00
    6   11   10      3.82      0.00
    9   11   10      2.41      0.00
  -23   12   10      0.26      0.00
  -20   12   10     -0.92      0.00
  -17   12   10     -3.46      0.00
    4   12   10      2.16      0.00
    7   12   10      6.81      0.00
   10   12   10      2.72      0.00
  -22   13   10     -0.25      0.00
  -19   13   10     -1.35      0.00
  -16   13   10     -3.39      0.00
    2   13   10     -0.16      0.00
    5   13   10      4.15      0.00
    8   13   10      3.48      0.00
  -21   14   10      0.79      0.00
  -18   14   10     -0.36      0.00
  -15   14   10     -1.31      0.00
    0   14   10     -0.81      0.00
    3   14   10      1.28      0.00
    6   14   10      4.49      0.00
    9   14   10      1.83      0.00
  -23   15   10      0.58      0.00
  -20   15   10      0.71      0.00
  -17   15   10      0.30      0.00
  -14   15   10      0.10      0.00
   -2   15   10      0.24      0.00
    1   15   10     -0.48      0.00
    4   15   10      3.98      0.00
    7   15   10      3.91      0.00
  -22   16   10      1.17      0.00
  -19   16   10      1.02      0.00
  -16   16   10      0.98      0.00
  -13   16   10      0.75      0.00
  -10   16   10     -1.77      0.00
   -7   16   10     -2.42      0.00
   -4   16   10      0.19      0.00
   -1   16   10      0.84      0.00
    2   16   10      0.18      0.00
    5   16   10      1.13      0.00
  -21   17   10      2.25      0.00
  -18   17   10      2.88      0.00
  -15   17   10      1.98      0.00
  -12   17   10      0.06      0.00
   -9   17   10     -1.73      0.00
   -6   17   10     -1.15      0.00
   -3   17   10      0.18      0.00
    0   17   10     -0.96      0.00
    3   17   10      0.00      0.00
  -20   18   10      2.60      0.00
  -17   18   10      2.98      0.00
  -14   18   10      0.45      0.00
  -11   18   10     -0.84      0.00
   -8   18   10      0.29      0.00
   -5   18   10      0.85      0.00
   -2   18   10      0.41      0.00
    1   18   10     -0.65      0.00
  -19   19   10      2.68      0.00
  -16   19   10      1.44      0.00
  -13   19   10      1.38      0.00
  -10   19   10      1.35      0.00
   -7   19   10      1.09      0.00
   -4   19   10      1.44      0.00
   -1   19   10      0.23      0.00
    2   19   10     -1.88      0.00
  -18   20   10      2.25      0.00
  -15   20   10     -0.06      0.00
  -12   20   10      0.95      0.00
   -9   20   10      2.32      0.00
   -6   20   10      0.89      0.00
   -3   20   10     -0.25      0.00
    0   20   10     -1.21      0.00
  -17   21   10     -0.20      0.00
  -14   21   10     -0.53      0.00
  -11   21   10      1.97      0.00
   -8   21   10      1.83      0.00
   -5   21   10      0.25      0.00
   -2   21   10     -0.17      0.00
  -16   22   10     -0.61      0.00
  -13   22   10      1.65      0.00
  -10   22   10      2.57      0.00
   -7   22   10      1.25      0.00
  -15   23   10     -0.55      0.00
  -12   23   10      2.46      0.00
   -9   23   10      2.34      0.00
    0    0    0      0.00      0.00
# SQUEEZE RESULTS (Version =  30715)
# Note: Data are Listed for all Voids in the P1 Unit Cell
# i.e. Centre of Gravity, Solvent Accessible Volume,
# Recovered number of Electrons in the Void and
# Details about the Squeezed Material
loop_
  _platon_squeeze_void_nr
  _platon_squeeze_void_average_x
  _platon_squeeze_void_average_y
  _platon_squeeze_void_average_z
  _platon_squeeze_void_volume
  _platon_squeeze_void_count_electrons
  _platon_squeeze_void_content
   1  0.000  0.000 -0.001       323       100 ' '
   2  0.014  0.266  0.945        13         0 ' '
   3  0.067  0.414  0.612        12         0 ' '
   4  0.081  0.680  0.721        12         0 ' '
   5  0.333  0.667  0.631       322       100 ' '
   6  0.253  0.986  0.945        13         0 ' '
   7  0.266  0.253  0.055        13         0 ' '
   8  0.320  0.400  0.721        12         0 ' '
   9  0.347  0.933  0.612        12         0 ' '
  10  0.400  0.081  0.279        12         0 ' '
  11  0.414  0.347  0.388        12         0 ' '
  12  0.667  0.333  0.298       322       100 ' '
  13  0.586  0.653  0.612        12         0 ' '
  14  0.600  0.919  0.721        13         0 ' '
  15  0.653  0.067  0.388        13         0 ' '
  16  0.680  0.600  0.279        12         0 ' '
  17  0.734  0.747  0.945        13         0 ' '
  18  0.747  0.014  0.055        13         0 ' '
  19  0.919  0.320  0.279        12         0 ' '
  20  0.933  0.586  0.388        12         0 ' '
  21  0.986  0.734  0.055        12         0 ' '
# Missing Reflections Below sin(th)/lambda = 0.25
loop_
  _platon_missing_refln_index_h
  _platon_missing_refln_index_k
  _platon_missing_refln_index_l
  _platon_missing_refln_theta
   -1    2    0     1.243
    0    3    0     2.154
   -2    4    0     2.488
   -1    5    0     3.292
  -11    6    1     7.221
    4    6    1     6.659
    5    7    1     7.844
  -14    8    2     9.855
  -11   10    3    10.151
_platon_squeeze_void_probe_radius                  1.20
_platon_squeeze_details
)
TITL mo_gs35_0m_a.res in R-3
CELL   32.7506   32.7506    9.1292     90.00     90.00    120.00
SPGR R-3
# Solvent Accessible Volume =    1233.0
# Electrons Found in S.A.V. =     298.8
# Note: Atoms in Void as Cxxx and Qxxx all others
C101 1.000 1.003 0.313 !       5.12 eA-3
C102 0.032 0.006 0.192 !       3.01 eA-3
C103 0.651 0.258 0.334 !       2.91 eA-3
C104 0.943 1.001 0.126 !       2.56 eA-3
C105 0.937 0.968 0.120 !       2.35 eA-3
C106 0.016 0.915 0.153 !       1.92 eA-3
C107 0.023 0.038 0.335 !       0.90 eA-3
C108 0.633 0.278 0.310 !       0.74 eA-3
C109 0.970 0.033 0.077 !       0.74 eA-3
C110 0.704 0.369 0.388 !       0.73 eA-3
C111 0.642 0.387 0.270 !       0.69 eA-3
Q112 0.313 0.645 0.095 !       0.64 eA-3
Q113 0.984 0.981 0.440 !       0.62 eA-3
Q114 0.644 0.310 0.749 !       0.60 eA-3
C115 0.712 0.438 0.456 !       0.59 eA-3
C116 0.555 0.242 0.367 !       0.55 eA-3
C117 0.099 0.057 0.851 !       0.55 eA-3
Q118 0.516 0.494 0.068 !       0.53 eA-3
C119 1.000 1.003 0.099 !       0.52 eA-3
C120 0.664 0.333 0.876 !       0.51 eA-3
)
;
_shelx_fab_checksum              73895
loop_
_space_group_symop_operation_xyz
'x, y, z'
'-y, x-y, z'
'-x+y, -x, z'
'x+2/3, y+1/3, z+1/3'
'-y+2/3, x-y+1/3, z+1/3'
'-x+y+2/3, -x+1/3, z+1/3'
'x+1/3, y+2/3, z+2/3'
'-y+1/3, x-y+2/3, z+2/3'
'-x+y+1/3, -x+2/3, z+2/3'
'-x, -y, -z'
'y, -x+y, -z'
'x-y, x, -z'
'-x+2/3, -y+1/3, -z+1/3'
'y+2/3, -x+y+1/3, -z+1/3'
'x-y+2/3, x+1/3, -z+1/3'
'-x+1/3, -y+2/3, -z+2/3'
'y+1/3, -x+y+2/3, -z+2/3'
'x-y+1/3, x+2/3, -z+2/3'
loop_
_atom_site_label
_atom_site_type_symbol
_atom_site_fract_x
_atom_site_fract_y
_atom_site_fract_z
_atom_site_U_iso_or_equiv
_atom_site_adp_type
_atom_site_occupancy
_atom_site_site_symmetry_order
_atom_site_calc_flag
_atom_site_refinement_flags_posn
_atom_site_refinement_flags_adp
_atom_site_refinement_flags_occupancy
Co1 Co 0.5000 0.5000 1.0000 0.01248(15) Uani 1 2 d S . P
N1 N 0.46465(7) 0.46683(7) 0.8192(2) 0.0145(5) Uani 1 1 d . . .
N2 N 0.50137(7) 0.55800(7) 0.9282(2) 0.0140(5) Uani 1 1 d . . .
N3 N 0.37628(7) 0.24037(7) 0.7618(2) 0.0177(5) Uani 1 1 d . . .
N4 N 0.38671(10) 0.57709(9) 0.1880(3) 0.0381(7) Uani 1 1 d . . .
O1 O 0.40619(9) 0.58030(8) 0.0708(2) 0.0518(7) Uani 1 1 d . . .
O2 O 0.35175(8) 0.58102(9) 0.2022(3) 0.0578(7) Uani 1 1 d . . .
C1 C 0.48322(8) 0.56472(9) 0.7995(3) 0.0165(6) Uani 1 1 d . . .
C2 C 0.44903(9) 0.48407(9) 0.7070(3) 0.0169(6) Uani 1 1 d . . .
C3 C 0.44380(9) 0.41889(9) 0.7918(3) 0.0179(6) Uani 1 1 d . . .
C4 C 0.45821(9) 0.53026(9) 0.6957(3) 0.0174(6) Uani 1 1 d . . .
C5 C 0.52604(9) 0.60216(9) 0.9906(3) 0.0170(6) Uani 1 1 d . . .
C6 C 0.42272(9) 0.33626(9) 0.8358(3) 0.0182(6) Uani 1 1 d . . .
C7 C 0.44812(9) 0.38681(8) 0.8804(3) 0.0169(6) Uani 1 1 d . . .
C8 C 0.43993(9) 0.31921(9) 0.7272(3) 0.0212(6) Uani 1 1 d . . .
H8 H 0.4681 0.3400 0.6762 0.025 Uiso 1 1 calc R U .
C9 C 0.41599(9) 0.40682(9) 0.6602(3) 0.0229(6) Uani 1 1 d . . .
H9 H 0.3986 0.3763 0.6177 0.027 Uiso 1 1 calc R U .
C10 C 0.43990(9) 0.54354(8) 0.5644(3) 0.0191(6) Uani 1 1 d . . .
C11 C 0.35964(9) 0.25695(9) 0.8661(3) 0.0213(6) Uani 1 1 d . . .
H11 H 0.3315 0.2353 0.9156 0.026 Uiso 1 1 calc R U .
C12 C 0.45775(9) 0.54410(9) 0.4259(3) 0.0220(6) Uani 1 1 d . . .
H12 H 0.4816 0.5359 0.4153 0.026 Uiso 1 1 calc R U .
C13 C 0.52216(9) 0.63631(9) 0.9016(3) 0.0214(6) Uani 1 1 d . . .
H13 H 0.5357 0.6690 0.9220 0.026 Uiso 1 1 calc R U .
C14 C 0.41582(9) 0.27192(9) 0.6942(3) 0.0205(6) Uani 1 1 d . . .
H14 H 0.4280 0.2610 0.6188 0.025 Uiso 1 1 calc R U .
C15 C 0.38134(9) 0.30377(9) 0.9050(3) 0.0221(6) Uani 1 1 d . . .
H15 H 0.3680 0.3139 0.9792 0.027 Uiso 1 1 calc R U .
C16 C 0.49579(9) 0.61346(9) 0.7842(3) 0.0217(6) Uani 1 1 d . . .
H16 H 0.4871 0.6268 0.7063 0.026 Uiso 1 1 calc R U .
C17 C 0.41922(9) 0.44682(9) 0.6085(3) 0.0226(6) Uani 1 1 d . . .
H17 H 0.4045 0.4498 0.5228 0.027 Uiso 1 1 calc R U .
C18 C 0.44159(10) 0.55638(9) 0.3032(3) 0.0256(7) Uani 1 1 d . . .
H18 H 0.4546 0.5574 0.2094 0.031 Uiso 1 1 calc R U .
C19 C 0.40623(10) 0.56712(9) 0.3200(3) 0.0268(7) Uani 1 1 d . . .
C20 C 0.40473(9) 0.55530(9) 0.5780(3) 0.0250(6) Uani 1 1 d . . .
H20 H 0.3924 0.5554 0.6722 0.030 Uiso 1 1 calc R U .
C21 C 0.38739(10) 0.56688(10) 0.4557(3) 0.0316(7) Uani 1 1 d . . .
H21 H 0.3631 0.5745 0.4652 0.038 Uiso 1 1 calc R U .
loop_
_atom_site_aniso_label
_atom_site_aniso_U_11
_atom_site_aniso_U_22
_atom_site_aniso_U_33
_atom_site_aniso_U_23
_atom_site_aniso_U_13
_atom_site_aniso_U_12
Co1 0.0114(3) 0.0097(3) 0.0129(2) -0.0002(2) 0.0013(2) 0.0027(2)
N1 0.0133(11) 0.0116(11) 0.0159(10) -0.0019(9) 0.0009(9) 0.0041(9)
N2 0.0102(11) 0.0138(11) 0.0147(10) 0.0014(9) 0.0003(9) 0.0036(9)
N3 0.0205(12) 0.0149(11) 0.0189(11) 0.0012(9) -0.0014(10) 0.0097(10)
N4 0.0401(17) 0.0301(15) 0.0415(16) 0.0070(13) -0.0107(14) 0.0155(13)
O1 0.0781(18) 0.0558(16) 0.0348(13) 0.0065(12) -0.0097(13) 0.0434(15)
O2 0.0367(14) 0.0754(18) 0.0670(16) 0.0228(14) -0.0057(13) 0.0323(14)
C1 0.0136(13) 0.0170(14) 0.0183(13) -0.0002(11) 0.0018(11) 0.0072(11)
C2 0.0145(13) 0.0175(14) 0.0170(12) -0.0005(11) 0.0000(11) 0.0069(11)
C3 0.0178(14) 0.0137(14) 0.0180(13) -0.0039(11) -0.0008(11) 0.0046(11)
C4 0.0127(13) 0.0162(14) 0.0204(13) 0.0014(11) 0.0014(11) 0.0051(11)
C5 0.0174(14) 0.0144(13) 0.0187(13) 0.0003(11) 0.0040(11) 0.0075(11)
C6 0.0230(15) 0.0134(13) 0.0158(12) 0.0004(11) -0.0048(11) 0.0075(12)
C7 0.0159(13) 0.0131(13) 0.0185(13) -0.0016(11) 0.0013(11) 0.0049(11)
C8 0.0189(14) 0.0179(14) 0.0224(13) -0.0010(12) 0.0012(12) 0.0058(12)
C9 0.0257(15) 0.0154(14) 0.0220(14) -0.0057(12) -0.0077(12) 0.0060(12)
C10 0.0165(14) 0.0112(13) 0.0222(14) -0.0012(11) -0.0050(11) 0.0012(11)
C11 0.0229(15) 0.0179(14) 0.0180(13) -0.0002(11) 0.0003(12) 0.0063(12)
C12 0.0230(15) 0.0185(14) 0.0237(14) -0.0022(12) -0.0034(12) 0.0098(12)
C13 0.0255(15) 0.0139(14) 0.0236(14) 0.0002(12) -0.0007(12) 0.0090(12)
C14 0.0237(15) 0.0201(14) 0.0185(13) -0.0018(12) 0.0030(12) 0.0116(13)
C15 0.0270(16) 0.0177(14) 0.0179(13) -0.0044(12) 0.0015(12) 0.0084(13)
C16 0.0245(15) 0.0163(14) 0.0221(13) 0.0016(12) -0.0020(12) 0.0085(12)
C17 0.0255(16) 0.0228(15) 0.0184(13) -0.0031(12) -0.0070(12) 0.0112(13)
C18 0.0290(16) 0.0226(15) 0.0216(14) -0.0016(12) -0.0036(13) 0.0101(13)
C19 0.0291(16) 0.0175(14) 0.0290(16) 0.0050(12) -0.0090(13) 0.0081(13)
C20 0.0239(15) 0.0251(15) 0.0256(15) 0.0012(12) -0.0010(12) 0.0120(13)
C21 0.0223(16) 0.0268(16) 0.0460(19) 0.0071(14) -0.0019(14) 0.0126(14)
loop_
_atom_type_symbol
_atom_type_description
_atom_type_scat_dispersion_real
_atom_type_scat_dispersion_imag
_atom_type_scat_source
C C 0.0033 0.0016 'International Tables Vol C Tables 4.2.6.8 and 6.1.1.4'
H H 0.0000 0.0000 'International Tables Vol C Tables 4.2.6.8 and 6.1.1.4'
N N 0.0061 0.0033 'International Tables Vol C Tables 4.2.6.8 and 6.1.1.4'
O O 0.0106 0.0060 'International Tables Vol C Tables 4.2.6.8 and 6.1.1.4'
Co Co 0.3494 0.9721 'International Tables Vol C Tables 4.2.6.8 and 6.1.1.4'
loop_
_geom_angle_atom_site_label_1
_geom_angle_atom_site_label_2
_geom_angle_atom_site_label_3
_geom_angle
_geom_angle_site_symmetry_1
_geom_angle_site_symmetry_3
N2 Co1 N2 180.0 . 10_667
N2 Co1 N1 88.70(8) . .
N2 Co1 N1 91.30(8) 10_667 .
N2 Co1 N1 91.30(8) . 10_667
N2 Co1 N1 88.70(8) 10_667 10_667
N1 Co1 N1 180.00(13) . 10_667
N2 Co1 N3 86.50(8) . 17_556
N2 Co1 N3 93.50(8) 10_667 17_556
N1 Co1 N3 97.09(7) . 17_556
N1 Co1 N3 82.91(7) 10_667 17_556
N2 Co1 N3 93.50(8) . 5
N2 Co1 N3 86.50(8) 10_667 5
N1 Co1 N3 82.91(7) . 5
N1 Co1 N3 97.09(7) 10_667 5
N3 Co1 N3 180.00(6) 17_556 5
C2 N1 C3 104.79(19) . .
C2 N1 Co1 128.41(16) . .
C3 N1 Co1 126.05(16) . .
C5 N2 C1 104.9(2) . .
C5 N2 Co1 125.99(16) . .
C1 N2 Co1 128.73(16) . .
C14 N3 C11 116.6(2) . .
C14 N3 Co1 119.35(16) . 9_554
C11 N3 Co1 122.77(16) . 9_554
O2 N4 O1 124.0(3) . .
O2 N4 C19 118.0(3) . .
O1 N4 C19 117.9(3) . .
N2 C1 C4 125.3(2) . .
N2 C1 C16 110.5(2) . .
C4 C1 C16 124.1(2) . .
N1 C2 C4 125.1(2) . .
N1 C2 C17 110.5(2) . .
C4 C2 C17 124.3(2) . .
N1 C3 C7 125.0(2) . .
N1 C3 C9 110.3(2) . .
C7 C3 C9 124.7(2) . .
C1 C4 C2 123.6(2) . .
C1 C4 C10 118.1(2) . .
C2 C4 C10 118.3(2) . .
N2 C5 C7 125.8(2) . 10_667
N2 C5 C13 110.4(2) . .
C7 C5 C13 123.8(2) 10_667 .
C8 C6 C15 117.0(2) . .
C8 C6 C7 121.9(2) . .
C15 C6 C7 121.1(2) . .
C3 C7 C5 125.3(2) . 10_667
C3 C7 C6 118.0(2) . .
C5 C7 C6 116.7(2) 10_667 .
C14 C8 C6 119.3(2) . .
C14 C8 H8 120.3 . .
C6 C8 H8 120.3 . .
C17 C9 C3 107.1(2) . .
C17 C9 H9 126.4 . .
C3 C9 H9 126.4 . .
C12 C10 C20 118.7(2) . .
C12 C10 C4 120.3(2) . .
C20 C10 C4 121.0(2) . .
N3 C11 C15 123.2(2) . .
N3 C11 H11 118.4 . .
C15 C11 H11 118.4 . .
C18 C12 C10 121.4(3) . .
C18 C12 H12 119.3 . .
C10 C12 H12 119.3 . .
C16 C13 C5 107.4(2) . .
C16 C13 H13 126.3 . .
C5 C13 H13 126.3 . .
N3 C14 C8 123.9(2) . .
N3 C14 H14 118.0 . .
C8 C14 H14 118.0 . .
C11 C15 C6 120.0(2) . .
C11 C15 H15 120.0 . .
C6 C15 H15 120.0 . .
C13 C16 C1 106.7(2) . .
C13 C16 H16 126.7 . .
C1 C16 H16 126.7 . .
C9 C17 C2 107.3(2) . .
C9 C17 H17 126.4 . .
C2 C17 H17 126.4 . .
C19 C18 C12 118.5(3) . .
C19 C18 H18 120.7 . .
C12 C18 H18 120.7 . .
C18 C19 C21 121.9(2) . .
C18 C19 N4 118.6(3) . .
C21 C19 N4 119.4(3) . .
C21 C20 C10 120.8(3) . .
C21 C20 H20 119.6 . .
C10 C20 H20 119.6 . .
C19 C21 C20 118.7(3) . .
C19 C21 H21 120.7 . .
C20 C21 H21 120.7 . .
loop_
_geom_bond_atom_site_label_1
_geom_bond_atom_site_label_2
_geom_bond_distance
_geom_bond_site_symmetry_2
Co1 N2 1.9886(19) .
Co1 N2 1.9886(19) 10_667
Co1 N1 1.9971(19) .
Co1 N1 1.9971(19) 10_667
Co1 N3 2.272(2) 17_556
Co1 N3 2.272(2) 5
N1 C2 1.385(3) .
N1 C3 1.386(3) .
N2 C5 1.378(3) .
N2 C1 1.383(3) .
N3 C14 1.337(3) .
N3 C11 1.340(3) .
N3 Co1 2.273(2) 9_554
N4 O2 1.221(3) .
N4 O1 1.223(3) .
N4 C19 1.475(4) .
C1 C4 1.385(3) .
C1 C16 1.442(3) .
C2 C4 1.391(3) .
C2 C17 1.435(3) .
C3 C7 1.388(3) .
C3 C9 1.438(3) .
C4 C10 1.499(3) .
C5 C7 1.388(3) 10_667
C5 C13 1.438(3) .
C6 C8 1.388(3) .
C6 C15 1.388(4) .
C6 C7 1.490(3) .
C7 C5 1.388(3) 10_667
C8 C14 1.375(3) .
C8 H8 0.9500 .
C9 C17 1.346(4) .
C9 H9 0.9500 .
C10 C12 1.389(3) .
C10 C20 1.391(4) .
C11 C15 1.376(3) .
C11 H11 0.9500 .
C12 C18 1.382(4) .
C12 H12 0.9500 .
C13 C16 1.345(3) .
C13 H13 0.9500 .
C14 H14 0.9500 .
C15 H15 0.9500 .
C16 H16 0.9500 .
C17 H17 0.9500 .
C18 C19 1.377(4) .
C18 H18 0.9500 .
C19 C21 1.383(4) .
C20 C21 1.389(4) .
C20 H20 0.9500 .
C21 H21 0.9500 .
loop_
_platon_squeeze_void_nr
_platon_squeeze_void_average_x
_platon_squeeze_void_average_y
_platon_squeeze_void_average_z
_platon_squeeze_void_volume
_platon_squeeze_void_count_electrons
_platon_squeeze_void_content
1 0.000 0.000 -0.001 323 100 'crystallization solvent'
2 0.014 0.266 0.945 13 0 ' '
3 0.067 0.414 0.612 12 0 ' '
4 0.081 0.680 0.721 12 0 ' '
5 0.333 0.667 0.631 322 100 'crystallization solvent'
6 0.253 0.986 0.945 13 0 ' '
7 0.266 0.253 0.055 13 0 ' '
8 0.320 0.400 0.721 12 0 ' '
9 0.347 0.933 0.612 12 0 ' '
10 0.400 0.081 0.279 12 0 ' '
11 0.414 0.347 0.388 12 0 ' '
12 0.667 0.333 0.298 322 100 'crystallization solvent'
13 0.586 0.653 0.612 12 0 ' '
14 0.600 0.919 0.721 13 0 ' '
15 0.653 0.067 0.388 13 0 ' '
16 0.680 0.600 0.279 12 0 ' '
17 0.734 0.747 0.945 13 0 ' '
18 0.747 0.014 0.055 13 0 ' '
19 0.919 0.320 0.279 12 0 ' '
20 0.933 0.586 0.388 12 0 ' '
21 0.986 0.734 0.055 12 0 ' '
