#------------------------------------------------------------------------------
#$Date: 2019-04-03 04:58:32 +0300 (Wed, 03 Apr 2019) $
#$Revision: 214461 $
#$URL: file:///home/coder/svn-repositories/cod/cif/7/23/25/7232562.cif $
#------------------------------------------------------------------------------
#
# This file is available in the Crystallography Open Database (COD),
# http://www.crystallography.net/
#
# All data on this site have been placed in the public domain by the
# contributors.
#
data_7232562
loop_
_publ_author_name
'Dar, Tawseef Ahmad'
'Tomar, Reshu'
'Mian, Rasel Mohammad'
'Sankar, Muniappan'
'Maurya, Mannar Ram'
_publ_section_title
;
 Vanadyl \b-tetrabromoporphyrin: synthesis, crystal structure and its use
 as an efficient and selective catalyst for olefin epoxidation in aqueous
 medium
;
_journal_issue                   18
_journal_name_full               'RSC Advances'
_journal_page_first              10405
_journal_paper_doi               10.1039/C8RA09825E
_journal_volume                  9
_journal_year                    2019
_chemical_formula_moiety         '0.5(C88 H48 Br8 N8 O V2)'
_chemical_formula_sum            'C44 H24 Br4 N4 O0.5 V'
_chemical_formula_weight         987.26
_chemical_name_common            'Tetrabromovanadylporphyrin dimer'
_chemical_name_systematic
'2,3,12,13-bromo-5,10,15,20-tetraphenylporphyrinatovanadium ?-oxodimer'
_space_group_crystal_system      monoclinic
_space_group_IT_number           13
_space_group_name_Hall           '-P 2yc'
_space_group_name_H-M_alt        'P 1 2/c 1'
_symmetry_Int_Tables_number      13
_symmetry_space_group_name_Hall  '-P 2yc'
_symmetry_space_group_name_H-M   'P 1 2/c 1'
_audit_creation_date             2018-11-05
_audit_creation_method
;
Olex2 1.2
(compiled 2018.05.29 svn.r3508 for OlexSys, GUI svn.r5506)
;
_audit_update_record
;
2019-01-19 deposited with the CCDC.    2019-03-07 downloaded from the CCDC.
;
_cell_angle_alpha                90
_cell_angle_beta                 107.719(9)
_cell_angle_gamma                90
_cell_formula_units_Z            8
_cell_length_a                   29.844(9)
_cell_length_b                   13.822(4)
_cell_length_c                   19.654(7)
_cell_measurement_reflns_used    12130
_cell_measurement_temperature    293(2)
_cell_measurement_theta_max      18.210
_cell_measurement_theta_min      0.72
_cell_volume                     7723(4)
_computing_molecular_graphics    'Olex2 (Dolomanov et al., 2009)'
_computing_publication_material  'Olex2 (Dolomanov et al., 2009)'
_computing_structure_refinement  'olex2.refine (Bourhis et al., 2015)'
_diffrn_ambient_temperature      293
_diffrn_measured_fraction_theta_full 0.9965
_diffrn_measured_fraction_theta_max 0.9935
_diffrn_measurement_device_type  'Bruker APEX-II CCD'
_diffrn_radiation_type           'Mo K\a'
_diffrn_radiation_wavelength     0.71073
_diffrn_reflns_av_R_equivalents  0.0726
_diffrn_reflns_av_unetI/netI     0.0692
_diffrn_reflns_limit_h_max       26
_diffrn_reflns_limit_h_min       -22
_diffrn_reflns_limit_k_max       12
_diffrn_reflns_limit_k_min       -12
_diffrn_reflns_limit_l_max       15
_diffrn_reflns_limit_l_min       -17
_diffrn_reflns_number            21499
_diffrn_reflns_theta_full        18.2126
_diffrn_reflns_theta_max         18.21
_diffrn_reflns_theta_min         0.72
_exptl_absorpt_coefficient_mu    4.435
_exptl_absorpt_correction_T_max  0.587
_exptl_absorpt_correction_T_min  0.497
_exptl_absorpt_correction_type   multi-scan
_exptl_absorpt_process_details   '(SADABS; Brucker, 2000)'
_exptl_crystal_colour            green
_exptl_crystal_density_diffrn    1.6981
_exptl_crystal_density_method    'not measured'
_exptl_crystal_description       Needle
_exptl_crystal_F_000             3859.2129
_exptl_crystal_recrystallization_method
'Re-crystallisation from solvent: Toluene/Chloroform/methanol'
_exptl_crystal_size_max          0.16
_exptl_crystal_size_mid          0.14
_exptl_crystal_size_min          0.12
_refine_diff_density_max         0.8679
_refine_diff_density_min         -0.6394
_refine_diff_density_rms         0.1639
_refine_ls_d_res_high            1.1370
_refine_ls_d_res_low             28.4286
_refine_ls_goodness_of_fit_ref   1.0924
_refine_ls_hydrogen_treatment    constr
_refine_ls_matrix_type           full
_refine_ls_number_constraints    96
_refine_ls_number_parameters     619
_refine_ls_number_reflns         5465
_refine_ls_number_restraints     0
_refine_ls_restrained_S_all      1.0924
_refine_ls_R_factor_all          0.0830
_refine_ls_R_factor_gt           0.0475
_refine_ls_shift/su_max          0.0018
_refine_ls_shift/su_mean         0.0002
_refine_ls_structure_factor_coef Fsqd
_refine_ls_weighting_details
'w=1/[\s^2^(Fo^2^)+(0.0429P)^2^+22.8728P] where P=(Fo^2^+2Fc^2^)/3'
_refine_ls_weighting_scheme      calc
_refine_ls_wR_factor_gt          0.0982
_refine_ls_wR_factor_ref         0.1144
_reflns_Friedel_coverage         0.0
_reflns_limit_h_max              24
_reflns_limit_h_min              -26
_reflns_limit_k_max              12
_reflns_limit_k_min              0
_reflns_limit_l_max              17
_reflns_limit_l_min              0
_reflns_number_gt                3875
_reflns_number_total             5465
_reflns_threshold_expression     I>=2u(I)
_iucr_refine_instructions_details
;
TITL 20171007VOTPPBr4_00ma in P2/c
CELL 0.71073 29.8444 13.8221 19.654 90 107.719 90
ZERR 8 0.0091 0.004 0.0069 0 0.009 0
LATT 1
SYMM -X,+Y,0.5-Z
SFAC C H N O V Br
UNIT 240 480 64 16 8 32

L.S. 4
PLAN  25
FMAP 2
ACTA 
MERG 2
WGHT 0.042877 22.872797
FVAR 0.035427
REM <olex2.extras>
REM <HklSrc "%.\\shelx.hkl">
REM </olex2.extras>

Br01  6     0.60584  0.88550  0.52654  11.00000  0.07106  0.05386  0.05968 =
 -0.00872  0.03349  0.01068 
Br02  6     0.64472  1.11880  0.55033  11.00000  0.06320  0.06469  0.08072 =
 -0.00679  0.04734 -0.00628 

Br2   6     0.82395  0.68265  0.39259  11.00000  0.05069  0.05572  0.07718 =
 -0.00869  0.03388 -0.00419 
Br4   6     1.22909  0.64062  0.46235  11.00000  0.03699  0.06516  0.08767 =
 -0.00101 -0.00161  0.00083 
Br1   6     0.86492  0.45345  0.44093  11.00000  0.06718  0.05877  0.06936 =
 0.00860  0.03552 -0.01198 

Br06  6     0.26037  1.08808  0.58912  11.00000  0.03101  0.05343  0.12214 =
 0.00125  0.00847 -0.00435 
Br07  6     0.28697  1.32131  0.56060  11.00000  0.04122  0.05233  0.09687 =
 0.00945  0.00062  0.01135 

Br3   6     1.19908  0.87459  0.48935  11.00000  0.05399  0.05654  0.09286 =
 -0.01275 -0.01486 -0.01578 
VO1   5     1.01602  0.66138  0.34442  11.00000  0.01330  0.00682  0.01555 =
 -0.00053  0.00103 -0.00435 

VO2   5     0.47296  1.10263  0.65654  11.00000  0.00968  0.00962  0.01364 =
 -0.00012  0.00174  0.00090 

O011  4     1.00000  0.65774  0.25000  10.50000  0.04179 

O012  4     0.50000  1.09755  0.75000  10.50000  0.03786 
C47   1     0.45455  0.79954  0.64786  11.00000  0.04861 
AFIX 43
H47   2     0.46669  0.73718  0.65074  11.00000 -1.20000 
AFIX 0
C62   1     0.32218  1.13559  0.61370  11.00000  0.03211 

N4    3     1.08810  0.70184  0.38083  11.00000  0.02326  0.02490  0.05460 =
 -0.00331 -0.00050 -0.01021 
C17   1     0.88003  0.63327  0.38227  11.00000  0.02728  0.03958  0.02611 =
 -0.00234  0.00966 -0.00275 
N1    3     0.95347  0.62393  0.36724  11.00000  0.05250  0.00674  0.04979 =
 0.00955  0.01200  0.00066 
C18   1     0.89561  0.54342  0.39862  11.00000  0.04201  0.01961  0.03769 =
 0.01012  0.00842  0.00113 

N7    3     0.48486  1.24249  0.63173  11.00000  0.03058  0.02887  0.04404 =
 -0.00679  0.02132  0.00365 
N8    3     0.52811  1.06389  0.61585  11.00000  0.03279  0.02943  0.04274 =
 -0.00754  0.01462  0.00262 

C20   1     0.96546  0.45141  0.38449  11.00000  0.04305  0.03196  0.02976 =
 0.00331  0.00640 -0.02547 

C73   1     0.69549  1.27723  0.72531  11.00000  0.07075 
AFIX 43
H73   2     0.71973  1.25469  0.76405  11.00000 -1.20000 
AFIX 0

C25   1     0.94179  0.19979  0.44492  11.00000  0.08317 
AFIX 43
H25   2     0.95409  0.15747  0.48280  11.00000 -1.20000 
AFIX 0

C51   1     0.57972  0.97940  0.57210  11.00000  0.03211 
C61   1     0.33245  1.22870  0.60294  11.00000  0.03013 

C3    1     1.07510  0.38683  0.35393  11.00000  0.04769  0.02578  0.07715 =
 0.00464  0.02679 -0.00274 
AFIX 43
H3    2     1.09735  0.34651  0.34424  11.00000 -1.20000 
AFIX 0
C7    1     1.16774  0.68973  0.42586  11.00000  0.02754  0.02831  0.04928 =
 0.01159  0.00768  0.00258 
C8    1     1.15636  0.78249  0.43470  11.00000  0.02632  0.05028  0.04588 =
 0.00791  0.00221 -0.01342 

N6    3     0.44732  0.96480  0.63153  11.00000  0.02174  0.02462  0.04594 =
 -0.00546  0.01182  0.00116 
C63   1     0.36548  1.08246  0.63815  11.00000  0.02915 

N2    3     1.03891  0.52329  0.37550  11.00000  0.03809  0.03049  0.03970 =
 0.01539  0.00847  0.01086 

C52   1     0.59502  1.07245  0.58130  11.00000  0.03380 
C46   1     0.41560  0.82622  0.66205  11.00000  0.04459 
AFIX 43
H46   2     0.39542  0.78538  0.67645  11.00000 -1.20000 
AFIX 0

C2    1     1.03354  0.35901  0.36018  11.00000  0.05182  0.00834  0.08803 =
 0.00154  0.01123 -0.00583 
AFIX 43
H2    2     1.02169  0.29631  0.35542  11.00000 -1.20000 
AFIX 0

C66   1     0.51466  0.72496  0.54932  11.00000  0.05692 
AFIX 43
H66   2     0.48576  0.74103  0.51689  11.00000 -1.20000 
AFIX 0
C68   1     0.57604  0.61397  0.59525  11.00000  0.09057 
AFIX 43
H68   2     0.58964  0.55409  0.59267  11.00000 -1.20000 
AFIX 0

N3    3     1.00125  0.80029  0.36484  11.00000  0.02344  0.02559  0.05109 =
 -0.00338  0.00250 -0.01123 

N5    3     0.40235  1.14447  0.64134  11.00000  0.02353  0.02020  0.04694 =
 0.00067  0.00554  0.00007 
C45   1     0.40985  0.92976  0.65130  11.00000  0.03194 
C50   1     0.53909  0.97267  0.59696  11.00000  0.03118 
C74   1     0.70301  1.35205  0.68584  11.00000  0.06658 
AFIX 43
H74   2     0.73283  1.37959  0.69767  11.00000 -1.20000 
AFIX 0

C16   1     0.91629  0.68547  0.36077  11.00000  0.04788  0.01774  0.03856 =
 0.00044  0.00326  0.00395 
C9    1     1.10611  0.79168  0.40358  11.00000  0.02691  0.01809  0.04937 =
 0.00545 -0.00722 -0.00167 
C21   1     0.94421  0.35361  0.38764  11.00000  0.04681 

C53   1     0.56345  1.12550  0.61128  11.00000  0.03764 

C11   1     1.02935  0.87936  0.36667  11.00000  0.02558  0.03496  0.03802 =
 -0.01064  0.00149 -0.00870 
C19   1     0.94146  0.53548  0.38628  11.00000  0.03678  0.02867  0.03534 =
 -0.00550  0.00242  0.01417 
C36   1     1.14697  1.15110  0.41948  11.00000  0.07844 
AFIX 43
H36   2     1.16265  1.21015  0.42616  11.00000 -1.20000 
AFIX 0
C049  1     0.85300  0.91254  0.33424  11.00000  0.05098 
AFIX 43
H049  2     0.87168  0.93906  0.37695  11.00000 -1.20000 
AFIX 0
C26   1     0.96274  0.28954  0.44345  11.00000  0.05635 
AFIX 43
H26   2     0.98945  0.30668  0.48030  11.00000 -1.20000 
AFIX 0
C39   1     0.86844  0.82932  0.30593  11.00000  0.03580 

C64   1     0.37107  0.98325  0.65483  11.00000  0.03039 

C6    1     1.12546  0.64031  0.39096  11.00000  0.03755  0.03189  0.02159 =
 0.00378  0.00295 -0.00951 

C77   1     0.38720  1.41811  0.63036  11.00000  0.03903 

C5    1     1.12033  0.54175  0.37093  11.00000  0.03546  0.02593  0.03751 =
 0.01022  0.00059  0.00889 
C32   1     1.15968  0.49050  0.35332  11.00000  0.03057 

C65   1     0.53744  0.79014  0.60092  11.00000  0.03839 
C49   1     0.51558  0.88757  0.60680  11.00000  0.03348 

C1    1     1.01079  0.44352  0.37553  11.00000  0.04713  0.02273  0.04223 =
 0.00576  0.01070 -0.01563 

C57   1     0.48846  1.40711  0.65657  11.00000  0.03950 
AFIX 43
H57   2     0.47921  1.46939  0.66419  11.00000 -1.20000 
AFIX 0

C12   1     1.00205  0.96359  0.34234  11.00000  0.03334  0.02797  0.07793 =
 -0.00374  0.01151 -0.00993 
AFIX 43
H12   2     1.01358  1.02546  0.33945  11.00000 -1.20000 
AFIX 0
C34   1     1.09651  1.03699  0.45160  11.00000  0.06182 
AFIX 43
H34   2     1.07718  1.01940  0.47878  11.00000 -1.20000 
AFIX 0

C58   1     0.45868  1.32180  0.63962  11.00000  0.03311 

C35   1     1.11947  1.13064  0.46229  11.00000  0.08215 
AFIX 43
H35   2     1.11577  1.17430  0.49618  11.00000 -1.20000 
AFIX 0

C48   1     0.47476  0.88664  0.62685  11.00000  0.02964 

C066  1     0.79536  0.83425  0.20797  11.00000  0.06037 
AFIX 43
H066  2     0.77546  0.80744  0.16629  11.00000 -1.20000 
AFIX 0

C78   1     0.38570  1.48602  0.57641  11.00000  0.05512 
AFIX 43
H78   2     0.39993  1.47283  0.54141  11.00000 -1.20000 
AFIX 0
C79   1     0.36219  1.57446  0.57644  11.00000  0.07607 
AFIX 43
H79   2     0.36020  1.62014  0.54091  11.00000 -1.20000 
AFIX 0
C88   1     0.33547  0.93185  0.68007  11.00000  0.03464 
C69   1     0.59910  0.67444  0.64888  11.00000  0.08618 
AFIX 43
H69   2     0.62726  0.65582  0.68209  11.00000 -1.20000 
AFIX 0
C81   1     0.34339  1.52658  0.68168  11.00000  0.06182 
AFIX 43
H81   2     0.32877  1.54050  0.71610  11.00000 -1.20000 
AFIX 0

C4    1     1.07936  0.48824  0.36460  11.00000  0.01798  0.02295  0.06183 =
 -0.00121 -0.00167 -0.01296 

C85   1     0.27409  0.81125  0.66735  11.00000  0.05812 
AFIX 43
H85   2     0.25370  0.76513  0.64011  11.00000 -1.20000 
AFIX 0

C10   1     1.07933  0.87625  0.39121  11.00000  0.05015  0.01315  0.03486 =
 -0.00779  0.00551 -0.02092 
C40   1     0.83878  0.79184  0.24330  11.00000  0.04577 
AFIX 43
H40   2     0.84794  0.73663  0.22396  11.00000 -1.20000 
AFIX 0

C67   1     0.53466  0.63452  0.54522  11.00000  0.08070 
AFIX 43
H67   2     0.52015  0.59035  0.50965  11.00000 -1.20000 
AFIX 0

C31   1     1.16954  0.51536  0.29099  11.00000  0.04481 
AFIX 43
H31   2     1.15218  0.56426  0.26233  11.00000 -1.20000 
AFIX 0

C70   1     0.57923  0.76702  0.65317  11.00000  0.06382 
AFIX 43
H70   2     0.59363  0.81030  0.68947  11.00000 -1.20000 
AFIX 0

C30   1     1.20386  0.47027  0.27065  11.00000  0.06694 
AFIX 43
H30   2     1.20982  0.48858  0.22870  11.00000 -1.20000 
AFIX 0

C60   1     0.38252  1.23499  0.62330  11.00000  0.03532 

C13   1     0.95706  0.93817  0.32441  11.00000  0.05337  0.02988  0.06175 =
 0.01230  0.01880  0.01333 
AFIX 43
H13   2     0.93124  0.97821  0.30526  11.00000 -1.20000 
AFIX 0
C082  1     0.78315  0.91654  0.23681  11.00000  0.06466 
AFIX 43
H082  2     0.75510  0.94747  0.21289  11.00000 -1.20000 
AFIX 0

C83   1     0.33290  0.94987  0.74854  11.00000  0.04311 
AFIX 43
H83   2     0.35231  0.99682  0.77651  11.00000 -1.20000 
AFIX 0
C80   1     0.34260  1.59197  0.62871  11.00000  0.06330 
AFIX 43
H80   2     0.32784  1.65119  0.62886  11.00000 -1.20000 
AFIX 0
C56   1     0.53238  1.37822  0.65911  11.00000  0.04369 
AFIX 43
H56   2     0.55908  1.41695  0.66915  11.00000 -1.20000 
AFIX 0
C87   1     0.30587  0.85955  0.63898  11.00000  0.05493 
AFIX 43
H87   2     0.30739  0.84408  0.59368  11.00000 -1.20000 
AFIX 0

C38   1     1.13018  1.00238  0.35862  11.00000  0.05928 
AFIX 43
H38   2     1.13338  0.96165  0.32272  11.00000 -1.20000 
AFIX 0

C72   1     0.65120  1.23401  0.70764  11.00000  0.04752 
AFIX 43
H72   2     0.64583  1.18237  0.73448  11.00000 -1.20000 
AFIX 0
C71   1     0.61473  1.26872  0.64919  11.00000  0.04019 

C090  1     0.81063  0.95425  0.29901  11.00000  0.06032 
AFIX 43
H090  2     0.80071  1.00889  0.31801  11.00000 -1.20000 
AFIX 0
C28   1     1.22102  0.37154  0.37430  11.00000  0.06456 
AFIX 43
H28   2     1.23887  0.32267  0.40233  11.00000 -1.20000 
AFIX 0

C54   1     0.56740  1.22138  0.63280  11.00000  0.03669 
C86   1     0.27313  0.83169  0.73397  11.00000  0.06722 
AFIX 43
H86   2     0.25203  0.79853  0.75187  11.00000 -1.20000 
AFIX 0
C55   1     0.52983  1.27516  0.64318  11.00000  0.03313 

C33   1     1.10322  0.97433  0.40158  11.00000  0.04604 
C29   1     1.22966  0.39780  0.31203  11.00000  0.06818 
AFIX 43
H29   2     1.25298  0.36645  0.29801  11.00000 -1.20000 
AFIX 0

C76   1     0.62406  1.34676  0.61108  11.00000  0.05425 
AFIX 43
H76   2     0.60026  1.37158  0.57270  11.00000 -1.20000 
AFIX 0

C14   1     0.95590  0.83490  0.34059  11.00000  0.04204  0.05082  0.03195 =
 -0.00265  0.00837 -0.00698 
C15   1     0.91492  0.78189  0.33788  11.00000  0.03842  0.04002  0.02872 =
 -0.01144  0.00726  0.00949 

C59   1     0.40980  1.31983  0.62889  11.00000  0.03027 

C27   1     1.18602  0.41674  0.39622  11.00000  0.05391 
AFIX 43
H27   2     1.18027  0.39841  0.43833  11.00000 -1.20000 
AFIX 0
C23   1     0.88474  0.23248  0.33316  11.00000  0.08081 
AFIX 43
H23   2     0.85870  0.21297  0.29598  11.00000 -1.20000 
AFIX 0
C22   1     0.90650  0.32448  0.33151  11.00000  0.06148 
AFIX 43
H22   2     0.89503  0.36481  0.29215  11.00000 -1.20000 
AFIX 0

C84   1     0.30193  0.89918  0.77613  11.00000  0.06633 
AFIX 43
H84   2     0.30092  0.91110  0.82222  11.00000 -1.20000 
AFIX 0
C82   1     0.36658  1.43909  0.68264  11.00000  0.04797 
AFIX 43
H82   2     0.36819  1.39446  0.71872  11.00000 -1.20000 
AFIX 0

C24   1     0.90323  0.17493  0.39043  11.00000  0.09003 
AFIX 43
H24   2     0.88890  0.11573  0.39256  11.00000 -1.20000 
AFIX 0

C75   1     0.66866  1.38820  0.62975  11.00000  0.06188 
AFIX 43
H75   2     0.67477  1.44024  0.60391  11.00000 -1.20000 
AFIX 0

C37   1     1.15274  1.09359  0.36997  11.00000  0.08216 
AFIX 43
H37   2     1.17159  1.11256  0.34237  11.00000 -1.20000 
AFIX 0
HKLF 4

END

  REM The information below was added by Olex2.
  REM
  REM R1 = 0.0475 for 3875 Fo > 4sig(Fo) and 0.0830 for all 5465 data
  REM 619 parameters refined using 0 restraints
  REM Highest difference peak 0.8679, deepest hole -0.6394
  REM Mean Shift 0.0002, Max Shift 0.0018.

  REM +++ Tabular Listing of Refinement Information +++
  REM R1_all = 0.0830
  REM R1_gt = 0.0475
  REM wR_ref = 0.1144
  REM GOOF = 1.0924
  REM Shift_max = 0.0018
  REM Shift_mean = 0.0002
  REM Reflections_all = 5465
  REM Reflections_gt = 3875
  REM Parameters = 619
  REM Hole = -0.6394
  REM Peak = 0.8679
  REM Flack = n/a

  
;
_cod_data_source_file            c8ra09825e2.cif
_cod_data_source_block           shelx
_cod_database_code               7232562
_olex2_refinement_description
;
1. Fixed Uiso
 At 1.2 times of:
  All C(H) groups
2.a Aromatic/amide H refined with riding coordinates:
 C47(H47), C73(H73), C25(H25), C3(H3), C46(H46), C2(H2), C66(H66), C68(H68),
 C74(H74), C36(H36), C049(H049), C26(H26), C57(H57), C12(H12), C34(H34),
 C35(H35), C066(H066), C78(H78), C79(H79), C69(H69), C81(H81), C85(H85),
 C40(H40), C67(H67), C31(H31), C70(H70), C30(H30), C13(H13), C082(H082),
 C83(H83), C80(H80), C56(H56), C87(H87), C38(H38), C72(H72), C090(H090),
 C28(H28), C86(H86), C29(H29), C76(H76), C27(H27), C23(H23), C22(H22), C84(H84),
  C82(H82), C24(H24), C75(H75), C37(H37)
;
_iucr_refine_fcf_details
;
data_shelx_CCDC1
_computing_structure_refinement   'olex2.refine (Bourhis et al., 2015)'
_shelx_refln_list_code            4
loop_
  _space_group_symop_id
  _space_group_symop_operation_xyz
  1  x,y,z
  2  -x,y,-z+1/2
  3  -x,-y,-z
  4  x,-y,z-1/2

_space_group_crystal_system       monoclinic
_space_group_IT_number            13
_space_group_name_H-M_alt         'P 1 2/c 1'
_space_group_name_Hall            '-P 2yc'
_symmetry_space_group_name_H-M    'P 1 2/c 1'
_symmetry_space_group_name_Hall   '-P 2yc'
_symmetry_Int_Tables_number       13
_cell_length_a                    29.844(9)
_cell_length_b                    13.822(4)
_cell_length_c                    19.654(7)
_cell_angle_alpha                 90
_cell_angle_beta                  107.719(9)
_cell_angle_gamma                 90
_cell_volume                      7723(4)
loop_
  _refln_index_h
  _refln_index_k
  _refln_index_l
  _refln_F_squared_calc
  _refln_F_squared_meas
  _refln_F_squared_sigma
  _refln_F_squared_weight
  _refln_observed_status
-26 0 4 71.747 -1136.860 836.058 47.549 o
-26 0 6 848.051 509.088 830.875 47.007 o
-26 1 4 6994.910 8254.650 1058.160 23.942 o
-26 1 5 11.322 -452.513 566.335 103.732 o
-26 1 6 12224.600 12328.800 786.080 28.340 o
-25 0 2 20718.000 22132.000 1501.430 9.339 o
-25 0 4 58562.300 63847.900 2176.050 2.600 o
-25 0 6 40008.900 39734.000 1768.910 4.775 o
-25 0 8 5843.390 6835.150 974.621 28.668 o
-25 1 1 4741.530 6558.050 736.013 46.455 o
-25 1 2 435.663 1755.290 682.021 68.412 o
-25 1 3 1511.900 814.817 572.710 92.398 o
-25 1 4 4.472 -568.541 529.746 118.591 o
-25 1 5 3965.960 4053.550 617.560 66.298 o
-25 1 6 2554.200 2364.550 576.620 83.040 o
-25 1 7 7932.220 8621.320 779.162 36.331 o
-25 1 8 179.041 -1157.940 912.353 39.860 o
-25 1 9 63.978 477.354 572.497 100.133 o
-25 2 1 10132.800 11093.200 972.193 24.033 o
-25 2 2 6519.990 5427.320 652.577 52.314 o
-25 2 3 792.078 483.104 606.061 86.701 o
-25 2 4 2210.100 1628.640 553.654 92.436 o
-25 2 5 1668.220 1573.710 879.766 40.777 o
-25 2 6 6773.500 6223.260 652.767 50.692 o
-25 2 7 4566.880 4261.820 610.820 65.031 o
-25 2 8 8727.860 9222.280 688.368 40.466 o
-25 2 9 1879.060 1701.490 618.711 77.322 o
-25 3 3 3063.470 2390.470 564.828 83.474 o
-25 3 4 3758.530 4711.430 619.628 65.565 o
-25 3 5 30.592 -141.246 698.062 68.248 o
-25 3 6 4379.410 3243.880 582.216 72.380 o
-25 3 7 3316.040 4580.370 603.313 70.058 o
-24 0 2 38.689 406.121 786.373 53.508 o
-24 0 4 1514.370 1560.170 741.898 56.450 o
-24 0 6 5030.850 6900.020 943.285 30.884 o
-24 0 8 516.361 298.453 775.900 54.346 o
-24 0 10 1489.150 2271.200 957.331 34.599 o
-24 1 1 1082.630 1301.320 694.612 65.097 o
-24 1 2 119.950 -683.001 493.254 135.794 o
-24 1 3 495.466 977.509 530.210 112.112 o
-24 1 4 102.085 -635.652 494.870 135.066 o
-24 1 5 1296.870 2280.290 756.714 54.160 o
-24 1 6 429.834 119.131 496.720 130.857 o
-24 1 7 3548.250 2848.500 698.090 57.064 o
-24 1 8 9.129 20.044 841.815 46.955 o
-24 1 9 8827.260 8114.960 674.517 42.293 o
-24 1 10 334.140 409.055 563.491 102.121 o
-24 1 11 71.518 633.814 584.358 95.789 o
-24 2 1 25757.400 25675.700 1103.970 11.007 o
-24 2 2 400.981 839.500 637.423 79.377 o
-24 2 3 1087.100 1494.620 604.911 83.927 o
-24 2 4 1396.800 2089.120 561.850 93.044 o
-24 2 5 869.689 60.649 721.063 62.301 o
-24 2 6 3087.780 3329.190 574.849 79.001 o
-24 2 7 1962.120 3593.230 584.348 81.128 o
-24 2 8 2063.440 1985.750 643.387 71.102 o
-24 2 9 29024.100 31384.500 1117.220 9.341 o
-24 2 10 4108.330 4060.030 622.501 65.030 o
-24 3 1 11900.800 11391.000 1086.770 19.554 o
-24 3 2 1761.470 1193.920 711.863 60.828 o
-24 3 3 1805.030 3406.020 816.008 45.637 o
-24 3 4 1942.030 1207.440 703.385 61.775 o
-24 3 5 110.138 443.492 900.185 40.821 o
-24 3 6 15352.300 14378.700 811.203 23.493 o
-24 3 7 4368.840 4810.960 991.914 29.598 o
-24 3 8 10208.300 8883.710 667.118 39.450 o
-24 3 9 193.402 519.193 537.060 112.648 o
-24 3 10 559.629 -1030.120 669.981 72.736 o
-24 4 2 24.075 -10.813 725.663 63.172 o
-24 4 3 477.391 1608.410 485.900 129.536 o
-24 4 4 56.843 -439.868 960.267 36.066 o
-24 4 5 7335.990 7696.010 595.711 53.040 o
-24 4 6 8364.710 8670.320 630.856 46.016 o
-24 4 7 8.717 1289.230 532.450 113.298 o
-24 4 8 514.309 163.830 542.700 109.536 o
-23 0 2 7.874 -2110.330 722.426 63.769 o
-23 0 4 25435.700 25820.300 1465.420 8.463 o
-23 0 6 31767.300 31616.800 1522.310 6.804 o
-23 0 8 10209.600 10498.800 999.804 23.269 o
-23 0 10 1375.270 1490.520 1003.910 31.890 o
-23 0 12 4859.040 4656.190 953.941 31.351 o
-23 1 1 14620.800 14999.000 1245.470 14.547 o
-23 1 2 661.939 992.386 509.638 119.534 o
-23 1 3 1878.580 3250.640 578.603 83.589 o
-23 1 4 1349.680 1360.960 529.366 105.828 o
-23 1 5 6445.070 7852.200 642.112 50.564 o
-23 1 6 14.798 -107.642 482.009 143.141 o
-23 1 7 17581.100 18160.800 950.388 17.607 o
-23 1 8 1762.800 2906.740 551.473 92.055 o
-23 1 9 21646.700 21065.300 1044.910 13.707 o
-23 1 10 5.353 -297.128 557.902 106.921 o
-23 1 11 1476.560 1578.620 718.763 59.940 o
-23 1 12 2095.860 2623.720 865.183 41.097 o
-23 2 1 172.414 267.725 564.647 102.878 o
-23 2 2 6049.570 6417.600 719.922 45.632 o
-23 2 3 27.095 178.787 538.237 114.202 o
-23 2 4 2465.920 3025.780 576.546 81.989 o
-23 2 5 4383.630 4364.760 633.685 62.001 o
-23 2 6 154.756 194.513 576.086 99.141 o
-23 2 7 1630.140 1930.760 544.627 97.420 o
-23 2 8 2900.040 3205.580 588.397 77.157 o
-23 2 9 2192.370 3281.920 569.700 84.271 o
-23 2 10 3975.710 4996.940 765.914 46.260 o
-23 2 11 23933.800 23919.900 1068.280 12.144 o
-23 2 12 614.241 1325.530 838.548 45.981 o
-23 3 1 3054.880 3101.980 796.964 46.060 o
-23 3 2 3954.000 3556.160 608.293 68.739 o
-23 3 3 2862.050 3660.730 755.564 50.405 o
-23 3 4 481.320 920.604 488.082 131.416 o
-23 3 5 213.389 682.623 577.310 97.336 o
-23 3 6 5477.920 6215.430 601.281 60.230 o
-23 3 7 5774.660 6467.110 746.363 43.759 o
-23 3 8 1520.130 2654.370 566.422 89.757 o
-23 3 9 27222.100 26274.600 1057.450 10.863 o
-23 3 10 12067.500 11387.800 763.627 29.943 o
-23 3 11 18747.000 19534.100 1026.230 15.467 o
-23 4 1 5791.750 5706.170 575.496 63.518 o
-23 4 2 4983.280 5207.750 540.026 73.265 o
-23 4 3 2010.660 2205.630 592.261 81.957 o
-23 4 4 9749.650 9374.330 681.465 38.942 o
-23 4 5 1138.060 -71.998 443.993 154.441 o
-23 4 6 13030.300 15032.500 857.915 23.875 o
-23 4 7 2640.860 2564.510 523.204 96.171 o
-23 4 8 10021.700 8913.960 713.013 36.969 o
-23 4 9 8298.430 8955.580 755.564 37.026 o
-23 4 10 13.117 -437.917 711.776 65.680 o
-23 5 1 255.599 -398.193 533.610 115.309 o
-23 5 2 191.446 78.404 670.138 73.542 o
-23 5 3 253.045 252.565 889.595 41.752 o
-23 5 4 5563.460 5300.310 1307.510 17.613 o
-23 5 5 3249.910 3215.070 527.903 89.478 o
-23 5 6 11031.600 10920.700 783.164 30.623 o
-23 5 7 138.763 336.324 462.215 152.420 o
-23 5 8 3492.630 4000.410 551.155 80.762 o
-22 0 2 89.897 703.663 670.141 73.004 o
-22 0 4 6.908 -751.044 655.953 77.347 o
-22 0 6 3149.220 3650.680 794.680 45.752 o
-22 0 8 818.837 1474.530 896.352 40.148 o
-22 0 10 179.558 -766.574 776.839 54.910 o
-22 0 12 12430.900 18315.900 1538.060 10.823 o
-22 1 1 522.630 1297.390 516.285 116.584 o
-22 1 2 6406.410 7247.510 719.913 44.183 o
-22 1 3 362.889 609.877 480.399 137.937 o
-22 1 4 5663.700 6691.320 603.145 58.660 o
-22 1 5 2611.640 1792.730 519.367 99.879 o
-22 1 6 4379.910 5169.530 626.907 61.777 o
-22 1 7 9243.850 9598.160 661.931 40.924 o
-22 1 8 15983.700 15520.800 793.386 22.923 o
-22 1 9 10379.000 10683.700 676.666 37.007 o
-22 1 10 605.188 935.219 834.531 46.639 o
-22 1 11 19525.100 20160.600 1047.940 14.692 o
-22 1 12 95.086 -275.403 560.765 105.372 o
-22 1 13 424.950 611.342 874.016 42.926 o
-22 2 1 918.110 -219.015 452.852 151.474 o
-22 2 2 1564.420 -126.955 486.822 126.645 o
-22 2 3 12984.900 12220.200 903.314 23.692 o
-22 2 4 3353.210 2536.680 524.539 91.688 o
-22 2 5 2865.400 2020.320 522.109 96.778 o
-22 2 6 5393.760 5111.660 556.032 69.059 o
-22 2 7 603.880 1209.060 490.219 128.065 o
-22 2 8 664.954 938.490 611.438 84.876 o
-22 2 9 888.071 1001.900 595.129 88.314 o
-22 2 10 564.762 -975.069 491.637 132.846 o
-22 2 11 752.082 1389.250 572.507 94.695 o
-22 2 12 55.003 -566.715 562.897 104.782 o
-22 3 1 1183.160 2490.080 567.275 91.541 o
-22 3 2 1449.930 1430.540 455.495 136.248 o
-22 3 3 372.388 422.145 608.361 87.768 o
-22 3 4 1.826 -736.664 524.409 121.035 o
-22 3 5 4088.700 4361.320 535.861 80.240 o
-22 3 6 2038.740 2004.920 493.393 111.944 o
-22 3 7 331.129 273.383 466.474 148.008 o
-22 3 8 3340.490 2678.160 532.374 89.324 o
-22 3 9 9435.690 9881.310 991.318 24.284 o
-22 3 10 15.851 -201.589 502.779 131.560 o
-22 3 11 11790.500 11568.500 1329.310 14.553 o
-22 3 12 3826.230 4075.800 618.755 66.527 o
-22 4 1 5144.710 6487.810 544.109 69.140 o
-22 4 2 7.279 -175.233 424.656 184.482 o
-22 4 3 20.237 -731.954 368.204 244.979 o
-22 4 4 4405.260 4293.460 449.265 98.831 o
-22 4 5 172.812 659.982 374.876 224.308 o
-22 4 6 156.327 -136.590 440.254 169.643 o
-22 4 7 78.895 418.827 723.363 63.080 o
-22 4 8 2233.140 2815.160 523.868 97.682 o
-22 4 9 8528.270 7765.470 642.947 45.695 o
-22 4 10 320.140 702.592 535.109 112.102 o
-22 4 11 9119.290 7503.750 654.536 43.798 o
-22 5 1 4027.170 3959.790 435.032 107.266 o
-22 5 2 1442.950 732.813 627.295 78.554 o
-22 5 3 2981.600 2339.290 631.485 69.911 o
-22 5 4 668.504 1068.290 632.891 79.245 o
-22 5 5 9734.470 10542.100 816.725 30.828 o
-22 5 6 53.152 -119.104 533.610 116.576 o
-22 5 7 3979.430 3853.490 502.559 89.696 o
-22 5 8 11416.500 10548.100 1081.880 20.143 o
-22 5 9 6470.510 7200.120 787.764 38.843 o
-22 5 10 2177.810 1804.070 558.226 90.871 o
-22 6 1 766.311 461.911 626.995 81.362 o
-22 6 2 209.989 941.606 638.938 79.447 o
-22 6 3 2051.700 1909.270 662.970 67.556 o
-22 6 4 188.847 -403.543 637.540 81.317 o
-22 6 5 23.468 866.272 606.342 88.821 o
-22 6 6 522.160 270.964 1175.600 23.907 o
-22 6 7 2276.890 2080.520 677.283 64.228 o
-22 6 8 572.942 1524.980 447.505 149.893 o
-21 0 2 6971.930 8149.530 1446.120 14.109 o
-21 0 4 626.695 -160.615 629.662 81.921 o
-21 0 6 562.886 -646.145 791.297 52.423 o
-21 0 8 6153.770 6647.520 856.481 34.986 o
-21 0 10 1192.800 1208.020 793.844 50.420 o
-21 0 12 1599.140 114.521 866.254 42.793 o
-21 0 14 2693.710 246.995 1123.430 25.381 o
-21 1 1 826.955 726.606 512.057 118.250 o
-21 1 2 19671.200 21693.500 956.199 15.551 o
-21 1 3 13320.100 11876.000 715.632 30.022 o
-21 1 4 840.688 1162.370 470.378 136.100 o
-21 1 5 6188.550 6304.690 564.987 62.462 o
-21 1 6 9702.310 9820.960 636.562 41.481 o
-21 1 7 8696.640 9102.930 622.565 45.414 o
-21 1 8 81.888 522.646 532.879 115.070 o
-21 1 9 12871.800 13302.100 763.222 27.935 o
-21 1 10 2202.280 1507.160 538.848 97.173 o
-21 1 11 2005.730 2527.660 598.696 79.823 o
-21 1 12 219.695 760.363 744.063 59.120 o
-21 1 13 469.533 1321.450 614.604 84.058 o
-21 2 1 2452.800 2326.870 503.407 104.272 o
-21 2 2 539.848 1199.040 560.060 100.236 o
-21 2 3 78.147 789.882 472.506 144.319 o
-21 2 4 349.940 941.827 465.212 145.054 o
-21 2 5 19659.000 20698.100 880.916 16.903 o
-21 2 6 1147.160 1098.890 464.716 136.326 o
-21 2 7 1092.530 1430.410 482.406 126.596 o
-21 2 8 4081.490 4102.430 529.911 82.184 o
-21 2 9 1420.900 1188.970 646.925 73.556 o
-21 2 10 9.003 714.592 548.560 108.569 o
-21 2 11 324.743 672.589 557.300 103.696 o
-21 2 12 3595.280 4582.440 655.148 60.824 o
-21 2 13 5184.270 5999.020 737.582 46.008 o
-21 3 1 10953.100 10600.500 740.784 32.879 o
-21 3 2 2560.300 3230.850 529.396 92.938 o
-21 3 3 16978.800 17275.600 840.657 20.379 o
-21 3 4 27529.600 26326.300 932.121 11.712 o
-21 3 5 3630.050 3321.200 647.619 63.654 o
-21 3 6 12070.500 11343.100 1228.830 16.336 o
-21 3 7 7658.750 9121.350 624.597 47.660 o
-21 3 8 48.824 -318.048 606.250 90.388 o
-21 3 9 1395.960 928.162 502.720 117.247 o
-21 3 10 699.484 518.473 537.680 109.333 o
-21 3 11 1647.520 2601.580 542.406 96.136 o
-21 3 12 3054.290 2855.010 637.584 67.761 o
-21 3 13 4291.030 3685.010 657.837 59.762 o
-21 4 1 877.167 1174.460 377.189 200.107 o
-21 4 2 4455.020 5010.760 412.766 105.311 o
-21 4 3 10025.400 10128.000 723.363 35.437 o
-21 4 4 3568.760 3328.030 373.355 137.807 o
-21 4 5 1668.860 2119.720 361.025 186.980 o
-21 4 6 8840.760 8489.950 503.887 56.102 o
-21 4 7 11993.000 11304.700 675.777 33.963 o
-21 4 8 6.813 -359.899 777.802 55.015 o
-21 4 9 80.572 662.516 573.860 99.151 o
-21 4 10 15.467 -294.470 938.910 37.751 o
-21 4 11 2376.530 2805.920 598.261 77.919 o
-21 4 12 12.922 366.441 752.113 58.535 o
-21 5 1 1163.510 -170.130 688.002 67.633 o
-21 5 2 13363.700 12787.400 931.602 22.370 o
-21 5 3 2648.210 1643.540 637.025 71.046 o
-21 5 4 168.420 -1522.920 577.266 99.124 o
-21 5 5 3538.620 3562.630 802.161 44.521 o
-21 5 6 6954.100 6438.160 757.760 40.901 o
-21 5 7 3689.660 2784.530 382.619 135.877 o
-21 5 8 7883.140 8511.760 634.623 47.001 o
-21 5 9 46.555 431.211 511.481 125.302 o
-21 5 10 10981.100 10131.100 720.817 34.154 o
-21 5 11 1451.730 1197.990 689.187 65.312 o
-21 6 1 2819.040 1886.360 949.794 34.281 o
-21 6 2 1303.600 2007.880 653.685 71.306 o
-21 6 3 1672.260 1652.330 619.256 78.018 o
-21 6 4 15638.100 14846.000 1094.290 16.781 o
-21 6 5 642.399 36.695 632.536 81.086 o
-21 6 6 1386.240 2088.010 1181.130 23.166 o
-21 6 7 2674.550 2945.520 859.528 40.791 o
-21 6 8 2743.740 3136.520 457.402 114.725 o
-21 6 9 81.484 1264.920 471.109 142.718 o
-21 7 2 1751.980 3049.800 654.688 68.304 o
-21 7 3 32.495 -124.239 579.373 99.023 o
-21 7 4 15805.500 17418.200 1658.500 9.207 o
-21 7 5 5077.810 5214.100 1437.430 14.917 o
-21 7 6 8670.250 8625.260 1499.650 12.879 o
-20 0 2 95.575 -0.635 880.417 42.864 o
-20 0 4 29670.200 33362.300 2023.760 5.076 o
-20 0 6 9856.840 8875.230 833.442 30.836 o
-20 0 8 4356.890 3981.610 854.177 38.738 o
-20 0 10 12723.500 12994.800 1035.490 19.967 o
-20 0 12 21416.000 19735.700 2071.570 5.978 o
-20 0 14 10130.900 10938.000 1041.810 21.870 o
-20 1 1 59.373 39.492 463.041 154.386 o
-20 1 2 69617.200 72055.900 1458.160 2.589 o
-20 1 3 11561.600 13859.800 759.051 29.264 o
-20 1 4 12488.200 12308.800 684.984 32.087 o
-20 1 5 11129.200 11431.300 707.263 33.661 o
-20 1 6 698.181 319.477 452.246 152.553 o
-20 1 7 1112.910 565.170 475.576 133.666 o
-20 1 8 306.648 245.137 464.481 149.653 o
-20 1 9 16936.600 17062.400 1485.830 10.649 o
-20 1 10 881.041 1795.820 521.211 110.456 o
-20 1 11 12820.100 15781.000 1029.100 19.294 o
-20 1 12 16397.200 14249.200 784.001 23.354 o
-20 1 13 742.235 690.261 605.232 86.722 o
-20 1 14 38.218 139.306 695.820 68.520 o
-20 2 1 1341.610 1794.760 473.526 126.831 o
-20 2 2 5307.010 6247.450 533.218 70.683 o
-20 2 3 34411.400 34163.300 1007.540 8.392 o
-20 2 4 933.880 390.556 444.235 154.397 o
-20 2 5 28179.500 27632.900 896.784 11.536 o
-20 2 6 3414.250 3967.380 491.702 95.687 o
-20 2 7 228.300 -258.942 434.379 173.189 o
-20 2 8 372.423 1170.990 486.459 132.098 o
-20 2 9 1734.000 1131.970 512.444 110.230 o
-20 2 10 1527.750 1056.730 600.007 84.314 o
-20 2 11 3536.770 4968.840 870.566 37.857 o
-20 2 12 375.596 181.438 529.493 115.725 o
-20 2 13 9505.890 9921.750 880.916 28.510 o
-20 2 14 20.234 -371.224 853.367 45.692 o
-20 3 1 9574.330 9372.140 772.814 33.938 o
-20 3 2 33691.900 34965.100 1041.920 8.310 o
-20 3 3 5717.550 6355.770 526.486 69.716 o
-20 3 4 171.661 142.904 404.093 199.277 o
-20 3 5 21392.900 21727.100 824.335 16.467 o
-20 3 6 3583.040 3366.440 467.637 103.494 o
-20 3 7 283.626 789.372 444.144 160.054 o
-20 3 8 2184.870 2412.160 494.847 108.795 o
-20 3 9 3933.220 4530.530 573.190 73.249 o
-20 3 10 443.791 358.420 490.705 132.831 o
-20 3 11 1624.700 1047.360 558.581 95.508 o
-20 3 12 1074.620 1066.760 599.838 86.142 o
-20 3 13 1924.390 1934.460 717.326 58.867 o
-20 4 1 735.650 1421.820 350.677 226.851 o
-20 4 2 22794.300 24061.700 1309.110 10.288 o
-20 4 3 4036.190 3072.590 351.830 142.181 o
-20 4 4 27287.600 26614.500 848.073 12.399 o
-20 4 5 2030.360 1393.680 343.549 200.911 o
-20 4 6 67.342 445.488 341.686 274.564 o
-20 4 7 159.130 -95.654 746.363 59.496 o
-20 4 8 2994.930 1743.860 652.363 67.011 o
-20 4 9 12262.400 13807.100 752.585 28.727 o
-20 4 10 1030.270 112.516 583.060 93.117 o
-20 4 11 5795.670 6563.980 1411.930 15.136 o
-20 4 12 2203.590 2955.400 602.169 77.448 o
-20 4 13 130.046 -546.116 665.308 74.868 o
-20 5 1 2839.740 4515.170 694.144 57.316 o
-20 5 2 12947.100 12164.100 875.052 24.626 o
-20 5 3 6727.670 7613.110 743.570 41.393 o
-20 5 4 17894.300 18235.400 1048.960 15.789 o
-20 5 5 2347.060 1209.950 1073.940 27.614 o
-20 5 6 5500.750 5384.920 591.310 62.876 o
-20 5 7 2432.390 2160.030 361.969 171.008 o
-20 5 8 6854.580 5319.020 520.082 68.002 o
-20 5 9 5062.660 6720.970 564.316 65.936 o
-20 5 10 756.500 693.635 763.614 55.395 o
-20 5 11 1774.380 2978.200 899.800 38.346 o
-20 5 12 3890.950 3561.540 767.072 47.476 o
-20 6 1 1901.470 1306.020 777.639 51.291 o
-20 6 2 16730.400 16145.100 1206.310 14.250 o
-20 6 3 13933.000 13854.200 1011.890 19.610 o
-20 6 4 3421.610 4974.230 707.644 53.744 o
-20 6 5 14387.600 12899.100 1408.380 12.533 o
-20 6 6 335.035 296.525 568.379 100.687 o
-20 6 7 200.257 932.697 364.167 232.550 o
-20 6 8 18.860 -773.360 410.557 197.154 o
-20 6 9 274.097 1024.910 473.808 140.462 o
-20 6 10 300.082 845.594 516.302 119.735 o
-20 7 1 66.377 990.706 994.684 33.348 o
-20 7 2 1916.360 2372.730 852.979 42.528 o
-20 7 3 8495.400 9521.090 747.187 36.824 o
-20 7 4 1418.800 1657.780 809.531 47.984 o
-20 7 5 2007.720 3576.750 708.161 58.283 o
-20 7 6 646.064 562.956 917.098 38.892 o
-20 7 7 2258.830 1709.160 609.115 78.066 o
-20 7 8 1092.570 1541.670 609.729 82.597 o
-19 0 2 24487.000 24767.900 1280.430 10.049 o
-19 0 4 215.247 382.592 599.988 90.873 o
-19 0 6 1160.160 262.487 605.652 85.824 o
-19 0 8 4046.770 5075.350 1123.430 23.813 o
-19 0 10 7793.920 8056.350 1318.630 16.372 o
-19 0 12 41972.900 36239.200 3043.610 2.535 o
-19 0 14 43.169 191.222 1195.140 23.271 o
-19 1 1 4033.040 5105.530 530.404 79.792 o
-19 1 2 12357.300 13283.400 707.509 30.675 o
-19 1 3 10882.700 9572.380 741.572 33.643 o
-19 1 4 3020.810 2889.680 500.259 99.473 o
-19 1 5 678.377 1053.190 391.150 192.911 o
-19 1 6 3486.660 4530.920 486.246 94.790 o
-19 1 7 5143.920 5604.890 518.561 75.370 o
-19 1 8 26.313 -821.143 454.147 161.085 o
-19 1 9 833.354 1231.300 811.915 48.738 o
-19 1 10 4170.600 4616.570 685.070 55.259 o
-19 1 11 354.804 443.454 570.772 99.415 o
-19 1 12 212.668 1089.550 565.810 100.218 o
-19 1 13 12775.200 12213.000 974.888 21.762 o
-19 1 14 11.442 255.600 840.535 46.975 o
-19 1 15 878.922 1464.480 962.663 34.915 o
-19 2 1 31.833 -177.354 391.013 217.037 o
-19 2 2 896.332 1257.130 568.110 95.684 o
-19 2 3 740.901 736.794 408.244 180.344 o
-19 2 4 7901.680 7929.270 510.789 59.775 o
-19 2 5 2216.220 1443.660 421.921 144.814 o
-19 2 6 29.800 -275.909 399.941 207.524 o
-19 2 7 11.501 -499.727 450.320 164.013 o
-19 2 8 6340.950 6041.520 555.205 63.696 o
-19 2 9 19018.900 17893.300 826.480 19.038 o
-19 2 10 501.051 212.124 608.077 87.759 o
-19 2 11 16968.100 19520.500 1077.570 15.465 o
-19 2 12 251.309 518.978 522.661 118.390 o
-19 2 13 7928.410 8769.280 848.990 32.243 o
-19 2 14 168.328 161.878 795.666 52.264 o
-19 3 1 6831.790 7018.770 524.829 63.953 o
-19 3 2 996.381 1672.170 406.371 169.992 o
-19 3 3 3324.060 3603.380 392.247 131.323 o
-19 3 4 4011.840 3848.660 455.227 101.943 o
-19 3 5 683.022 242.987 402.945 190.045 o
-19 3 6 6531.630 5804.480 503.828 70.764 o
-19 3 7 1149.740 1369.400 426.869 156.329 o
-19 3 8 19430.300 17315.800 813.295 19.193 o
-19 3 9 4014.880 4465.740 558.048 75.900 o
-19 3 10 46.807 -50.613 477.065 145.806 o
-19 3 11 27.296 -375.633 578.615 99.306 o
-19 3 12 2346.770 2893.570 822.239 44.642 o
-19 3 13 1513.200 1505.800 709.675 61.374 o
-19 3 14 338.376 -1300.790 935.721 37.792 o
-19 4 1 75.102 230.247 454.233 159.079 o
-19 4 2 12210.500 12517.400 541.817 38.984 o
-19 4 3 15351.200 14390.100 673.329 27.454 o
-19 4 4 817.852 414.596 430.277 165.098 o
-19 4 5 3356.620 3578.980 352.685 148.282 o
-19 4 6 5128.130 5350.770 510.377 77.554 o
-19 4 7 556.501 320.703 399.497 194.728 o
-19 4 8 9.446 -77.037 420.880 187.770 o
-19 4 9 1636.740 1445.860 474.731 125.192 o
-19 4 10 64.996 -196.917 637.111 81.809 o
-19 4 11 567.919 -597.226 475.429 141.679 o
-19 4 12 196.526 -236.701 937.658 37.732 o
-19 4 13 12551.300 12751.100 1116.220 18.218 o
-19 5 1 4848.990 5654.430 677.778 53.297 o
-19 5 2 3234.470 4218.800 620.693 67.925 o
-19 5 3 32014.200 30891.900 1200.360 8.312 o
-19 5 4 7.686 -227.980 587.081 96.550 o
-19 5 5 3790.010 4238.680 786.888 45.117 o
-19 5 6 4352.220 4859.060 432.523 101.469 o
-19 5 7 2078.060 1908.790 345.236 192.484 o
-19 5 8 64.944 901.081 429.408 172.955 o
-19 5 9 79.083 -177.944 753.646 58.484 o
-19 5 10 1875.660 2832.860 778.674 50.029 o
-19 5 11 971.839 584.724 628.169 80.179 o
-19 5 12 3325.530 3605.820 860.936 39.587 o
-19 6 1 26757.600 26881.200 1163.860 10.125 o
-19 6 2 1138.280 667.507 590.072 89.389 o
-19 6 3 1945.890 1616.920 582.128 86.001 o
-19 6 4 21536.700 17334.300 3222.880 2.871 o
-19 6 5 5654.410 6533.450 1876.360 8.944 o
-19 6 6 22.200 65.674 1042.730 30.592 o
-19 6 7 23489.300 23032.900 643.077 17.083 o
-19 6 8 4085.000 3987.100 445.853 103.489 o
-19 6 9 3149.620 3509.390 479.711 102.566 o
-19 6 10 469.017 243.187 473.524 142.554 o
-19 6 11 2025.670 2597.700 604.911 78.208 o
-19 7 1 806.914 1225.940 655.665 73.453 o
-19 7 2 1879.710 1469.480 586.971 85.358 o
-19 7 3 3255.270 3143.630 584.198 76.714 o
-19 7 4 6186.750 7905.560 837.983 35.382 o
-19 7 5 6284.970 6971.070 841.202 35.618 o
-19 7 6 9208.480 8997.270 858.676 30.266 o
-19 7 7 52.973 1574.200 618.822 83.993 o
-19 7 8 1798.960 670.348 1043.900 29.564 o
-19 7 9 6063.640 5449.710 510.134 72.784 o
-19 8 1 4004.700 4325.630 611.770 66.659 o
-19 8 2 200.705 -205.069 781.730 54.199 o
-19 8 3 259.123 1324.490 602.390 88.154 o
-19 8 4 2637.000 2409.600 561.228 86.325 o
-19 8 5 702.174 -63.633 597.873 90.320 o
-19 8 6 4.956 -108.895 571.167 102.016 o
-19 8 7 2820.640 2717.350 638.608 68.520 o
-18 0 2 5815.370 6196.030 703.278 47.867 o
-18 0 4 8237.070 7827.960 731.826 39.559 o
-18 0 6 17178.800 15917.100 1318.630 12.617 o
-18 0 8 737.400 1044.260 663.618 72.226 o
-18 0 10 13692.200 12756.100 1298.710 14.337 o
-18 0 12 2191.080 980.012 948.142 35.199 o
-18 0 14 49171.400 45088.500 2565.560 2.803 o
-18 1 1 369.637 328.125 390.396 207.044 o
-18 1 2 13468.700 12637.400 688.706 30.374 o
-18 1 3 134.219 296.026 396.455 206.063 o
-18 1 4 2830.680 2105.920 409.985 138.916 o
-18 1 5 7028.710 7333.620 501.029 65.582 o
-18 1 6 2763.130 2645.510 426.479 129.111 o
-18 1 7 9808.440 11021.600 627.800 40.621 o
-18 1 8 704.861 845.279 447.151 152.577 o
-18 1 9 29939.100 28543.000 978.648 10.309 o
-18 1 10 2.045 663.565 493.869 133.642 o
-18 1 11 1347.960 2120.680 796.587 49.242 o
-18 1 12 56.387 248.588 660.543 75.811 o
-18 1 13 1625.510 2117.300 995.374 32.083 o
-18 1 14 115.238 821.935 1462.050 15.513 o
-18 1 15 2117.390 1782.670 836.624 44.195 o
-18 2 1 7333.390 6961.290 519.126 62.816 o
-18 2 2 26813.400 27627.000 865.089 12.254 o
-18 2 3 75482.400 73731.100 1386.890 2.386 o
-18 2 4 1109.950 1172.440 396.322 179.660 o
-18 2 5 134437.000 131354.000 2068.620 0.831 o
-18 2 6 14640.700 13504.700 687.882 28.371 o
-18 2 7 68652.900 64999.600 1297.340 2.873 o
-18 2 8 14815.400 15043.500 792.325 24.191 o
-18 2 9 4568.640 3735.370 528.107 81.016 o
-18 2 10 1668.190 784.711 490.455 120.858 o
-18 2 11 561.476 -63.446 540.971 110.421 o
-18 2 12 1162.470 1684.760 649.122 73.127 o
-18 2 13 1076.140 442.119 619.439 82.222 o
-18 2 14 112.631 1098.950 1330.590 18.692 o
-18 2 15 937.729 1464.200 927.721 37.470 o
-18 3 1 5362.300 5885.190 409.043 95.026 o
-18 3 2 18490.100 17977.000 1224.400 13.131 o
-18 3 3 7459.490 7056.210 443.505 71.915 o
-18 3 4 19443.200 19607.900 743.728 19.604 o
-18 3 5 9055.840 8872.130 715.956 38.392 o
-18 3 6 4572.180 5135.890 552.010 73.122 o
-18 3 7 24472.400 22737.800 904.989 13.783 o
-18 3 8 23619.000 24034.800 847.750 14.475 o
-18 3 9 14275.800 12963.500 720.169 28.039 o
-18 3 10 44.874 -218.948 552.010 108.999 o
-18 3 11 525.920 150.372 584.227 94.898 o
-18 3 12 1535.970 1045.860 850.225 43.931 o
-18 3 13 2574.190 3023.370 691.412 60.088 o
-18 3 14 4999.470 3147.380 1585.550 12.564 o
-18 4 1 5566.700 5885.130 381.937 99.430 o
-18 4 2 5186.350 5814.590 431.220 91.731 o
-18 4 3 8574.640 8633.920 656.025 43.643 o
-18 4 4 109.197 293.700 285.923 388.386 o
-18 4 5 6615.270 7611.530 640.843 50.566 o
-18 4 6 19593.900 20108.700 660.365 20.722 o
-18 4 7 1621.300 774.196 642.099 74.603 o
-18 4 8 10196.100 10641.300 649.309 38.937 o
-18 4 9 4126.460 4825.980 521.123 81.945 o
-18 4 10 569.281 234.142 809.614 49.958 o
-18 4 11 1747.310 2433.750 817.778 46.161 o
-18 4 12 1219.510 913.883 637.620 76.628 o
-18 4 13 5394.640 3547.480 744.830 47.147 o
-18 4 14 4973.160 3706.380 743.367 47.914 o
-18 5 1 7149.210 7554.900 690.635 44.915 o
-18 5 2 113.893 11.138 541.342 112.887 o
-18 5 3 3673.480 3785.670 655.162 61.710 o
-18 5 4 2144.540 1566.690 554.693 92.639 o
-18 5 5 241.958 519.269 514.594 122.088 o
-18 5 6 14088.600 13361.600 531.434 34.982 o
-18 5 7 6.093 54.045 308.504 347.913 o
-18 5 8 3398.970 3227.760 451.006 110.823 o
-18 5 9 1914.440 1910.770 473.711 121.097 o
-18 5 10 15940.200 14684.600 783.223 23.586 o
-18 5 11 219.329 43.152 725.996 62.715 o
-18 5 12 1894.380 1793.260 658.194 69.043 o
-18 5 13 2679.660 1666.470 724.871 56.509 o
-18 6 1 8419.200 8269.550 754.760 37.408 o
-18 6 2 18518.100 20278.000 1177.620 13.343 o
-18 6 3 2096.210 2057.790 539.546 96.004 o
-18 6 4 2320.020 2368.380 555.831 89.386 o
-18 6 5 2035.500 1951.070 545.910 94.748 o
-18 6 6 4947.420 5868.120 650.957 55.977 o
-18 6 7 31422.700 29513.200 693.672 11.370 o
-18 6 8 17893.100 18062.800 679.507 22.729 o
-18 6 9 21756.500 22915.600 869.540 15.383 o
-18 6 10 49.225 -92.659 505.161 130.064 o
-18 6 11 677.182 162.407 671.157 71.977 o
-18 6 12 3754.380 3240.810 807.999 43.892 o
-18 7 1 422.498 519.229 515.856 120.223 o
-18 7 2 185.409 -979.847 483.121 140.897 o
-18 7 3 33439.700 35030.900 1185.940 7.733 o
-18 7 4 533.800 -178.304 545.780 108.698 o
-18 7 5 45987.200 50058.000 1415.870 4.618 o
-18 7 6 1464.650 1094.580 535.850 103.663 o
-18 7 7 22412.800 21889.400 1597.580 8.385 o
-18 7 8 31.009 691.549 377.057 224.872 o
-18 7 9 1028.850 1105.240 451.958 144.466 o
-18 7 10 138.704 1785.480 766.038 55.167 o
-18 8 1 3988.710 4587.130 807.012 42.715 o
-18 8 2 5695.350 5541.270 570.477 64.877 o
-18 8 3 4313.220 3580.160 575.302 73.246 o
-18 8 4 5473.770 5938.270 577.199 63.999 o
-18 8 5 8777.200 8859.530 1021.520 23.993 o
-18 8 6 4525.200 3971.630 909.928 34.607 o
-18 8 7 2236.360 1499.160 601.249 80.346 o
-18 8 8 1715.150 3130.260 623.405 74.397 o
-17 0 2 588.807 721.066 713.098 63.562 o
-17 0 4 2789.420 1732.750 673.260 64.023 o
-17 0 6 17274.500 16373.400 1481.970 10.689 o
-17 0 8 7755.660 9615.360 819.721 33.541 o
-17 0 10 6998.360 7421.050 1549.690 12.521 o
-17 0 12 2612.640 1561.640 1155.300 23.848 o
-17 0 14 3523.820 4182.980 1346.520 17.297 o
-17 1 1 21620.500 22102.500 810.492 16.420 o
-17 1 2 1192.880 358.248 368.411 210.440 o
-17 1 3 22542.800 22179.800 759.052 16.535 o
-17 1 4 2481.430 1941.180 392.049 154.058 o
-17 1 5 12511.000 13033.700 675.723 31.929 o
-17 1 6 357.032 372.948 446.649 160.022 o
-17 1 7 13580.700 13112.300 839.515 24.784 o
-17 1 8 8454.750 8382.560 639.605 45.439 o
-17 1 9 153.497 320.928 423.528 180.676 o
-17 1 10 10663.700 11641.700 997.454 22.671 o
-17 1 11 1643.940 1158.490 603.955 82.663 o
-17 1 12 3616.330 3202.970 1115.460 24.730 o
-17 1 13 624.241 -1447.970 759.579 56.729 o
-17 1 14 24506.100 29704.000 1678.880 7.106 o
-17 1 15 2753.210 2510.700 905.174 37.252 o
-17 2 1 1611.070 1812.340 404.521 160.660 o
-17 2 2 1117.950 913.631 374.120 200.528 o
-17 2 3 2202.070 2512.100 401.179 148.977 o
-17 2 4 4589.340 4500.730 435.868 100.116 o
-17 2 5 2569.560 1539.160 388.642 157.713 o
-17 2 6 21201.800 21289.500 777.460 17.349 o
-17 2 7 40660.000 41939.000 1027.750 6.528 o
-17 2 8 1737.370 2184.730 438.042 137.799 o
-17 2 9 12962.000 12124.500 704.506 30.762 o
-17 2 10 2436.620 3448.770 711.520 57.015 o
-17 2 11 8889.700 8747.010 868.851 30.238 o
-17 2 12 3049.200 3160.810 640.906 66.728 o
-17 2 13 23796.700 26347.900 1556.210 8.115 o
-17 2 14 527.263 884.868 957.009 35.739 o
-17 2 15 447.410 1847.950 965.390 34.878 o
-17 3 1 7122.460 7267.690 438.170 73.885 o
-17 3 2 727.166 878.729 308.173 292.337 o
-17 3 3 13239.200 13352.300 771.123 27.233 o
-17 3 4 284.447 775.279 494.544 130.445 o
-17 3 5 2736.090 3036.000 331.831 175.418 o
-17 3 6 16131.600 15617.400 706.307 24.987 o
-17 3 7 24635.400 25435.300 831.768 13.862 o
-17 3 8 31.613 -514.070 506.009 129.766 o
-17 3 9 1558.210 1581.150 467.594 128.543 o
-17 3 10 16548.400 16851.700 992.832 17.743 o
-17 3 11 10890.900 8783.510 1121.920 19.784 o
-17 3 12 3194.150 3225.390 647.553 65.080 o
-17 3 13 3516.030 3261.770 706.669 55.526 o
-17 3 14 2262.310 2525.720 1505.870 14.277 o
-17 3 15 18.161 1259.430 882.511 42.188 o
-17 4 1 5460.130 5709.880 393.886 98.361 o
-17 4 2 102.285 340.028 348.205 265.334 o
-17 4 3 812.717 649.694 254.625 399.923 o
-17 4 4 148.306 -255.020 244.106 538.064 o
-17 4 5 2889.580 2353.320 302.704 199.161 o
-17 4 6 2556.720 2231.390 347.391 177.351 o
-17 4 7 13949.200 15431.400 745.048 26.233 o
-17 4 8 1646.880 1661.830 459.615 131.034 o
-17 4 9 1968.030 1675.470 449.214 132.619 o
-17 4 10 12368.400 13354.500 1032.680 20.135 o
-17 4 11 406.045 295.542 593.305 92.287 o
-17 4 12 56.523 70.632 1362.460 17.919 o
-17 4 13 166.867 -646.029 783.270 54.033 o
-17 4 14 77.691 -382.590 961.558 35.957 o
-17 5 1 13025.800 14336.400 1540.590 11.043 o
-17 5 2 995.853 818.210 533.032 108.376 o
-17 5 3 181.196 59.542 559.649 105.190 o
-17 5 4 4715.270 5215.460 717.309 49.683 o
-17 5 5 6101.100 5821.190 461.606 79.857 o
-17 5 6 2151.460 1933.770 387.910 161.619 o
-17 5 7 20509.000 20104.700 629.769 20.476 o
-17 5 8 15.732 -93.528 397.851 209.989 o
-17 5 9 250.569 624.959 450.710 157.033 o
-17 5 10 289.599 176.047 532.795 114.889 o
-17 5 11 1403.500 813.252 584.724 89.442 o
-17 5 12 503.030 -452.663 606.791 88.516 o
-17 5 13 1883.370 551.943 646.870 73.133 o
-17 6 1 34898.800 36433.600 1192.190 7.338 o
-17 6 2 314.066 359.224 691.256 68.557 o
-17 6 3 34557.800 35712.600 1194.600 7.445 o
-17 6 4 1594.000 1292.790 489.384 119.846 o
-17 6 5 6456.440 6699.400 625.860 53.709 o
-17 6 6 9791.200 8778.030 681.881 39.372 o
-17 6 7 123.082 498.470 390.760 210.044 o
-17 6 8 788.503 1330.720 473.848 133.997 o
-17 6 9 4654.480 4634.980 879.766 36.182 o
-17 6 10 8583.200 7437.980 690.864 42.215 o
-17 6 11 13139.400 11886.900 1046.190 19.779 o
-17 6 12 1605.960 2202.360 675.049 66.185 o
-17 7 1 12876.400 12153.100 784.438 27.790 o
-17 7 2 831.197 67.156 517.248 118.320 o
-17 7 3 331.606 -1124.500 596.944 92.087 o
-17 7 4 10330.100 7679.690 1466.030 13.161 o
-17 7 5 4561.290 5653.890 664.076 55.642 o
-17 7 6 3549.400 2973.980 565.425 79.785 o
-17 7 7 28286.200 26998.800 806.588 12.264 o
-17 7 8 39.516 -365.091 404.381 202.821 o
-17 7 9 20024.500 17436.300 1076.640 14.649 o
-17 7 10 4132.710 4537.630 1268.590 19.127 o
-17 7 11 571.486 83.876 708.885 64.994 o
-17 8 1 5624.010 5876.520 541.648 68.800 o
-17 8 2 2.144 119.813 709.804 65.948 o
-17 8 3 1509.570 1580.850 532.239 103.165 o
-17 8 4 807.869 630.714 608.765 85.629 o
-17 8 5 409.963 372.593 495.333 130.678 o
-17 8 6 670.066 795.790 516.773 117.101 o
-17 8 7 6644.380 6725.550 656.384 50.038 o
-17 8 8 209.584 549.090 577.612 97.560 o
-17 8 9 51.271 -1043.200 421.708 186.363 o
-17 9 1 3408.430 3346.760 994.153 30.626 o
-17 9 2 50.537 -156.988 928.223 38.601 o
-17 9 3 524.547 90.858 816.686 49.248 o
-17 9 4 163.805 1049.100 1904.250 9.153 o
-17 9 5 1480.160 -90.658 832.908 46.357 o
-17 9 6 527.973 -124.661 496.970 130.411 o
-16 0 2 2745.490 2869.130 567.175 83.283 o
-16 0 4 31527.400 32285.700 2728.890 3.319 o
-16 0 6 13415.200 13566.100 937.427 21.899 o
-16 0 8 593.109 1057.560 599.835 88.079 o
-16 0 10 4955.770 4993.840 738.150 47.292 o
-16 0 12 10261.900 11951.400 1458.070 12.858 o
-16 0 14 27341.100 29121.500 2438.080 4.152 o
-16 0 16 185.537 725.049 1282.780 20.125 o
-16 1 1 11.938 -4.417 360.862 255.273 o
-16 1 2 8966.390 8480.610 785.464 34.645 o
-16 1 3 28286.000 27727.700 794.596 12.213 o
-16 1 4 458.498 675.237 355.871 238.968 o
-16 1 5 12580.700 11602.800 633.572 34.755 o
-16 1 6 8627.570 9370.960 548.160 51.347 o
-16 1 7 370.638 417.853 367.336 231.093 o
-16 1 8 11997.800 11372.100 629.365 36.133 o
-16 1 9 733.271 1337.530 434.179 157.395 o
-16 1 10 162.761 -474.166 508.015 127.747 o
-16 1 11 25382.300 25193.500 2203.030 5.035 o
-16 1 12 843.115 571.925 728.115 60.700 o
-16 1 13 21900.500 25434.500 1564.130 8.420 o
-16 1 14 208.250 -390.411 816.395 49.706 o
-16 1 15 65.360 404.247 779.552 54.407 o
-16 1 16 2670.350 2015.240 961.980 33.539 o
-16 2 1 30689.000 29271.000 837.474 10.839 o
-16 2 2 24933.400 24920.400 825.715 13.902 o
-16 2 3 13814.500 13973.800 571.057 33.394 o
-16 2 4 13734.600 14558.700 647.112 30.262 o
-16 2 5 93939.100 92647.200 1553.970 1.614 o
-16 2 6 862.209 1303.540 427.808 160.058 o
-16 2 7 15375.800 14554.100 1088.300 17.079 o
-16 2 8 15753.400 15101.300 739.273 24.738 o
-16 2 9 1299.280 2161.510 678.026 66.492 o
-16 2 10 9469.780 9840.640 796.422 32.543 o
-16 2 11 3052.970 3090.850 689.083 59.208 o
-16 2 12 684.356 458.511 767.186 55.188 o
-16 2 13 2935.190 3573.410 886.258 38.015 o
-16 2 14 24.862 -5.969 948.142 37.014 o
-16 2 15 2740.730 3107.890 955.132 33.529 o
-16 3 1 6105.060 6212.570 379.935 93.999 o
-16 3 2 62665.600 62044.300 1019.050 3.454 o
-16 3 3 7148.910 7306.730 746.363 40.739 o
-16 3 4 5096.620 4452.310 328.526 126.378 o
-16 3 5 5977.750 5754.510 362.481 100.726 o
-16 3 6 10747.000 13167.700 929.217 24.243 o
-16 3 7 476.368 797.042 371.041 219.527 o
-16 3 8 14401.400 15647.100 736.703 25.901 o
-16 3 9 744.584 267.178 520.804 116.696 o
-16 3 10 12144.200 11820.400 811.189 27.748 o
-16 3 11 15352.300 13874.200 1099.880 17.023 o
-16 3 12 11629.500 10060.600 787.560 30.233 o
-16 3 13 12550.200 14809.700 1904.250 7.822 o
-16 3 14 84.962 1601.480 1338.550 18.433 o
-16 3 15 1031.640 1124.820 1326.600 18.636 o
-16 4 1 542.766 783.695 495.980 127.561 o
-16 4 2 5345.680 4446.200 401.880 102.829 o
-16 4 3 18994.000 16332.500 636.361 23.412 o
-16 4 4 6965.760 6992.360 505.624 65.968 o
-16 4 5 30.553 515.830 315.981 319.129 o
-16 4 6 3638.150 4121.640 401.001 121.385 o
-16 4 7 1667.860 1826.210 380.647 175.489 o
-16 4 8 667.840 1368.740 427.264 162.647 o
-16 4 9 479.531 756.003 591.177 91.662 o
-16 4 10 12573.500 12090.400 934.386 23.113 o
-16 4 11 287.743 -440.348 823.929 48.716 o
-16 4 12 1066.180 38.491 584.202 92.776 o
-16 4 13 374.960 1039.920 683.707 69.098 o
-16 4 14 11731.500 7897.650 1049.360 21.600 o
-16 4 15 2125.550 1187.170 1306.680 18.969 o
-16 5 1 386.417 599.497 475.563 140.453 o
-16 5 2 1303.180 1558.150 498.470 117.310 o
-16 5 3 13596.000 13711.900 927.643 21.985 o
-16 5 4 7849.050 7445.550 605.185 51.047 o
-16 5 5 1728.130 1859.300 479.148 120.662 o
-16 5 6 3562.440 3593.180 321.073 159.833 o
-16 5 7 319.208 711.185 328.152 281.283 o
-16 5 8 865.795 433.971 614.111 84.360 o
-16 5 9 12023.000 12256.300 802.504 27.974 o
-16 5 10 2124.860 1663.270 796.721 48.456 o
-16 5 11 14259.200 15435.200 975.737 19.793 o
-16 5 12 3157.560 3791.290 633.887 66.613 o
-16 5 13 10403.900 9910.750 863.920 28.371 o
-16 5 14 13942.600 12200.800 941.114 21.907 o
-16 6 1 286.042 221.850 503.624 128.122 o
-16 6 2 32073.000 33325.500 1128.120 8.414 o
-16 6 3 16.412 -158.958 503.016 131.432 o
-16 6 4 4879.810 6036.390 638.528 57.481 o
-16 6 5 88.963 -103.748 472.346 148.296 o
-16 6 6 11095.200 10793.500 556.682 42.481 o
-16 6 7 2409.810 2754.790 327.538 188.337 o
-16 6 8 15639.400 16232.500 709.105 25.101 o
-16 6 9 695.111 179.944 504.047 124.892 o
-16 6 10 5111.360 5882.210 672.750 52.977 o
-16 6 11 20386.400 23155.100 1441.960 9.787 o
-16 6 12 192.401 -276.508 601.062 91.392 o
-16 6 13 7442.020 8233.380 1369.720 15.400 o
-16 7 1 32589.800 32525.800 1585.510 6.391 o
-16 7 2 1202.550 1789.220 645.203 73.670 o
-16 7 3 61.503 -708.878 443.307 168.582 o
-16 7 4 849.891 512.570 560.260 100.340 o
-16 7 5 21848.100 20978.000 958.095 14.694 o
-16 7 6 372.677 -194.939 588.808 94.438 o
-16 7 7 4194.790 4549.750 441.655 101.517 o
-16 7 8 1.462 48.170 442.374 169.766 o
-16 7 9 5429.690 5488.790 599.238 61.838 o
-16 7 10 3533.710 3352.090 607.300 70.762 o
-16 7 11 4230.130 2685.660 655.275 61.675 o
-16 7 12 3236.750 3405.960 675.488 60.355 o
-16 8 1 2490.480 1123.940 2091.490 7.517 o
-16 8 2 698.725 -358.541 1043.750 30.249 o
-16 8 3 2983.390 1885.920 824.214 44.279 o
-16 8 4 1651.640 2003.010 709.134 60.626 o
-16 8 5 3119.920 4607.360 750.696 49.664 o
-16 8 6 81.633 82.429 463.957 153.303 o
-16 8 7 3382.970 3935.140 543.717 83.095 o
-16 8 8 706.374 1036.280 453.250 147.731 o
-16 8 9 3015.030 3045.030 793.514 46.513 o
-16 8 10 42.549 -1038.870 755.673 58.228 o
-16 9 1 54.832 1475.610 960.473 35.599 o
-16 9 2 998.837 -159.352 856.921 44.364 o
-16 9 3 64.215 -289.470 791.431 53.062 o
-16 9 4 679.093 -265.469 768.644 55.338 o
-16 9 5 6.770 196.184 2067.590 7.784 o
-16 9 6 37.525 -571.307 468.172 151.478 o
-16 9 7 54.722 96.667 1318.590 19.128 o
-15 0 2 29930.300 32472.600 1208.000 8.525 o
-15 0 4 3654.400 4420.930 572.854 74.689 o
-15 0 6 42693.000 39959.800 1299.650 5.686 o
-15 0 8 15783.100 16834.500 1063.690 16.821 o
-15 0 10 3906.040 5505.600 1051.720 26.762 o
-15 0 12 8274.600 9409.710 1370.420 15.038 o
-15 0 14 15812.000 14827.700 1736.930 8.733 o
-15 0 16 543.487 1784.740 1322.620 18.776 o
-15 1 1 4771.570 5142.700 545.110 73.457 o
-15 1 2 2310.420 2438.510 368.238 166.775 o
-15 1 3 10676.100 10570.500 558.138 43.625 o
-15 1 4 14027.100 13770.800 662.412 29.855 o
-15 1 5 35755.500 35123.100 865.604 8.568 o
-15 1 6 159.407 324.748 354.742 254.435 o
-15 1 7 3766.980 3846.820 431.455 111.192 o
-15 1 8 23335.000 22775.400 801.649 15.431 o
-15 1 9 101.328 -643.721 455.267 159.411 o
-15 1 10 34686.800 34731.100 1385.640 6.756 o
-15 1 11 2157.870 2926.930 794.324 47.768 o
-15 1 12 10562.700 11084.100 1015.080 22.373 o
-15 1 13 5366.950 5413.110 939.776 31.418 o
-15 1 14 1662.560 368.009 822.495 47.055 o
-15 1 15 31.710 -509.925 1394.330 17.118 o
-15 1 16 5488.260 5114.450 1040.630 26.451 o
-15 2 1 31511.800 31700.500 834.430 10.239 o
-15 2 2 9767.570 9220.150 461.483 55.379 o
-15 2 3 83293.400 80456.100 1282.030 2.081 o
-15 2 4 4189.710 3651.170 355.949 134.234 o
-15 2 5 709.322 661.336 339.212 252.555 o
-15 2 6 14586.400 14618.500 662.412 28.589 o
-15 2 7 23638.200 23990.200 793.918 15.055 o
-15 2 8 798.650 469.021 389.524 197.728 o
-15 2 9 13082.700 14701.600 906.184 22.585 o
-15 2 10 185.178 -824.823 755.927 57.966 o
-15 2 11 4727.540 4771.450 784.894 43.465 o
-15 2 12 1739.090 2396.900 795.606 48.608 o
-15 2 13 5613.830 4324.310 1139.360 22.705 o
-15 2 14 28.395 230.110 846.199 46.346 o
-15 2 15 2567.090 884.986 1669.210 11.723 o
-15 2 16 18.549 -705.554 926.665 38.753 o
-15 3 1 31289.900 31658.600 737.455 10.820 o
-15 3 2 57540.200 55040.200 911.018 4.141 o
-15 3 3 8381.680 8484.100 474.836 60.727 o
-15 3 4 1156.920 1784.290 272.314 305.874 o
-15 3 5 20099.200 18687.600 563.076 22.579 o
-15 3 6 7265.450 6626.610 374.918 84.636 o
-15 3 7 46181.700 42554.800 984.930 5.823 o
-15 3 8 2.286 229.551 384.886 222.022 o
-15 3 9 23026.200 22297.000 1000.050 13.447 o
-15 3 10 3564.040 3852.430 995.947 30.255 o
-15 3 11 4755.890 5055.460 702.269 51.404 o
-15 3 12 1239.580 16.594 735.121 59.369 o
-15 3 13 318.439 -1403.490 770.862 55.558 o
-15 3 14 1465.790 0.000 1187.170 23.222 o
-15 3 15 3252.690 3236.290 918.123 35.542 o
-15 4 1 5046.950 5234.810 407.107 100.690 o
-15 4 2 1994.730 2485.470 487.647 112.564 o
-15 4 3 1911.810 2049.810 278.628 257.133 o
-15 4 4 3194.150 3396.600 377.821 140.512 o
-15 4 5 264.525 -40.617 315.106 321.994 o
-15 4 6 11516.200 10819.100 550.293 41.873 o
-15 4 7 9479.170 9111.860 528.389 50.887 o
-15 4 8 15105.600 15618.600 851.293 22.146 o
-15 4 9 934.377 792.072 536.359 107.586 o
-15 4 10 3781.470 3721.100 595.492 71.335 o
-15 4 11 7348.130 6316.140 1201.400 19.654 o
-15 4 12 7558.320 7717.670 791.314 36.711 o
-15 4 13 2598.610 3630.770 885.948 38.345 o
-15 4 14 5213.740 3306.540 985.937 29.847 o
-15 4 15 1141.190 4230.960 1041.380 29.129 o
-15 5 1 6681.200 5774.010 579.409 59.826 o
-15 5 2 1956.770 2361.620 490.901 112.131 o
-15 5 3 20450.600 19168.200 876.592 16.954 o
-15 5 4 29.362 711.754 443.980 163.891 o
-15 5 5 258.614 2.412 287.114 385.055 o
-15 5 6 27842.700 28171.800 644.414 13.363 o
-15 5 7 6294.600 6858.860 387.327 88.637 o
-15 5 8 14862.400 14350.500 1076.290 17.601 o
-15 5 9 6120.530 5511.640 603.547 59.023 o
-15 5 10 4.899 38.237 519.822 123.026 o
-15 5 11 18134.700 19134.100 1064.230 15.256 o
-15 5 12 943.405 494.468 615.388 83.636 o
-15 5 13 1530.860 1738.340 667.589 68.357 o
-15 5 14 279.741 1221.850 845.536 45.653 o
-15 6 1 961.475 23.689 481.870 134.328 o
-15 6 2 21504.700 21261.900 1593.520 8.595 o
-15 6 3 294.234 31.116 473.248 145.514 o
-15 6 4 30536.800 29501.500 1150.800 9.020 o
-15 6 5 13637.100 15046.100 1290.940 14.135 o
-15 6 6 14967.100 13776.000 604.617 30.565 o
-15 6 7 1446.920 1431.350 329.174 229.334 o
-15 6 8 5044.560 4512.510 531.544 76.102 o
-15 6 9 859.875 419.017 507.734 121.034 o
-15 6 10 2377.650 1447.960 649.275 69.829 o
-15 6 11 969.604 886.332 605.678 85.351 o
-15 6 12 1013.410 1412.170 628.829 78.499 o
-15 6 13 49.446 -1877.930 645.104 79.845 o
-15 7 1 18027.100 17701.900 808.104 20.136 o
-15 7 2 14020.000 14341.800 741.519 26.848 o
-15 7 3 51713.600 49293.300 1552.590 3.992 o
-15 7 4 7325.400 8256.560 1161.100 20.423 o
-15 7 5 230.935 565.845 492.317 132.927 o
-15 7 6 3769.580 4510.510 568.809 74.793 o
-15 7 7 23689.500 21632.000 613.356 17.752 o
-15 7 8 1493.230 671.352 678.439 67.811 o
-15 7 9 9560.880 10678.600 726.292 35.560 o
-15 7 10 1504.590 2076.800 580.160 87.453 o
-15 7 11 18331.700 17729.700 1103.390 14.884 o
-15 7 12 4106.970 2962.910 715.589 53.450 o
-15 8 1 1846.980 -117.094 757.518 55.042 o
-15 8 2 177.728 579.439 940.174 37.351 o
-15 8 3 251.509 1067.880 807.536 50.088 o
-15 8 4 2199.270 2369.090 442.232 129.768 o
-15 8 5 7574.290 7702.410 647.399 47.554 o
-15 8 6 159.447 792.628 465.134 147.899 o
-15 8 7 11779.800 11747.900 501.633 42.927 o
-15 8 8 2839.480 3224.530 630.688 69.086 o
-15 8 9 4641.840 3002.640 768.871 46.514 o
-15 8 10 10994.500 12348.200 889.112 25.742 o
-15 8 11 1481.520 2651.440 840.579 44.043 o
-15 9 1 12.606 1466.240 892.644 41.166 o
-15 9 2 1936.400 2714.580 1545.710 13.597 o
-15 9 3 96.030 -1061.150 772.855 55.594 o
-15 9 4 2459.950 4159.660 1254.890 20.043 o
-15 9 5 134.100 1489.940 876.118 42.589 o
-15 9 6 6730.540 7336.730 571.546 58.035 o
-15 9 7 3998.480 4534.550 403.067 114.755 o
-15 9 8 529.767 321.590 667.329 72.962 o
-14 0 2 70491.600 76901.400 1864.840 2.244 o
-14 0 4 77129.900 88811.500 2060.890 1.832 o
-14 0 6 4238.520 3591.200 876.433 37.407 o
-14 0 8 116374.000 119904.000 2726.660 0.937 o
-14 0 10 31926.900 31950.000 1888.320 5.394 o
-14 0 12 2647.990 2461.980 1067.660 27.481 o
-14 0 14 7046.890 8405.790 1497.900 13.217 o
-14 0 16 31156.700 35312.300 2589.460 3.543 o
-14 1 1 6933.900 7281.390 453.611 72.623 o
-14 1 2 1686.480 1431.490 341.995 210.280 o
-14 1 3 12195.400 14451.800 1091.370 18.541 o
-14 1 4 1398.780 1334.000 334.918 226.211 o
-14 1 5 27269.500 26913.300 758.670 13.045 o
-14 1 6 3854.820 3916.590 413.647 115.844 o
-14 1 7 68126.900 68098.200 1266.950 2.847 o
-14 1 8 37568.400 38534.600 1114.470 7.011 o
-14 1 9 813.402 83.135 577.457 95.907 o
-14 1 10 8810.520 9019.260 822.553 32.487 o
-14 1 11 3826.670 4614.570 762.245 47.198 o
-14 1 12 6465.700 6871.340 875.953 33.343 o
-14 1 13 545.715 601.218 1768.800 10.594 o
-14 1 14 3596.960 4069.450 950.884 32.765 o
-14 1 15 6470.990 5602.640 1450.100 14.383 o
-14 1 16 2252.370 2064.560 1242.940 20.756 o
-14 2 1 543.210 534.481 321.867 285.756 o
-14 2 2 157.161 -115.078 267.336 450.544 o
-14 2 3 1542.360 1857.870 291.982 260.215 o
-14 2 4 4079.500 3839.900 320.470 148.880 o
-14 2 5 7441.040 7878.080 404.378 75.166 o
-14 2 6 3271.530 3527.800 387.557 134.390 o
-14 2 7 1594.520 2355.020 409.960 153.676 o
-14 2 8 427.280 922.366 449.651 153.844 o
-14 2 9 19329.600 18020.000 924.132 17.138 o
-14 2 10 160.827 -43.069 605.674 90.136 o
-14 2 11 26687.200 28929.300 1828.560 6.217 o
-14 2 12 85.046 727.176 849.170 45.720 o
-14 2 13 657.813 1281.600 856.301 44.124 o
-14 2 14 182.811 -1136.290 796.469 52.244 o
-14 2 15 1354.420 1168.260 902.023 39.335 o
-14 2 16 767.239 1395.030 1006.720 32.083 o
-14 3 1 5753.850 6216.700 351.096 103.196 o
-14 3 2 179.917 273.238 240.758 529.458 o
-14 3 3 10549.900 10879.700 427.526 52.381 o
-14 3 4 797.370 594.341 248.830 418.275 o
-14 3 5 4836.090 5220.550 335.604 122.618 o
-14 3 6 9.737 -169.890 317.367 330.014 o
-14 3 7 6735.180 7463.680 477.667 69.745 o
-14 3 8 5684.190 7015.160 971.784 28.857 o
-14 3 9 8827.050 9201.590 662.342 42.096 o
-14 3 10 8778.490 7174.510 677.345 43.103 o
-14 3 11 19930.600 20628.100 1641.320 8.530 o
-14 3 12 76.638 394.325 774.739 55.072 o
-14 3 13 6145.890 4836.950 947.200 30.604 o
-14 3 14 14.837 -685.212 1107.490 27.135 o
-14 3 15 13286.500 11428.700 1736.930 9.243 o
-14 3 16 2232.420 2356.150 935.181 35.562 o
-14 4 1 15736.800 15990.100 827.831 22.084 o
-14 4 2 12455.900 12604.600 1186.850 16.794 o
-14 4 3 1249.840 1305.660 430.488 153.198 o
-14 4 4 10311.800 11428.100 693.737 35.584 o
-14 4 5 30202.800 29515.700 783.594 11.279 o
-14 4 6 1245.500 1496.370 287.443 286.299 o
-14 4 7 19278.600 20592.000 724.084 19.698 o
-14 4 8 14628.200 13457.300 782.423 25.401 o
-14 4 9 1546.080 2257.560 545.617 96.676 o
-14 4 10 301.099 167.319 780.822 54.069 o
-14 4 11 18891.100 19350.300 1824.690 7.511 o
-14 4 12 989.503 435.260 702.256 64.920 o
-14 4 13 1242.830 1508.320 861.770 42.878 o
-14 4 14 2743.100 3480.970 1422.210 15.795 o
-14 4 15 440.132 207.522 1007.900 32.496 o
-14 5 1 16472.500 16264.600 815.488 21.688 o
-14 5 2 4359.410 5906.450 532.631 75.846 o
-14 5 3 5804.270 4696.080 496.914 78.227 o
-14 5 4 26919.500 26471.000 1672.640 7.041 o
-14 5 5 37184.000 37726.500 1138.520 7.056 o
-14 5 6 131.370 247.618 336.966 283.330 o
-14 5 7 26226.400 26517.700 697.155 14.093 o
-14 5 8 4318.330 4486.800 601.200 67.022 o
-14 5 9 11750.700 11723.700 1131.630 18.467 o
-14 5 10 1368.700 1815.150 638.854 74.458 o
-14 5 11 10673.700 11195.400 1252.840 16.366 o
-14 5 12 278.861 -750.752 612.889 87.613 o
-14 5 13 6398.850 6423.900 942.432 29.984 o
-14 5 14 1066.540 2574.970 1101.340 26.559 o
-14 6 1 23571.900 25211.600 902.011 13.673 o
-14 6 2 5497.870 6240.560 587.346 61.981 o
-14 6 3 9334.050 9506.140 832.136 31.128 o
-14 6 4 3927.200 3768.560 747.458 49.323 o
-14 6 5 3883.050 4292.610 631.452 63.971 o
-14 6 6 10.720 -35.508 296.805 377.178 o
-14 6 7 9062.210 8686.580 547.977 51.093 o
-14 6 8 13522.500 11957.800 1277.390 14.862 o
-14 6 9 3940.890 4283.090 592.577 70.210 o
-14 6 10 4787.910 5674.160 794.677 41.857 o
-14 6 11 7189.370 7820.710 718.679 42.329 o
-14 6 12 782.624 683.146 606.566 86.218 o
-14 6 13 980.090 1697.530 686.549 66.316 o
-14 6 14 777.642 2047.670 1386.360 17.053 o
-14 7 1 1012.880 486.899 381.951 200.131 o
-14 7 2 21495.700 20524.100 824.340 16.746 o
-14 7 3 2968.670 1169.750 773.276 50.250 o
-14 7 4 349.968 -143.135 416.977 185.652 o
-14 7 5 1576.760 2075.330 456.191 131.284 o
-14 7 6 264.179 -141.887 400.207 202.669 o
-14 7 7 1134.100 1280.860 326.332 244.544 o
-14 7 8 115.771 -1.728 472.954 147.646 o
-14 7 9 26.191 931.472 782.943 53.631 o
-14 7 10 1880.350 2334.090 597.028 81.093 o
-14 7 11 9144.700 8633.120 824.634 32.214 o
-14 7 12 2054.800 3044.080 735.375 54.952 o
-14 8 1 1063.250 1221.690 922.677 37.864 o
-14 8 2 169.029 -37.776 1003.910 32.944 o
-14 8 3 3297.000 4202.340 956.109 32.627 o
-14 8 4 254.922 -150.689 839.398 46.983 o
-14 8 5 601.106 839.447 335.652 257.891 o
-14 8 6 9.802 -157.990 332.384 300.903 o
-14 8 7 5483.970 5965.980 738.421 45.417 o
-14 8 8 2154.470 3070.040 666.087 65.137 o
-14 8 9 1818.090 1671.320 571.443 89.301 o
-14 8 10 1292.090 2447.960 952.584 35.005 o
-14 8 11 666.849 -721.843 643.623 78.366 o
-14 9 1 102.820 953.708 822.322 48.573 o
-14 9 2 508.570 1463.980 846.188 45.216 o
-14 9 3 88.974 -806.048 729.447 62.402 o
-14 9 4 313.130 34.748 810.347 50.301 o
-14 9 5 459.051 -206.607 734.823 60.841 o
-14 9 6 563.351 69.284 233.208 521.793 o
-14 9 7 228.910 1533.520 542.740 107.189 o
-14 9 8 12574.800 9089.780 1084.260 19.860 o
-14 9 9 464.591 166.806 592.023 92.702 o
-14 10 1 761.197 213.776 775.922 54.048 o
-14 10 2 842.139 232.324 746.568 58.123 o
-14 10 3 514.429 -890.615 1322.620 18.942 o
-14 10 4 415.264 770.217 908.304 39.736 o
-14 10 5 2597.640 3139.910 2139.290 7.152 o
-13 0 2 5068.510 6107.050 573.678 65.677 o
-13 0 4 15530.500 15780.400 862.484 21.488 o
-13 0 6 558.125 823.676 498.006 126.299 o
-13 0 8 5376.530 6915.860 972.044 29.115 o
-13 0 10 5981.580 9027.260 1227.010 18.962 o
-13 0 12 10375.800 9098.970 1362.460 14.691 o
-13 0 14 2578.800 3537.600 1370.420 16.986 o
-13 0 16 23845.100 28444.200 2461.980 4.254 o
-13 1 1 14036.500 13722.600 527.326 34.910 o
-13 1 2 5769.840 5784.190 371.467 100.456 o
-13 1 3 14368.400 14555.900 561.799 32.365 o
-13 1 4 1081.540 1457.040 315.932 255.887 o
-13 1 5 741.857 588.048 331.841 262.547 o
-13 1 6 13348.700 14136.900 639.191 31.389 o
-13 1 7 563.757 494.332 349.333 246.698 o
-13 1 8 25928.100 28510.000 983.975 11.478 o
-13 1 9 1887.940 1739.560 596.479 82.387 o
-13 1 10 4246.410 4329.410 661.106 58.565 o
-13 1 11 10027.000 9270.380 878.026 28.448 o
-13 1 12 33416.000 31161.000 1756.850 5.744 o
-13 1 13 7342.200 6389.000 983.482 27.317 o
-13 1 14 4026.840 5171.770 944.037 32.389 o
-13 1 15 4276.480 4797.080 1266.840 19.098 o
-13 1 16 1739.540 3591.550 1932.140 8.766 o
-13 2 1 73918.600 73677.100 1269.740 2.498 o
-13 2 2 5097.080 5541.730 332.208 118.499 o
-13 2 3 57491.000 53753.200 879.368 4.227 o
-13 2 4 756.084 500.303 267.684 379.029 o
-13 2 5 125572.000 118973.000 1593.810 0.998 o
-13 2 6 10346.000 9494.060 549.800 46.327 o
-13 2 7 28646.900 30591.900 967.946 10.453 o
-13 2 8 1497.060 2620.470 465.026 125.383 o
-13 2 9 2138.850 2742.640 635.089 71.292 o
-13 2 10 2664.620 1372.320 627.709 73.276 o
-13 2 11 47.098 -588.375 896.352 41.395 o
-13 2 12 3102.610 3660.800 888.781 37.613 o
-13 2 13 6951.590 8620.160 977.377 27.050 o
-13 2 14 4202.300 4087.570 977.377 30.755 o
-13 2 15 419.408 -431.164 833.593 47.459 o
-13 2 16 44.139 1078.960 968.250 35.163 o
-13 3 1 79511.100 78340.000 1312.110 2.213 o
-13 3 2 1194.900 1602.770 394.828 175.586 o
-13 3 3 61209.700 58634.700 896.005 3.749 o
-13 3 4 8456.690 8292.610 397.389 69.369 o
-13 3 5 5094.260 4572.330 311.916 130.883 o
-13 3 6 6132.870 6475.610 375.802 93.543 o
-13 3 7 2075.350 2090.100 443.840 131.820 o
-13 3 8 13409.100 14793.200 812.287 25.015 o
-13 3 9 3729.390 3775.630 553.079 79.765 o
-13 3 10 10.288 -108.846 651.434 78.414 o
-13 3 11 117.079 214.909 620.508 85.686 o
-13 3 12 14059.600 13425.800 1029.140 19.259 o
-13 3 13 188.130 1471.120 870.590 43.080 o
-13 3 14 2796.320 1795.710 1489.940 14.553 o
-13 3 15 192.683 -1020.850 809.175 50.611 o
-13 3 16 934.013 278.010 837.415 46.326 o
-13 4 1 6098.370 6476.060 1051.290 25.241 o
-13 4 2 3845.100 3249.080 501.021 92.759 o
-13 4 3 53.873 -3.875 545.526 111.548 o
-13 4 4 10377.100 10375.800 452.514 52.008 o
-13 4 5 1357.970 1908.120 259.800 310.763 o
-13 4 6 12851.600 11725.800 488.981 41.065 o
-13 4 7 11.729 28.195 381.785 227.763 o
-13 4 8 1664.710 932.206 460.589 134.042 o
-13 4 9 18241.700 18417.100 951.946 17.155 o
-13 4 10 5839.060 5783.470 650.749 53.788 o
-13 4 11 13942.500 13440.400 2764.750 4.007 o
-13 4 12 5129.780 5710.710 878.701 35.190 o
-13 4 13 2560.530 2847.490 899.693 37.692 o
-13 4 14 8117.130 7832.130 1489.940 13.201 o
-13 4 15 9692.890 10164.100 1884.330 8.418 o
-13 5 1 866.875 1560.370 323.773 251.880 o
-13 5 2 273.595 384.419 397.068 201.819 o
-13 5 3 607.989 692.383 379.728 208.722 o
-13 5 4 2861.250 3663.870 454.335 112.468 o
-13 5 5 1854.770 1509.510 306.319 239.165 o
-13 5 6 272.702 375.618 309.256 323.709 o
-13 5 7 5156.020 4933.020 1010.610 28.091 o
-13 5 8 360.373 855.191 475.819 139.326 o
-13 5 9 28424.200 29287.100 1196.790 9.235 o
-13 5 10 1555.340 1011.310 575.811 90.839 o
-13 5 11 1855.060 969.118 610.950 80.522 o
-13 5 12 971.890 1512.480 750.180 56.272 o
-13 5 13 11637.200 9684.700 1489.940 12.361 o
-13 5 14 1749.660 -414.314 1011.880 31.610 o
-13 5 15 5208.630 5344.990 1828.560 9.472 o
-13 6 1 43148.700 42302.200 1104.340 5.968 o
-13 6 2 731.800 415.529 444.794 156.365 o
-13 6 3 18568.100 20342.300 800.466 18.980 o
-13 6 4 105.028 -14.105 370.571 239.600 o
-13 6 5 13647.300 12710.900 768.604 27.226 o
-13 6 6 9002.400 8971.680 445.509 60.217 o
-13 6 7 15552.400 14235.100 669.260 27.432 o
-13 6 8 14564.300 14962.400 843.645 23.037 o
-13 6 9 5319.460 5364.280 710.610 49.005 o
-13 6 10 4259.490 6232.290 798.527 41.895 o
-13 6 11 118.714 -37.437 571.912 101.210 o
-13 6 12 13991.800 15262.500 1171.060 15.980 o
-13 6 13 9.056 284.684 821.211 49.191 o
-13 6 14 1748.260 1440.880 1302.700 19.135 o
-13 7 1 17580.600 17681.600 1904.250 7.237 o
-13 7 2 6404.710 7310.420 1126.000 22.134 o
-13 7 3 2111.980 2723.340 440.597 129.551 o
-13 7 4 15001.600 15562.500 742.985 25.151 o
-13 7 5 33435.400 32389.700 734.375 10.061 o
-13 7 6 6674.670 7665.180 617.599 52.684 o
-13 7 7 4386.020 4671.770 552.010 74.952 o
-13 7 8 2647.830 2632.490 812.693 45.367 o
-13 7 9 1770.120 833.133 592.379 85.759 o
-13 7 10 10512.300 10934.300 845.365 28.526 o
-13 7 11 854.757 327.687 616.216 84.040 o
-13 7 12 20.506 -585.134 608.783 89.743 o
-13 7 13 3586.430 3090.040 881.696 37.951 o
-13 8 1 3337.700 3934.100 859.554 39.502 o
-13 8 2 3245.930 1852.890 770.099 49.618 o
-13 8 3 6647.850 7749.080 950.630 28.831 o
-13 8 4 3089.770 3133.880 787.911 46.916 o
-13 8 5 0.587 118.030 184.400 953.409 o
-13 8 6 6876.620 7903.010 400.960 78.942 o
-13 8 7 10866.100 10626.400 749.807 32.546 o
-13 8 8 555.224 391.967 498.987 127.589 o
-13 8 9 29.725 -288.727 620.178 86.447 o
-13 8 10 5337.320 6425.920 729.149 46.121 o
-13 8 11 4538.320 3278.270 885.556 36.597 o
-13 9 1 4436.280 3104.700 860.004 38.697 o
-13 9 2 1087.870 850.568 764.662 54.602 o
-13 9 3 3747.070 5016.630 989.221 30.101 o
-13 9 4 1381.060 513.572 1027.820 30.721 o
-13 9 5 542.983 128.274 420.853 178.322 o
-13 9 6 940.070 1484.030 298.716 284.051 o
-13 9 7 494.382 351.943 387.741 206.849 o
-13 9 8 1708.360 1960.080 841.319 44.107 o
-13 9 9 194.322 620.001 589.196 93.757 o
-13 9 10 138.799 484.385 726.515 62.367 o
-13 10 1 2938.430 1879.290 629.940 71.092 o
-13 10 2 813.060 819.967 880.916 41.826 o
-13 10 3 170.530 1001.810 1836.530 9.839 o
-13 10 4 578.826 -505.003 813.311 49.642 o
-13 10 5 4784.800 3805.440 1454.080 14.776 o
-13 10 6 2021.810 2763.420 554.629 90.218 o
-13 10 7 16177.000 17720.100 1273.140 13.237 o
-12 0 2 26190.800 29336.200 1028.760 10.931 o
-12 0 4 1555.020 926.501 462.119 134.413 o
-12 0 6 275.701 229.834 476.042 143.055 o
-12 0 8 755.747 1410.260 796.758 50.526 o
-12 0 10 37279.600 36109.100 1952.060 4.652 o
-12 0 12 89238.800 96415.600 3673.050 1.073 o
-12 0 14 98.743 462.119 1107.490 27.027 o
-12 0 16 1679.970 1904.250 1410.260 16.361 o
-12 1 1 13883.900 14590.100 523.522 34.549 o
-12 1 2 3743.130 4396.330 316.180 151.720 o
-12 1 3 256.039 598.521 355.259 246.713 o
-12 1 4 21.524 272.719 267.092 451.272 o
-12 1 5 19059.600 19121.000 643.978 21.895 o
-12 1 6 65750.100 65727.500 1175.400 3.073 o
-12 1 7 42.014 325.553 484.781 139.768 o
-12 1 8 52305.700 52210.900 1559.390 3.848 o
-12 1 9 6265.720 6460.180 717.912 45.360 o
-12 1 10 655.356 680.103 587.755 92.099 o
-12 1 11 268.153 1418.840 661.968 73.341 o
-12 1 12 271.439 539.584 740.074 59.850 o
-12 1 13 5757.400 3891.170 959.065 30.660 o
-12 1 14 1031.910 1577.890 1047.740 29.505 o
-12 1 15 993.414 2353.570 966.206 34.301 o
-12 1 16 16197.000 17098.000 4031.590 1.943 o
-12 2 1 124812.000 122393.000 1823.830 0.967 o
-12 2 2 1136.360 1369.270 312.214 260.160 o
-12 2 3 75788.200 73665.500 1219.770 2.453 o
-12 2 4 454.212 664.672 253.781 432.858 o
-12 2 5 13434.400 12871.600 514.312 37.398 o
-12 2 6 5225.900 5320.470 414.581 97.067 o
-12 2 7 5161.550 5647.440 1006.220 28.060 o
-12 2 8 8852.390 7569.170 696.157 41.208 o
-12 2 9 6857.260 7446.410 964.077 28.157 o
-12 2 10 2044.800 2362.740 661.106 67.282 o
-12 2 11 6265.000 8055.640 845.513 34.733 o
-12 2 12 5061.360 6268.590 876.241 35.127 o
-12 2 13 13756.600 15006.900 1217.550 15.299 o
-12 2 14 1928.670 1743.190 1768.800 10.475 o
-12 2 15 7215.060 5634.000 1525.790 12.987 o
-12 2 16 2216.400 1437.140 935.028 35.946 o
-12 3 1 338.436 -262.573 210.313 672.687 o
-12 3 2 42648.300 39880.700 706.425 7.152 o
-12 3 3 3034.090 2352.180 278.941 212.720 o
-12 3 4 42754.800 41950.600 792.642 6.768 o
-12 3 5 89940.700 94212.300 1305.930 1.739 o
-12 3 6 10679.500 9433.450 507.867 48.498 o
-12 3 7 20858.100 20925.500 847.798 16.662 o
-12 3 8 4037.450 4151.490 608.555 67.373 o
-12 3 9 14202.300 15451.300 1031.210 18.590 o
-12 3 10 5831.460 5346.080 754.268 43.934 o
-12 3 11 8188.440 7773.100 830.452 33.526 o
-12 3 12 40.473 976.897 784.906 53.315 o
-12 3 13 266.207 1153.980 785.191 52.842 o
-12 3 14 18397.000 15756.700 1397.580 11.408 o
-12 3 15 1355.580 2818.970 954.916 34.666 o
-12 3 16 2975.740 1542.630 915.792 36.690 o
-12 4 1 2528.000 2758.540 362.256 163.754 o
-12 4 2 5200.280 6391.730 647.494 55.034 o
-12 4 3 2083.850 2472.880 400.642 151.208 o
-12 4 4 3651.980 3664.540 245.309 197.701 o
-12 4 5 56.026 195.365 230.740 598.670 o
-12 4 6 10.527 -629.884 278.560 428.114 o
-12 4 7 5455.170 4376.360 482.443 83.843 o
-12 4 8 8329.680 8632.500 591.374 49.447 o
-12 4 9 27639.600 26053.500 1041.150 10.895 o
-12 4 10 7116.040 6510.780 1051.720 24.619 o
-12 4 11 5541.550 6753.600 1442.130 14.596 o
-12 4 12 21137.100 22890.700 1409.290 9.936 o
-12 4 13 19749.100 19494.700 1924.170 6.845 o
-12 4 14 126.210 -30.390 1083.590 28.304 o
-12 4 15 392.027 -931.873 1238.960 21.600 o
-12 5 1 7678.190 8023.340 468.225 65.381 o
-12 5 2 1583.520 1389.690 382.390 179.739 o
-12 5 3 7462.390 8048.560 551.214 56.729 o
-12 5 4 3016.440 2623.950 425.779 126.766 o
-12 5 5 6854.910 6735.850 365.735 88.761 o
-12 5 6 10172.700 11281.200 519.971 46.504 o
-12 5 7 6614.660 6104.730 512.139 68.488 o
-12 5 8 10443.800 10335.500 703.469 35.715 o
-12 5 9 133.852 249.095 479.434 142.349 o
-12 5 10 28811.000 28161.600 1180.440 9.375 o
-12 5 11 129.203 -915.161 800.741 51.757 o
-12 5 12 13827.500 13998.700 1191.170 15.921 o
-12 5 13 10209.200 9787.950 1062.720 21.531 o
-12 5 14 358.544 1685.940 1008.280 32.127 o
-12 5 15 90.288 67.587 1613.430 12.778 o
-12 6 1 27288.600 25111.700 1182.620 10.077 o
-12 6 2 2909.040 3190.430 399.408 135.990 o
-12 6 3 33236.400 32637.100 1051.220 8.608 o
-12 6 4 37.628 -238.164 351.318 268.458 o
-12 6 5 33490.500 31996.400 628.332 10.566 o
-12 6 6 6273.100 5934.550 425.981 84.892 o
-12 6 7 156.968 188.369 405.857 197.440 o
-12 6 8 8464.450 9360.570 841.489 31.712 o
-12 6 9 10653.900 10796.300 761.998 32.133 o
-12 6 10 52.469 -1106.730 531.134 117.667 o
-12 6 11 798.793 797.825 897.421 40.360 o
-12 6 12 173.020 -391.739 669.057 73.925 o
-12 6 13 3397.850 2903.490 830.990 42.476 o
-12 6 14 2679.560 4560.820 1083.360 26.224 o
-12 7 1 23005.100 24533.000 1501.890 8.737 o
-12 7 2 5015.660 4289.490 784.957 43.388 o
-12 7 3 7664.300 7719.960 871.182 31.910 o
-12 7 4 27379.100 26283.700 847.012 12.435 o
-12 7 5 13643.600 13194.200 468.562 38.576 o
-12 7 6 5581.880 5556.570 413.789 93.557 o
-12 7 7 57.876 883.054 457.390 153.386 o
-12 7 8 2063.730 2531.210 544.196 93.514 o
-12 7 9 11944.600 11041.700 986.779 22.352 o
-12 7 10 634.046 1197.610 656.709 73.760 o
-12 7 11 4795.520 6685.030 902.922 33.507 o
-12 7 12 3751.220 3606.600 820.660 42.493 o
-12 7 13 2878.820 2707.490 733.308 53.959 o
-12 8 1 372.112 -34.024 591.981 93.447 o
-12 8 2 6522.600 5879.450 847.780 35.558 o
-12 8 3 5748.300 5615.210 896.819 33.471 o
-12 8 4 471.918 248.268 687.270 69.104 o
-12 8 5 23536.500 22607.200 499.394 18.781 o
-12 8 6 49.902 180.270 273.271 433.284 o
-12 8 7 11579.700 10839.100 758.249 31.103 o
-12 8 8 1957.050 1215.900 757.961 53.779 o
-12 8 9 3557.330 4215.600 629.928 65.346 o
-12 8 10 352.274 -31.783 1121.170 26.367 o
-12 8 11 737.451 913.736 646.770 76.055 o
-12 8 12 50.903 -519.630 836.109 47.565 o
-12 9 1 971.486 1249.870 567.659 95.475 o
-12 9 2 29041.000 26608.200 1240.090 9.124 o
-12 9 3 4459.660 3912.430 995.244 29.670 o
-12 9 4 65.795 -317.732 347.404 273.538 o
-12 9 5 4934.470 5123.760 497.839 81.576 o
-12 9 6 83.352 480.662 329.896 292.383 o
-12 9 7 3402.900 2023.420 1521.810 13.875 o
-12 9 8 1028.560 1724.910 1677.170 11.702 o
-12 9 9 5894.140 5496.290 1543.380 12.928 o
-12 9 10 7140.800 8265.640 988.584 26.566 o
-12 10 1 44453.000 40096.300 1357.660 5.347 o
-12 10 2 5735.390 5899.500 740.862 44.806 o
-12 10 3 1075.560 1434.600 586.972 88.888 o
-12 10 4 899.875 1612.670 889.040 40.656 o
-12 10 5 8512.180 7982.200 1028.180 24.200 o
-12 10 6 6907.020 7100.440 2087.500 7.226 o
-12 10 7 23.827 -177.134 771.377 55.911 o
-11 0 2 6678.220 6094.760 429.761 81.136 o
-11 0 4 33990.000 33377.700 1051.920 8.368 o
-11 0 6 1430.500 834.285 475.842 129.332 o
-11 0 8 5563.720 6796.340 1027.820 26.447 o
-11 0 10 822.326 1019.850 908.304 39.312 o
-11 0 12 17263.800 19544.500 1856.450 7.471 o
-11 0 14 17965.000 19488.700 2071.570 6.232 o
-11 0 16 2395.120 1920.190 1338.550 17.974 o
-11 1 1 7802.590 7963.700 398.834 73.609 o
-11 1 2 27523.500 30757.700 625.491 13.058 o
-11 1 3 12944.000 12789.200 471.844 40.443 o
-11 1 4 33676.000 34319.200 685.627 9.917 o
-11 1 5 618.279 221.523 283.504 362.124 o
-11 1 6 33862.400 35243.000 964.242 8.578 o
-11 1 7 7158.690 7977.530 646.727 48.260 o
-11 1 8 680.388 636.757 517.495 117.277 o
-11 1 9 9456.810 9191.560 805.120 32.513 o
-11 1 10 15547.700 16015.300 1115.470 16.184 o
-11 1 11 11126.900 9724.400 881.696 27.062 o
-11 1 12 34299.800 37030.200 1611.270 5.860 o
-11 1 13 2658.530 2480.690 952.722 33.983 o
-11 1 14 212.636 -934.937 1079.610 28.480 o
-11 1 15 852.856 597.805 853.526 44.554 o
-11 1 16 0.735 -1554.880 822.495 49.206 o
-11 1 17 2206.960 1247.350 972.128 33.465 o
-11 2 1 229.568 1100.750 240.758 473.155 o
-11 2 2 1671.280 1063.110 231.985 364.319 o
-11 2 3 42862.000 48270.600 781.743 6.280 o
-11 2 4 349.672 399.363 392.441 204.684 o
-11 2 5 3259.010 3477.660 303.331 176.477 o
-11 2 6 653.703 246.318 509.091 122.604 o
-11 2 7 10199.100 8535.680 599.764 44.306 o
-11 2 8 1140.360 1604.870 657.325 71.621 o
-11 2 9 58875.700 58949.700 1676.610 3.159 o
-11 2 10 1116.840 784.431 610.176 83.811 o
-11 2 11 19768.000 20565.100 1852.460 7.193 o
-11 2 12 411.186 407.633 627.255 82.574 o
-11 2 13 441.511 1416.080 822.130 47.931 o
-11 2 14 1799.840 1866.840 904.493 38.444 o
-11 2 15 18502.900 15057.400 1760.830 8.217 o
-11 2 16 1679.560 2405.740 958.492 34.338 o
-11 3 1 540.047 571.167 252.394 433.167 o
-11 3 2 20124.500 23648.400 520.477 20.909 o
-11 3 3 15013.300 14931.500 405.105 36.193 o
-11 3 4 15.320 126.486 217.643 685.348 o
-11 3 5 103.615 97.122 291.610 380.981 o
-11 3 6 19951.900 21549.400 804.010 17.647 o
-11 3 7 564.617 1113.960 413.744 175.837 o
-11 3 8 653.120 -387.885 593.584 91.792 o
-11 3 9 1813.580 2060.920 619.977 76.640 o
-11 3 10 1043.330 1774.170 634.425 76.530 o
-11 3 11 718.711 2170.600 688.399 66.041 o
-11 3 12 7803.640 7483.750 976.310 26.886 o
-11 3 13 118.308 -331.668 1394.330 17.107 o
-11 3 14 112.234 1824.380 902.979 40.017 o
-11 3 15 7802.140 7529.150 1054.690 23.811 o
-11 3 16 604.741 2024.340 936.514 36.830 o
-11 4 1 21850.500 22481.400 642.809 18.366 o
-11 4 2 369.227 792.375 628.277 81.814 o
-11 4 3 976.474 1475.060 362.648 207.988 o
-11 4 4 69.421 157.402 213.802 693.689 o
-11 4 5 38385.500 40147.900 715.688 7.933 o
-11 4 6 23847.700 24838.900 689.612 15.827 o
-11 4 7 13537.500 13257.500 750.908 27.656 o
-11 4 8 13919.000 13234.100 788.809 26.008 o
-11 4 9 10747.500 11621.700 927.756 24.893 o
-11 4 10 11910.900 10862.400 1028.090 21.242 o
-11 4 11 6242.530 6374.060 1035.780 25.819 o
-11 4 12 2093.040 835.738 691.022 63.900 o
-11 4 13 2675.620 4055.050 1960.020 8.467 o
-11 4 14 668.819 1409.210 918.123 38.465 o
-11 4 15 35.572 920.229 1470.020 15.350 o
-11 4 16 233.676 -1154.730 826.803 48.440 o
-11 5 1 1022.250 589.714 441.351 153.906 o
-11 5 2 5529.490 6135.240 499.148 75.547 o
-11 5 3 4547.220 4702.180 737.735 48.362 o
-11 5 4 8052.230 8438.370 577.513 51.716 o
-11 5 5 51.907 383.462 229.109 591.748 o
-11 5 6 3330.340 3239.690 860.215 39.844 o
-11 5 7 238.671 323.690 384.260 216.309 o
-11 5 8 343.949 109.611 473.706 144.351 o
-11 5 9 6899.170 6816.780 599.829 55.133 o
-11 5 10 8507.380 9098.970 1051.720 23.045 o
-11 5 11 6483.090 6374.620 2151.250 6.861 o
-11 5 12 16049.200 14905.400 1235.310 14.252 o
-11 5 13 8086.730 7501.700 977.199 26.633 o
-11 5 14 2673.690 3850.720 951.354 33.541 o
-11 5 15 1241.900 -375.353 1378.390 17.336 o
-11 6 1 4102.640 4998.230 733.802 49.335 o
-11 6 2 7887.080 8773.730 789.749 35.642 o
-11 6 3 73285.100 74255.000 1475.710 2.408 o
-11 6 4 19684.400 20367.900 446.927 24.050 o
-11 6 5 37309.500 34686.700 667.469 8.950 o
-11 6 6 7412.440 7593.020 455.149 69.245 o
-11 6 7 37230.800 37395.400 1088.990 7.245 o
-11 6 8 2797.860 2543.180 502.191 101.558 o
-11 6 9 27557.200 26474.300 1085.120 10.537 o
-11 6 10 316.304 -255.092 670.407 73.266 o
-11 6 11 656.856 1567.970 688.277 66.926 o
-11 6 12 4627.490 4458.490 882.516 36.112 o
-11 6 13 1454.240 1722.180 901.053 39.090 o
-11 6 14 465.626 306.752 890.160 41.500 o
-11 7 1 5913.560 6244.490 1047.420 25.576 o
-11 7 2 14770.000 14060.000 1107.140 17.102 o
-11 7 3 339.954 679.495 618.221 84.717 o
-11 7 4 4329.450 4794.530 267.451 157.710 o
-11 7 5 191.097 36.637 235.172 568.696 o
-11 7 6 931.272 988.554 352.360 225.600 o
-11 7 7 582.927 850.817 487.909 130.923 o
-11 7 8 499.233 740.879 526.178 114.495 o
-11 7 9 2380.760 3041.540 639.869 69.155 o
-11 7 10 3255.310 3172.270 657.608 63.355 o
-11 7 11 10658.500 12104.300 827.614 28.502 o
-11 7 12 1646.990 1617.580 677.481 66.397 o
-11 7 13 3543.160 3678.680 867.625 38.774 o
-11 8 1 4809.100 5386.480 718.221 49.227 o
-11 8 2 1986.660 3304.210 680.011 62.961 o
-11 8 3 784.115 -323.908 679.124 70.278 o
-11 8 4 1172.070 575.261 390.566 188.559 o
-11 8 5 7371.360 6502.750 550.922 59.689 o
-11 8 6 8145.120 10987.600 1194.470 18.631 o
-11 8 7 432.544 216.944 713.847 64.255 o
-11 8 8 18534.600 19472.900 2039.700 6.347 o
-11 8 9 688.689 224.863 1105.710 26.947 o
-11 8 10 5368.600 6032.650 798.422 40.459 o
-11 8 11 199.244 43.324 676.539 72.192 o
-11 8 12 1.351 -69.623 936.618 37.945 o
-11 9 1 1485.840 312.569 550.862 100.663 o
-11 9 2 31.393 -652.405 328.015 308.017 o
-11 9 3 11639.700 10871.400 802.693 29.126 o
-11 9 4 3184.630 3181.880 354.055 153.538 o
-11 9 5 8718.600 7281.960 1148.870 20.383 o
-11 9 6 1789.240 1607.630 545.636 97.121 o
-11 9 7 14421.200 13794.500 835.545 23.870 o
-11 9 8 167.652 77.120 891.497 41.718 o
-11 9 9 4013.730 4212.680 910.845 34.910 o
-11 9 10 3924.110 5066.920 1163.270 22.405 o
-11 10 1 165.005 -67.848 591.580 94.434 o
-11 10 2 18693.100 17745.400 640.784 22.929 o
-11 10 3 2799.110 3028.980 865.459 40.107 o
-11 10 4 18302.200 16112.900 865.037 19.377 o
-11 10 5 9936.360 9743.050 825.715 30.631 o
-11 10 6 6478.290 8080.520 788.141 38.177 o
-11 10 7 9447.960 8837.070 1062.690 22.224 o
-11 10 8 2475.200 2281.300 624.938 72.942 o
-11 11 2 13307.800 16043.800 789.302 25.219 o
-11 11 3 2789.480 2975.730 734.909 53.668 o
-10 0 2 103156.000 113818.000 3704.920 0.897 o
-10 0 4 36025.400 38654.700 1129.590 7.200 o
-10 0 6 140769.000 142022.000 4127.200 0.585 o
-10 0 8 23979.200 18644.100 1386.360 9.979 o
-10 0 10 1896.510 2581.490 940.174 35.382 o
-10 0 12 9636.530 11369.700 1450.100 13.167 o
-10 0 14 8464.210 5824.300 1474.000 13.577 o
-10 0 16 8252.610 4111.270 1466.030 13.909 o
-10 1 1 115305.000 120311.000 1554.340 1.101 o
-10 1 2 11560.200 11443.700 435.087 47.769 o
-10 1 3 1089.830 1377.610 262.833 336.972 o
-10 1 4 46171.500 45846.600 776.549 5.990 o
-10 1 5 23175.000 23830.600 585.613 17.668 o
-10 1 6 14772.300 14119.700 860.004 22.770 o
-10 1 7 5128.480 4759.950 594.332 64.790 o
-10 1 8 7239.450 6384.850 678.030 47.037 o
-10 1 9 5709.330 4917.470 820.660 39.046 o
-10 1 10 16308.900 14714.300 1098.620 16.435 o
-10 1 11 8492.490 7568.640 817.769 33.999 o
-10 1 12 9242.710 9366.420 952.846 26.033 o
-10 1 13 846.544 1378.390 1003.910 32.219 o
-10 1 14 56.642 435.030 796.317 52.147 o
-10 1 15 2122.690 1241.610 987.979 32.506 o
-10 1 16 1536.270 772.855 867.625 42.400 o
-10 1 17 22.698 -772.681 772.072 55.812 o
-10 2 1 124624.000 127940.000 1637.740 0.962 o
-10 2 2 7320.940 7607.850 421.016 74.302 o
-10 2 3 139777.000 130415.000 1640.420 0.829 o
-10 2 4 44492.700 43323.700 734.164 6.497 o
-10 2 5 16539.500 14086.200 713.013 25.173 o
-10 2 6 177.428 228.136 353.953 256.466 o
-10 2 7 2067.260 2462.420 535.421 96.248 o
-10 2 8 2085.460 2106.760 535.246 97.221 o
-10 2 9 2314.450 2462.060 593.584 79.891 o
-10 2 10 8731.920 8414.390 823.454 32.888 o
-10 2 11 22736.100 24596.300 1313.490 10.204 o
-10 2 12 26.156 362.373 667.603 74.157 o
-10 2 13 11696.500 11233.800 1053.110 20.574 o
-10 2 14 2807.050 2969.270 1163.270 23.219 o
-10 2 15 803.662 364.819 888.824 41.309 o
-10 2 16 6124.500 5538.580 1163.270 21.429 o
-10 3 1 9091.530 8922.120 456.671 58.889 o
-10 3 2 74894.100 75181.000 1042.960 2.533 o
-10 3 3 41099.700 41165.000 998.687 6.596 o
-10 3 4 59863.600 55771.600 973.875 3.881 o
-10 3 5 1003.350 1114.530 354.076 220.225 o
-10 3 6 35396.900 33474.800 767.287 9.235 o
-10 3 7 272.969 217.105 546.024 109.473 o
-10 3 8 54703.400 58259.800 1638.060 3.430 o
-10 3 9 24955.700 26909.100 1169.370 10.539 o
-10 3 10 18887.200 17195.200 1163.660 13.926 o
-10 3 11 5091.750 5485.000 823.541 39.263 o
-10 3 12 107.892 980.012 1059.690 29.398 o
-10 3 13 4373.200 4028.180 899.528 35.418 o
-10 3 14 963.001 1743.430 972.912 34.062 o
-10 3 15 808.092 616.968 828.776 47.224 o
-10 3 16 5262.880 6833.110 1354.490 16.410 o
-10 4 1 24956.800 25638.200 645.761 15.418 o
-10 4 2 9511.790 9605.040 522.847 50.509 o
-10 4 3 18052.600 18045.900 684.914 22.478 o
-10 4 4 12791.000 13399.300 496.078 38.994 o
-10 4 5 1993.300 2109.810 297.041 233.923 o
-10 4 6 10287.700 11825.200 645.929 37.884 o
-10 4 7 6402.550 6185.400 765.610 41.372 o
-10 4 8 4378.800 4525.410 627.539 62.676 o
-10 4 9 702.534 501.130 574.495 96.399 o
-10 4 10 6489.240 6523.930 761.702 41.272 o
-10 4 11 1252.870 1456.510 644.352 74.204 o
-10 4 12 6868.520 5681.330 790.349 39.175 o
-10 4 13 972.328 1573.230 822.130 47.201 o
-10 4 14 957.483 408.729 1338.550 18.386 o
-10 4 15 12528.000 12232.600 1207.370 16.430 o
-10 4 16 88.369 897.185 932.206 37.939 o
-10 5 1 263.964 114.095 313.537 322.299 o
-10 5 2 2995.780 3233.210 365.355 150.492 o
-10 5 3 731.305 890.890 329.825 260.352 o
-10 5 4 18135.400 17925.500 533.944 25.640 o
-10 5 5 319.950 466.319 585.040 94.851 o
-10 5 6 31676.200 30937.100 772.507 10.630 o
-10 5 7 162.885 371.835 408.196 193.491 o
-10 5 8 29513.300 27647.200 972.360 10.599 o
-10 5 9 3180.220 2831.780 657.307 64.091 o
-10 5 10 2905.250 2794.760 685.186 60.501 o
-10 5 11 10.458 -108.058 678.487 72.287 o
-10 5 12 424.153 -37.854 715.303 64.230 o
-10 5 13 2468.950 1251.900 1960.020 8.543 o
-10 5 14 2748.930 1003.910 952.134 34.504 o
-10 5 15 1485.190 1047.470 918.278 37.950 o
-10 6 1 950.169 1029.730 454.413 144.366 o
-10 6 2 4337.080 4355.410 667.885 57.385 o
-10 6 3 11070.400 11102.900 616.890 38.718 o
-10 6 4 38005.100 39074.100 674.281 8.245 o
-10 6 5 4731.130 5171.500 362.493 116.103 o
-10 6 6 7761.930 7456.200 480.006 64.829 o
-10 6 7 1416.740 1085.730 446.815 143.077 o
-10 6 8 11664.300 10952.000 861.185 26.780 o
-10 6 9 4679.510 5910.010 947.922 31.328 o
-10 6 10 1163.180 776.511 690.079 66.334 o
-10 6 11 1239.660 942.878 731.001 59.143 o
-10 6 12 489.137 1098.520 1159.280 24.465 o
-10 6 13 76.912 459.914 762.633 56.771 o
-10 6 14 509.840 3039.250 945.695 35.846 o
-10 7 1 47109.100 45266.700 1319.810 4.910 o
-10 7 2 27767.900 27309.600 1136.380 10.012 o
-10 7 3 49833.600 48287.000 1026.970 5.003 o
-10 7 4 9163.570 9938.160 381.536 63.495 o
-10 7 5 1269.720 1059.080 428.958 155.492 o
-10 7 6 6061.100 6025.290 748.575 43.458 o
-10 7 7 3.320 419.716 657.671 76.382 o
-10 7 8 21857.400 21839.000 2661.170 3.935 o
-10 7 9 1.757 393.858 787.157 53.460 o
-10 7 10 2286.940 2306.430 706.205 59.353 o
-10 7 11 1181.850 2161.580 687.802 65.048 o
-10 7 12 3797.040 3768.260 1023.830 28.666 o
-10 7 13 5370.820 7920.340 1322.620 16.960 o
-10 8 1 25566.700 24463.800 856.577 13.436 o
-10 8 2 7409.140 7044.700 580.760 55.332 o
-10 8 3 9695.600 9743.100 580.760 45.427 o
-10 8 4 14972.600 15285.400 608.254 29.388 o
-10 8 5 1696.910 1926.870 307.035 236.728 o
-10 8 6 1166.740 1824.190 593.522 85.906 o
-10 8 7 3728.880 3937.550 557.498 78.472 o
-10 8 8 43.362 -662.282 1010.580 32.574 o
-10 8 9 9160.560 8250.600 964.607 26.062 o
-10 8 10 5764.620 5306.480 960.138 30.041 o
-10 8 11 7188.110 5423.220 970.575 28.378 o
-10 8 12 7188.920 7256.320 837.226 34.621 o
-10 9 1 194.809 383.604 309.578 326.819 o
-10 9 2 20453.000 20500.900 763.120 18.282 o
-10 9 3 6028.220 6395.510 660.267 51.516 o
-10 9 4 18829.900 19336.600 794.848 19.243 o
-10 9 5 1151.760 559.047 532.080 108.571 o
-10 9 6 47193.400 42944.700 1003.700 5.635 o
-10 9 7 645.414 322.466 652.649 75.866 o
-10 9 8 193.027 355.985 581.570 96.771 o
-10 9 9 5003.380 6151.490 1019.860 27.361 o
-10 9 10 692.350 412.260 624.975 82.203 o
-10 9 11 2707.290 3728.830 1250.910 20.156 o
-10 10 1 4280.840 4445.180 500.145 86.718 o
-10 10 2 867.250 558.620 335.478 253.911 o
-10 10 3 2342.820 2378.020 402.049 147.496 o
-10 10 4 2348.450 2207.130 536.229 95.133 o
-10 10 5 9924.390 10543.500 655.537 39.157 o
-10 10 6 546.353 -533.771 817.665 49.160 o
-10 10 7 187.100 207.341 576.066 98.968 o
-10 10 8 757.062 230.255 617.696 84.175 o
-10 11 1 1529.280 1002.940 502.852 115.909 o
-10 11 2 3587.870 2840.460 523.070 89.857 o
-10 11 3 773.245 780.720 473.300 137.067 o
-10 11 4 3571.170 1920.150 772.859 48.726 o
-10 11 5 3247.020 4017.250 591.253 73.600 o
-9 0 2 1921.800 2348.030 391.931 159.544 o
-9 0 4 1149.540 1571.650 404.244 169.852 o
-9 0 6 33319.500 35168.900 1641.320 5.958 o
-9 0 8 1185.580 669.276 740.985 57.981 o
-9 0 10 13110.900 14700.200 1513.840 11.300 o
-9 0 12 1011.420 1242.940 1019.850 31.193 o
-9 0 14 5352.110 5370.150 1330.590 17.108 o
-9 0 16 6651.100 6796.340 1625.390 11.568 o
-9 1 1 1846.080 2249.800 218.041 332.696 o
-9 1 2 21.628 504.773 204.987 719.606 o
-9 1 3 543.280 581.233 242.734 461.035 o
-9 1 4 35554.900 35482.900 770.410 8.931 o
-9 1 5 68.396 138.407 298.746 364.356 o
-9 1 6 27723.200 28708.800 1044.170 10.473 o
-9 1 7 7794.930 8646.670 768.871 37.155 o
-9 1 8 4898.640 6634.810 691.817 50.510 o
-9 1 9 308.779 -217.228 548.770 108.809 o
-9 1 10 4915.940 4667.590 683.402 53.645 o
-9 1 11 4813.900 4034.960 729.447 49.361 o
-9 1 12 3670.320 4416.730 928.223 33.986 o
-9 1 13 135.811 1107.490 995.947 33.195 o
-9 1 14 33931.900 32974.200 1663.960 5.929 o
-9 1 15 1309.630 1257.600 844.582 44.626 o
-9 1 16 8958.100 9896.580 1171.210 19.112 o
-9 1 17 69.136 145.666 1501.890 14.743 o
-9 2 1 84597.000 93567.900 1116.030 1.918 o
-9 2 2 72787.000 72637.200 906.756 2.726 o
-9 2 3 45601.800 49689.900 767.227 5.822 o
-9 2 4 25899.100 23936.700 533.489 16.369 o
-9 2 5 53814.100 51894.200 945.137 4.555 o
-9 2 6 2387.250 2394.840 418.091 138.725 o
-9 2 7 5421.110 8593.730 711.340 45.516 o
-9 2 8 69.731 62.828 523.814 120.641 o
-9 2 9 652.507 549.488 571.323 97.548 o
-9 2 10 18169.400 18220.600 1133.000 14.425 o
-9 2 11 46.437 -147.272 1071.640 28.969 o
-9 2 12 6246.040 8081.760 1338.550 16.358 o
-9 2 13 21094.700 21461.100 1468.910 9.592 o
-9 2 14 25.658 -500.905 746.097 59.758 o
-9 2 15 237.866 -152.046 1207.090 22.789 o
-9 2 16 1089.090 416.921 903.588 39.741 o
-9 3 1 1571.180 1500.080 277.769 284.631 o
-9 3 2 56707.100 59682.900 1203.090 3.745 o
-9 3 3 42182.500 42797.600 807.372 6.760 o
-9 3 4 13078.500 13454.800 475.451 39.228 o
-9 3 5 1195.150 681.639 267.816 342.917 o
-9 3 6 8425.510 8454.410 549.710 53.183 o
-9 3 7 7219.730 8059.060 729.033 41.279 o
-9 3 8 559.273 920.679 725.049 61.407 o
-9 3 9 9056.420 9587.860 769.240 34.688 o
-9 3 10 15702.900 14574.900 1075.710 17.163 o
-9 3 11 4197.710 5112.210 815.687 41.321 o
-9 3 12 201.813 1392.540 815.519 48.995 o
-9 3 13 6372.210 6599.280 914.876 31.377 o
-9 3 14 2724.610 2528.220 842.332 42.495 o
-9 3 15 3090.620 1821.940 850.499 41.744 o
-9 3 16 4018.690 3361.210 895.582 36.361 o
-9 4 1 9387.770 10470.900 504.141 51.067 o
-9 4 2 156.643 169.747 296.930 362.234 o
-9 4 3 18261.300 18617.700 563.077 24.503 o
-9 4 4 4953.210 5067.340 679.662 53.527 o
-9 4 5 3.913 -98.950 455.408 160.460 o
-9 4 6 4460.330 3643.310 350.550 132.665 o
-9 4 7 28979.200 27205.900 904.997 11.285 o
-9 4 8 8196.730 7766.330 916.271 29.124 o
-9 4 9 33790.900 33959.100 1310.160 7.242 o
-9 4 10 1670.260 1312.570 642.489 73.535 o
-9 4 11 863.451 755.109 1302.700 19.385 o
-9 4 12 2424.310 3832.050 805.956 45.529 o
-9 4 13 6089.270 5925.630 1987.910 8.008 o
-9 4 14 15543.500 16803.100 1497.320 10.823 o
-9 4 15 1041.070 1639.090 867.616 42.462 o
-9 4 16 9737.540 10016.700 1129.700 19.829 o
-9 5 1 11842.700 12211.200 509.029 41.819 o
-9 5 2 24134.800 23071.300 1065.120 12.247 o
-9 5 3 20.311 322.749 202.466 760.191 o
-9 5 4 3635.360 4279.630 297.076 163.525 o
-9 5 5 133.031 370.267 282.719 392.256 o
-9 5 6 11597.300 12384.300 692.312 32.987 o
-9 5 7 18719.900 18345.200 813.754 19.318 o
-9 5 8 707.112 930.451 477.258 134.895 o
-9 5 9 7341.750 6814.100 782.703 38.222 o
-9 5 10 4768.510 4550.080 744.480 47.407 o
-9 5 11 630.988 45.859 840.579 46.434 o
-9 5 12 6545.760 5241.120 1051.720 25.323 o
-9 5 13 12.745 438.075 1438.150 16.067 o
-9 5 14 20332.800 22652.200 1658.840 8.212 o
-9 5 15 5216.390 2977.030 946.449 32.171 o
-9 6 1 103.322 864.751 481.241 138.705 o
-9 6 2 66374.800 67576.200 1547.330 2.747 o
-9 6 3 175.749 111.668 176.341 960.115 o
-9 6 4 446.048 762.503 226.023 518.024 o
-9 6 5 9602.110 9417.950 428.294 58.503 o
-9 6 6 32938.100 34783.500 2728.890 3.237 o
-9 6 7 9706.570 10208.200 856.481 29.236 o
-9 6 8 83.827 1170.430 685.262 69.329 o
-9 6 9 369.952 598.981 2103.440 7.506 o
-9 6 10 45.527 393.610 758.065 57.552 o
-9 6 11 5528.810 5685.210 866.497 35.575 o
-9 6 12 2666.670 1791.850 1537.740 13.703 o
-9 6 13 2813.520 1961.210 1058.050 27.995 o
-9 6 14 5132.450 4186.230 966.630 30.618 o
-9 7 1 22419.500 24571.800 863.617 14.735 o
-9 7 2 19.421 -18.456 302.516 362.572 o
-9 7 3 38998.600 37611.700 725.517 8.045 o
-9 7 4 161.494 396.784 229.926 569.429 o
-9 7 5 55824.000 53294.100 897.498 4.368 o
-9 7 6 9.997 453.240 417.178 187.339 o
-9 7 7 220.920 720.583 489.616 133.763 o
-9 7 8 347.778 1402.580 522.119 114.985 o
-9 7 9 747.520 625.371 553.734 102.835 o
-9 7 10 4982.840 5321.550 1314.650 17.589 o
-9 7 11 8531.410 8772.300 1418.230 14.197 o
-9 7 12 1299.420 1895.690 1022.550 30.709 o
-9 7 13 2397.180 763.761 1732.950 10.908 o
-9 8 1 3607.020 3974.880 366.417 135.793 o
-9 8 2 8263.360 8051.120 441.796 65.792 o
-9 8 3 2537.120 3009.570 329.141 181.592 o
-9 8 4 7078.810 7087.490 439.120 74.471 o
-9 8 5 21.548 185.915 420.954 186.012 o
-9 8 6 34759.600 37097.100 1169.570 7.393 o
-9 8 7 493.479 258.229 511.579 122.599 o
-9 8 8 1583.560 2567.530 809.871 47.129 o
-9 8 9 7338.820 6810.370 731.337 41.978 o
-9 8 10 7535.290 7723.040 1095.440 22.494 o
-9 8 11 707.187 1059.330 704.325 64.490 o
-9 8 12 2374.890 73.577 848.074 43.757 o
-9 9 1 17620.000 16345.600 571.552 26.345 o
-9 9 2 3405.440 2932.800 347.386 155.294 o
-9 9 3 4585.240 4787.940 447.097 96.177 o
-9 9 4 2642.610 2525.950 457.263 118.420 o
-9 9 5 2215.410 2242.010 354.519 179.304 o
-9 9 6 1750.200 2010.510 667.154 67.479 o
-9 9 7 175.392 1098.190 748.997 58.149 o
-9 9 8 138.929 -24.412 552.649 108.236 o
-9 9 9 7737.230 7884.880 753.976 38.796 o
-9 9 10 3065.640 2590.240 703.275 57.730 o
-9 9 11 522.858 1496.700 727.961 60.455 o
-9 10 1 5013.450 5405.290 568.819 67.955 o
-9 10 2 453.873 638.763 413.877 181.336 o
-9 10 3 5621.490 5112.610 496.365 78.193 o
-9 10 4 7551.510 7428.020 604.963 51.895 o
-9 10 5 5871.180 7209.620 814.771 37.754 o
-9 10 6 4208.220 5328.290 547.682 75.086 o
-9 10 7 300.375 127.492 593.639 92.967 o
-9 10 8 2484.050 2637.670 636.898 70.016 o
-9 10 9 2255.330 1520.360 668.601 66.519 o
-9 11 1 57.042 38.789 733.122 61.801 o
-9 11 2 24458.500 22481.100 1303.960 10.130 o
-9 11 3 5453.000 4858.000 624.083 59.398 o
-9 11 4 837.934 1634.970 578.284 91.984 o
-9 11 5 727.387 816.111 480.804 133.400 o
-8 0 2 89815.300 74507.400 1147.940 2.024 o
-8 0 4 207486.000 207170.000 4137.820 0.330 o
-8 0 6 57302.900 57956.100 2143.280 2.776 o
-8 0 8 104970.000 116948.000 3657.120 0.883 o
-8 0 10 50234.500 50466.600 2254.820 3.057 o
-8 0 12 170.907 -581.633 892.369 41.665 o
-8 0 14 27871.000 28205.200 2310.600 4.487 o
-8 0 16 24277.900 23010.400 2350.430 4.678 o
-8 1 1 70622.500 64149.600 771.301 3.088 o
-8 1 2 2263.300 2685.040 213.218 299.711 o
-8 1 3 26011.200 28130.000 578.864 14.739 o
-8 1 4 55244.300 49708.900 883.649 4.595 o
-8 1 5 4725.870 5752.520 458.210 89.222 o
-8 1 6 12941.100 13067.000 839.097 25.393 o
-8 1 7 4306.490 5891.790 617.788 62.195 o
-8 1 8 1981.770 2471.080 552.951 91.635 o
-8 1 9 83.273 743.484 569.377 100.479 o
-8 1 10 612.420 332.144 601.568 88.947 o
-8 1 11 4251.250 3810.720 738.507 49.666 o
-8 1 12 93.650 -554.053 689.636 69.782 o
-8 1 13 6476.690 6429.830 1282.780 17.801 o
-8 1 14 834.722 414.896 924.239 38.219 o
-8 1 15 281.801 -95.921 865.651 44.166 o
-8 1 16 7493.640 8075.080 1039.360 24.392 o
-8 1 17 867.674 933.543 905.174 39.575 o
-8 2 1 1122.620 963.801 170.847 597.010 o
-8 2 2 10033.800 9527.890 563.175 46.123 o
-8 2 3 30.561 -6.683 282.534 414.591 o
-8 2 4 8696.640 8147.570 432.697 64.612 o
-8 2 5 6302.830 5939.390 412.857 87.121 o
-8 2 6 20778.400 19986.100 929.462 15.800 o
-8 2 7 2483.870 2221.790 486.254 110.294 o
-8 2 8 2342.420 2937.500 768.871 50.350 o
-8 2 9 28464.400 28729.800 1209.880 9.207 o
-8 2 10 3172.510 2967.300 733.017 53.174 o
-8 2 11 17813.100 18050.500 1167.170 14.105 o
-8 2 12 921.050 1081.550 721.485 61.127 o
-8 2 13 6504.040 5470.530 907.158 32.207 o
-8 2 14 762.465 869.813 782.873 52.645 o
-8 2 15 3566.300 4989.260 2358.400 5.856 o
-8 2 16 81.810 275.792 930.393 38.306 o
-8 3 1 4150.490 3238.390 420.783 113.909 o
-8 3 2 390.210 470.790 306.969 319.807 o
-8 3 3 15851.000 16034.000 397.220 33.720 o
-8 3 4 58315.100 55991.800 944.406 4.013 o
-8 3 5 5509.770 5408.770 347.040 110.659 o
-8 3 6 40694.800 41668.200 1014.940 6.577 o
-8 3 7 8253.670 8269.170 729.577 39.321 o
-8 3 8 8039.270 7804.390 697.163 42.425 o
-8 3 9 5924.010 5299.670 661.208 53.007 o
-8 3 10 5068.920 5322.580 714.564 49.149 o
-8 3 11 825.846 1170.750 649.823 74.736 o
-8 3 12 21121.000 21347.700 2083.520 5.890 o
-8 3 13 9891.970 8803.720 1015.870 23.494 o
-8 3 14 40.815 -691.202 747.028 59.585 o
-8 3 15 168.013 131.180 861.004 44.687 o
-8 3 16 6341.730 6595.520 2035.720 7.623 o
-8 4 1 29624.500 24909.600 1056.590 10.387 o
-8 4 2 6194.720 4474.240 507.888 74.871 o
-8 4 3 1089.290 1255.500 194.071 502.433 o
-8 4 4 17853.900 18231.400 521.898 26.049 o
-8 4 5 24253.500 24660.700 642.336 16.128 o
-8 4 6 350.772 968.291 333.346 267.549 o
-8 4 7 28189.100 32383.600 1192.390 8.978 o
-8 4 8 3482.950 2744.470 581.633 77.130 o
-8 4 9 442.480 849.259 555.674 103.185 o
-8 4 10 3828.630 5782.940 756.099 46.816 o
-8 4 11 14952.200 14063.800 1201.170 15.320 o
-8 4 12 2555.580 2633.760 816.554 45.103 o
-8 4 13 3536.090 4387.470 878.032 37.608 o
-8 4 14 17210.800 16615.500 1453.520 10.972 o
-8 4 15 535.895 775.345 896.159 40.701 o
-8 4 16 7503.160 8019.830 1124.040 21.514 o
-8 5 1 75228.200 70886.000 1768.700 2.246 o
-8 5 2 7271.000 5235.050 476.426 72.736 o
-8 5 3 41880.700 41855.200 664.932 7.200 o
-8 5 4 59992.800 63316.100 1066.670 3.542 o
-8 5 5 7722.850 8043.560 474.712 64.370 o
-8 5 6 8.384 -1262.760 535.893 115.863 o
-8 5 7 39505.800 40132.200 1410.750 5.741 o
-8 5 8 48444.400 48586.300 2374.340 3.007 o
-8 5 9 2819.520 2886.150 720.268 55.608 o
-8 5 10 19818.000 22144.900 1336.320 10.963 o
-8 5 11 185.449 -427.603 746.501 59.431 o
-8 5 12 32.599 629.574 1159.280 24.670 o
-8 5 13 25.795 657.548 805.415 50.884 o
-8 5 14 9219.030 9512.910 1120.910 20.433 o
-8 5 15 1023.070 1965.670 1617.420 12.562 o
-8 6 1 41675.200 42391.400 739.754 7.029 o
-8 6 2 369.215 893.526 331.335 271.146 o
-8 6 3 104528.000 105678.000 1166.140 1.387 o
-8 6 4 33878.500 32593.400 597.240 10.472 o
-8 6 5 11941.600 12360.800 479.515 42.975 o
-8 6 6 21884.800 20935.100 828.589 16.357 o
-8 6 7 541.055 -244.158 435.632 167.899 o
-8 6 8 535.298 672.225 453.356 151.698 o
-8 6 9 7370.230 7826.420 1111.480 22.024 o
-8 6 10 356.093 143.416 1697.090 11.531 o
-8 6 11 9145.660 7927.740 1450.100 13.626 o
-8 6 12 1200.790 1964.470 953.941 35.145 o
-8 6 13 401.416 613.395 1434.160 16.097 o
-8 6 14 107.251 513.852 982.140 34.309 o
-8 7 1 27.721 360.788 246.924 518.674 o
-8 7 2 53.755 -196.999 312.548 337.926 o
-8 7 3 23.009 116.054 270.623 446.958 o
-8 7 4 2727.440 2958.080 383.045 147.737 o
-8 7 5 352.092 884.461 380.868 211.103 o
-8 7 6 672.480 -33.355 395.607 199.179 o
-8 7 7 2753.780 2282.680 494.289 105.306 o
-8 7 8 1971.850 2926.840 641.035 70.385 o
-8 7 9 5435.880 7602.090 1189.000 20.494 o
-8 7 10 9116.640 9642.440 945.086 26.326 o
-8 7 11 4.013 -1161.570 1211.070 22.695 o
-8 7 12 8767.810 8071.150 1346.520 15.539 o
-8 7 13 1733.710 3943.950 1521.810 13.966 o
-8 7 14 89.357 -454.152 1426.200 16.355 o
-8 8 1 2062.570 2437.710 318.600 207.611 o
-8 8 2 3752.350 2881.900 375.676 137.352 o
-8 8 3 19425.400 19694.700 728.352 19.850 o
-8 8 4 744.199 341.314 668.162 72.198 o
-8 8 5 2973.420 3142.930 384.295 142.342 o
-8 8 6 90.303 -35.713 401.357 204.889 o
-8 8 7 4443.780 5664.640 613.442 62.747 o
-8 8 8 236.500 270.398 657.174 76.061 o
-8 8 9 305.878 -43.305 590.886 94.066 o
-8 8 10 728.481 547.921 598.893 88.822 o
-8 8 11 1974.440 1187.670 854.360 42.982 o
-8 8 12 3735.270 4334.360 1505.870 13.951 o
-8 9 1 2.067 348.952 343.362 275.990 o
-8 9 2 4667.010 4848.440 404.828 106.318 o
-8 9 3 1916.140 2089.560 434.070 138.282 o
-8 9 4 21106.900 20329.400 1033.780 14.198 o
-8 9 5 15088.900 15909.200 692.587 26.317 o
-8 9 6 9948.690 9929.020 564.634 45.730 o
-8 9 7 5274.170 4452.880 549.181 72.062 o
-8 9 8 32921.900 32744.200 1550.610 6.475 o
-8 9 9 8021.140 7350.330 750.990 38.974 o
-8 9 10 16675.100 15901.100 1428.190 11.437 o
-8 9 11 1418.940 1509.530 1302.450 19.204 o
-8 10 1 17184.000 16979.100 764.125 21.988 o
-8 10 2 659.995 1199.660 430.572 161.673 o
-8 10 3 34110.200 34547.800 1297.880 7.197 o
-8 10 4 840.633 799.466 441.089 155.025 o
-8 10 5 658.952 385.185 454.585 151.157 o
-8 10 6 913.253 1498.630 386.355 188.198 o
-8 10 7 6896.070 6513.450 589.323 56.773 o
-8 10 8 3911.520 4269.040 865.121 38.241 o
-8 10 9 11.006 206.987 660.266 76.052 o
-8 11 1 5078.960 4304.520 509.083 80.767 o
-8 11 2 4657.380 4773.140 624.715 61.849 o
-8 11 3 3431.220 3798.060 522.869 88.092 o
-8 11 4 2511.230 2600.070 492.215 106.605 o
-8 11 5 258.720 493.107 503.059 127.551 o
-8 11 6 747.503 723.899 530.807 111.081 o
-7 0 2 2218.750 2291.300 270.598 248.842 o
-7 0 4 20890.200 21544.300 1147.330 12.714 o
-7 0 6 24870.600 23536.200 1386.360 9.305 o
-7 0 8 621.528 1641.320 748.952 56.941 o
-7 0 10 4331.410 3712.890 980.012 30.651 o
-7 0 12 57403.800 50992.500 2501.820 2.534 o
-7 0 14 13419.300 12899.500 1641.320 10.028 o
-7 0 16 434.420 868.466 1227.010 21.909 o
-7 1 1 290.451 226.193 159.730 1046.800 o
-7 1 2 12096.200 9169.990 294.411 58.565 o
-7 1 3 12069.900 10658.700 377.107 50.831 o
-7 1 4 64065.600 61630.200 1154.180 3.285 o
-7 1 5 19724.400 18290.900 678.318 21.051 o
-7 1 6 34431.800 29528.900 1071.660 8.588 o
-7 1 7 3997.630 4002.460 582.925 72.260 o
-7 1 8 77629.700 80341.700 1996.510 1.944 o
-7 1 9 17204.500 17782.000 1091.560 15.513 o
-7 1 10 7587.220 7867.520 1071.640 23.237 o
-7 1 11 8513.040 8520.300 948.142 27.129 o
-7 1 12 3208.710 2831.520 799.780 45.749 o
-7 1 13 2452.490 4382.170 1179.200 22.508 o
-7 1 14 130.633 509.385 873.041 43.333 o
-7 1 15 4042.720 3054.020 1095.540 25.402 o
-7 1 16 209.513 -627.453 2856.380 4.078 o
-7 1 17 56.724 294.025 949.466 36.798 o
-7 2 1 16816.600 12491.000 279.873 38.503 o
-7 2 2 1053.680 1697.040 244.599 362.656 o
-7 2 3 118429.000 125965.000 4543.190 0.662 o
-7 2 4 43362.200 44592.100 815.740 6.415 o
-7 2 5 1765.050 1348.980 426.945 148.382 o
-7 2 6 3421.750 3816.990 888.385 37.247 o
-7 2 7 12521.500 15521.100 952.125 21.450 o
-7 2 8 6740.250 7478.010 1509.860 13.162 o
-7 2 9 1341.030 2064.180 542.235 99.426 o
-7 2 10 255.736 542.324 579.918 96.610 o
-7 2 11 2384.160 2434.350 987.979 31.959 o
-7 2 12 6967.430 6489.990 784.894 38.843 o
-7 2 13 14003.300 12482.300 1191.150 16.141 o
-7 2 14 1610.760 966.814 832.612 45.678 o
-7 2 15 424.731 508.236 850.667 45.330 o
-7 2 16 1000.470 2384.250 918.822 37.759 o
-7 3 1 18635.900 16901.300 829.573 19.573 o
-7 3 2 41729.900 36511.200 832.110 7.321 o
-7 3 3 4532.550 3932.620 370.487 122.896 o
-7 3 4 19143.500 19581.600 535.625 23.573 o
-7 3 5 107118.000 101714.000 1531.390 1.324 o
-7 3 6 859.474 304.026 463.944 143.793 o
-7 3 7 7302.600 8683.970 1071.640 23.169 o
-7 3 8 35788.200 37286.400 1312.250 6.694 o
-7 3 9 2203.300 2751.760 602.120 77.851 o
-7 3 10 2010.390 1957.450 604.283 79.630 o
-7 3 11 13805.300 13871.500 1071.390 18.334 o
-7 3 12 13509.400 13682.300 1157.970 16.731 o
-7 3 13 35.665 608.212 734.941 61.033 o
-7 3 14 1897.490 3305.930 878.026 39.849 o
-7 3 15 813.591 2323.020 898.225 39.624 o
-7 3 16 1698.630 2909.730 960.243 34.028 o
-7 4 1 19163.100 18437.600 534.344 24.184 o
-7 4 2 28633.800 27203.200 510.117 14.095 o
-7 4 3 63601.200 65333.500 1235.940 3.150 o
-7 4 4 6205.830 5457.810 446.729 83.007 o
-7 4 5 4522.880 4331.800 420.336 105.600 o
-7 4 6 3356.190 2916.130 836.596 42.018 o
-7 4 7 1506.790 1418.230 995.947 32.328 o
-7 4 8 17618.900 19232.000 1082.680 15.176 o
-7 4 9 20533.500 18623.200 1141.020 13.397 o
-7 4 10 29745.700 27706.600 1541.730 7.245 o
-7 4 11 15020.200 16723.100 1283.200 13.588 o
-7 4 12 9538.910 10038.800 1649.290 10.685 o
-7 4 13 2046.880 1478.140 1043.750 29.246 o
-7 4 14 1080.870 2101.140 1159.280 24.119 o
-7 4 15 113.185 1370.600 872.387 43.022 o
-7 4 16 1356.250 -753.678 816.395 48.336 o
-7 5 1 8788.760 9938.880 326.638 70.654 o
-7 5 2 3033.870 4027.890 383.667 135.876 o
-7 5 3 7952.060 7440.200 312.444 86.034 o
-7 5 4 6588.690 6539.670 331.718 97.972 o
-7 5 5 203.920 121.114 244.356 521.763 o
-7 5 6 4205.910 4310.310 452.717 99.365 o
-7 5 7 66.292 -572.612 471.395 149.124 o
-7 5 8 538.642 33.347 499.902 128.715 o
-7 5 9 11246.600 12222.500 999.931 22.035 o
-7 5 10 4858.230 5155.020 1171.230 21.752 o
-7 5 11 6262.750 4775.110 1092.040 24.024 o
-7 5 12 4404.390 4843.930 964.077 31.064 o
-7 5 13 9.154 -2326.530 1091.560 27.935 o
-7 5 14 2671.950 2924.960 1091.560 26.242 o
-7 5 15 13.307 658.249 1442.130 15.965 o
-7 6 1 7201.150 7356.400 438.390 73.195 o
-7 6 2 1548.020 1788.370 251.957 315.246 o
-7 6 3 6173.340 6444.400 319.560 104.841 o
-7 6 4 13834.100 15023.700 570.113 32.546 o
-7 6 5 810.496 754.514 290.394 321.340 o
-7 6 6 596.765 1274.660 415.350 172.858 o
-7 6 7 3169.640 3221.460 494.227 99.124 o
-7 6 8 31617.800 34357.500 1388.600 7.209 o
-7 6 9 79.278 -455.719 1211.070 22.677 o
-7 6 10 3770.920 5576.730 1015.870 28.521 o
-7 6 11 3823.960 4276.310 1039.770 27.716 o
-7 6 12 6828.850 6079.260 1474.000 13.854 o
-7 6 13 18.425 1292.510 2330.520 6.117 o
-7 6 14 783.302 -1119.900 911.250 39.496 o
-7 7 1 4530.360 3857.230 610.496 65.881 o
-7 7 2 3546.010 4083.500 329.814 151.661 o
-7 7 3 5817.130 6160.500 380.363 96.480 o
-7 7 4 430.407 1076.210 253.541 417.055 o
-7 7 5 5766.920 5974.280 388.045 96.021 o
-7 7 6 12970.400 12161.000 682.000 31.638 o
-7 7 7 13125.900 13705.900 1045.370 19.314 o
-7 7 8 973.139 2107.990 581.099 89.499 o
-7 7 9 840.680 772.855 884.401 41.501 o
-7 7 10 65.014 294.482 689.156 69.611 o
-7 7 11 7139.900 6154.130 891.898 32.114 o
-7 7 12 3188.690 2951.410 935.181 34.551 o
-7 7 13 5278.310 1880.350 1402.290 15.906 o
-7 8 1 2341.210 2343.900 321.654 199.194 o
-7 8 2 26971.700 25180.000 659.731 14.365 o
-7 8 3 81.808 805.840 358.894 244.072 o
-7 8 4 412.684 -96.638 281.978 387.331 o
-7 8 5 7290.050 8173.080 470.541 66.492 o
-7 8 6 5805.430 5744.290 569.350 64.263 o
-7 8 7 6013.890 5170.760 557.302 66.294 o
-7 8 8 20059.600 20239.500 1028.230 14.719 o
-7 8 9 2.474 -200.736 563.757 104.727 o
-7 8 10 12062.600 12263.100 861.482 25.804 o
-7 8 11 1508.280 3379.140 920.801 36.783 o
-7 8 12 325.366 -2312.470 1127.410 26.086 o
-7 9 1 89.067 -838.855 382.932 224.920 o
-7 9 2 949.754 923.163 596.879 87.737 o
-7 9 3 42091.800 42792.200 1010.180 6.302 o
-7 9 4 1803.650 1969.060 439.121 137.730 o
-7 9 5 18028.700 18594.200 1022.640 16.061 o
-7 9 6 3119.840 4043.300 527.773 87.938 o
-7 9 7 162.887 650.127 485.117 137.005 o
-7 9 8 14.259 134.953 487.962 139.074 o
-7 9 9 1381.190 2878.640 706.672 60.647 o
-7 9 10 394.788 626.314 641.694 78.701 o
-7 9 11 65.805 -495.765 724.253 63.340 o
-7 10 1 2311.130 2445.900 444.238 127.326 o
-7 10 2 2929.380 3047.610 460.004 112.571 o
-7 10 3 8802.130 9357.080 580.089 48.206 o
-7 10 4 5.066 -70.810 476.371 146.641 o
-7 10 5 11424.500 11881.200 589.270 38.779 o
-7 10 6 1487.520 1466.700 480.790 123.725 o
-7 10 7 5280.330 5278.450 643.375 56.812 o
-7 10 8 9989.720 10867.900 695.963 36.424 o
-7 10 9 2378.550 2247.900 533.854 95.538 o
-7 11 1 435.844 1962.410 474.021 134.258 o
-7 11 2 1157.840 1760.430 472.762 129.038 o
-7 11 3 3610.770 2598.420 513.001 93.053 o
-7 11 4 1885.260 1922.240 578.651 86.495 o
-7 11 5 579.861 789.602 487.457 131.444 o
-7 11 6 64.346 263.568 483.245 140.727 o
-6 0 2 196779.000 213530.000 2783.600 0.380 o
-6 0 4 55992.300 50927.600 1258.950 4.036 o
-6 0 6 114868.000 101746.000 3139.230 0.956 o
-6 0 8 79539.000 84265.100 2900.200 1.489 o
-6 0 10 7593.960 7377.980 1107.490 22.154 o
-6 0 12 19053.600 19114.200 1856.450 7.314 o
-6 0 14 17.440 772.855 1234.970 21.737 o
-6 0 16 701.931 -645.374 1282.780 20.094 o
-6 1 1 217463.000 228252.000 2092.680 0.335 o
-6 1 2 2414.780 2886.320 186.191 315.065 o
-6 1 3 50846.200 45732.500 704.220 5.494 o
-6 1 4 19361.300 19017.500 549.848 23.384 o
-6 1 5 1203.450 1418.090 338.903 226.443 o
-6 1 6 15530.600 16067.100 863.231 21.364 o
-6 1 7 5024.590 2501.820 740.985 49.176 o
-6 1 8 740.146 700.251 500.565 124.136 o
-6 1 9 2245.780 1803.860 545.655 94.080 o
-6 1 10 21049.700 21753.600 1154.910 12.545 o
-6 1 11 3894.600 4501.020 712.274 52.681 o
-6 1 12 17276.800 19722.300 1325.700 12.004 o
-6 1 13 8724.630 7832.130 1290.750 16.733 o
-6 1 14 5769.690 5923.910 1525.790 13.191 o
-6 1 15 931.672 2149.830 1227.010 21.624 o
-6 1 16 145.713 716.809 814.251 49.618 o
-6 1 17 2644.210 2591.810 1021.990 29.796 o
-6 2 1 464.226 283.112 201.564 663.579 o
-6 2 2 4143.360 4118.500 197.445 201.749 o
-6 2 3 3325.620 4004.190 303.779 169.223 o
-6 2 4 18546.400 18503.200 596.125 23.598 o
-6 2 5 84927.200 80963.100 1456.120 1.972 o
-6 2 6 23217.000 23231.800 958.585 13.635 o
-6 2 7 75267.100 70856.500 1768.910 2.245 o
-6 2 8 163.047 -883.876 513.909 124.859 o
-6 2 9 57217.900 58465.100 1694.800 3.233 o
-6 2 10 15968.200 17025.200 1975.960 6.983 o
-6 2 11 7331.930 7698.840 809.891 35.849 o
-6 2 12 4.941 603.864 679.511 71.359 o
-6 2 13 275.876 -527.436 1135.380 25.738 o
-6 2 14 851.047 1302.660 814.088 48.420 o
-6 2 15 13.878 1670.880 895.055 40.862 o
-6 2 16 2479.220 4155.090 1025.370 29.256 o
-6 3 1 535.070 -95.800 231.542 536.871 o
-6 3 2 2545.290 3059.400 189.784 297.955 o
-6 3 3 9286.990 10142.100 501.405 52.112 o
-6 3 4 22827.100 23523.700 817.723 15.315 o
-6 3 5 787.211 728.457 341.734 245.812 o
-6 3 6 5331.570 6680.600 693.179 49.377 o
-6 3 7 71934.100 70784.600 1795.220 2.333 o
-6 3 8 7818.870 7868.430 1442.130 14.035 o
-6 3 9 23975.700 23218.200 1181.680 11.195 o
-6 3 10 14582.600 17027.000 1120.090 16.297 o
-6 3 11 51.321 92.758 1051.720 30.054 o
-6 3 12 17308.400 14728.100 1258.040 13.553 o
-6 3 13 3542.190 2421.270 794.144 46.132 o
-6 3 14 2591.750 2287.540 900.728 37.842 o
-6 3 15 770.426 -1275.290 838.458 46.541 o
-6 3 16 6021.630 6780.090 2067.590 7.413 o
-6 4 1 84274.200 88521.300 1655.310 1.829 o
-6 4 2 84392.500 87754.300 1043.750 2.019 o
-6 4 3 8616.350 8154.320 356.807 73.562 o
-6 4 4 58218.600 59053.400 1020.550 3.839 o
-6 4 5 25101.100 25838.100 587.606 15.805 o
-6 4 6 4675.820 4519.430 555.364 73.406 o
-6 4 7 7460.950 6694.170 646.773 49.057 o
-6 4 8 22000.300 22866.400 1509.860 8.990 o
-6 4 9 31694.800 28627.500 1888.320 5.551 o
-6 4 10 19019.400 16903.400 1904.250 7.141 o
-6 4 11 11482.000 12468.100 1083.590 19.573 o
-6 4 12 1169.090 225.333 1043.750 29.981 o
-6 4 13 10213.400 8740.430 1394.330 14.224 o
-6 4 14 357.616 -313.264 763.257 56.602 o
-6 4 15 549.270 518.286 968.986 34.974 o
-6 4 16 16.486 -317.979 980.012 34.651 o
-6 5 1 146501.000 157626.000 1956.520 0.683 o
-6 5 2 59351.700 63271.800 960.058 3.669 o
-6 5 3 51217.300 50594.100 730.633 5.134 o
-6 5 4 28712.900 28572.600 552.580 13.468 o
-6 5 5 3970.160 3533.000 393.642 123.603 o
-6 5 6 715.037 343.775 393.264 197.180 o
-6 5 7 10245.700 8979.120 819.373 31.010 o
-6 5 8 34857.900 35318.500 1896.280 5.006 o
-6 5 9 13564.600 12336.700 1016.130 20.155 o
-6 5 10 2594.450 2177.800 1234.970 20.904 o
-6 5 11 11677.400 11489.200 1593.520 10.904 o
-6 5 12 2493.530 3123.290 1330.590 18.035 o
-6 5 13 2833.800 2773.280 939.710 34.605 o
-6 5 14 4310.640 2155.230 923.964 34.690 o
-6 5 15 2048.350 2250.920 1081.670 27.138 o
-6 6 1 513.919 807.090 252.484 424.460 o
-6 6 2 73.243 210.212 250.227 509.316 o
-6 6 3 6614.850 8540.420 342.158 87.633 o
-6 6 4 1762.530 1711.820 250.605 307.282 o
-6 6 5 27600.100 26337.700 653.296 13.832 o
-6 6 6 6857.890 6940.120 568.110 58.670 o
-6 6 7 35153.100 35234.000 1053.360 7.946 o
-6 6 8 10.522 180.978 590.357 95.091 o
-6 6 9 3493.260 3998.900 740.806 50.652 o
-6 6 10 2271.550 3272.550 767.189 50.388 o
-6 6 11 7274.320 7497.210 888.166 31.517 o
-6 6 12 11007.000 9984.730 1119.440 19.509 o
-6 6 13 11972.400 12700.300 1697.090 9.694 o
-6 6 14 3956.770 3634.920 1024.630 28.570 o
-6 7 1 1322.770 1439.850 269.709 310.238 o
-6 7 2 28115.600 29777.000 641.901 12.908 o
-6 7 3 1260.540 1338.000 232.699 384.335 o
-6 7 4 3888.140 4555.180 442.770 103.662 o
-6 7 5 6570.430 6520.760 557.262 61.713 o
-6 7 6 12575.800 15023.900 712.674 29.100 o
-6 7 7 16543.800 17345.300 803.648 21.478 o
-6 7 8 137.906 293.842 504.452 128.586 o
-6 7 9 3684.200 3803.120 771.609 47.148 o
-6 7 10 195.640 1089.420 2732.880 4.450 o
-6 7 11 571.459 125.689 1366.440 17.733 o
-6 7 12 2300.540 1322.620 1163.270 23.684 o
-6 7 13 18.509 408.332 2286.690 6.362 o
-6 7 14 1071.890 -207.157 1083.590 27.939 o
-6 8 1 6887.710 6256.830 450.152 76.116 o
-6 8 2 2008.700 1963.000 362.801 180.400 o
-6 8 3 25762.700 26137.900 766.711 13.801 o
-6 8 4 76.783 -125.544 280.797 415.988 o
-6 8 5 8941.830 8298.510 444.417 61.972 o
-6 8 6 258.183 -312.718 426.967 178.690 o
-6 8 7 4704.210 4941.070 736.013 48.023 o
-6 8 8 13437.500 13228.200 884.524 23.498 o
-6 8 9 2357.770 3056.070 611.162 74.787 o
-6 8 10 22067.100 21745.300 1488.180 9.238 o
-6 8 11 3343.580 4053.600 912.227 35.504 o
-6 8 12 5167.140 4845.230 1088.770 24.691 o
-6 9 1 328.601 325.665 423.044 178.341 o
-6 9 2 26045.500 24343.300 824.883 13.551 o
-6 9 3 4457.310 4203.340 462.075 95.471 o
-6 9 4 28328.700 27421.900 683.732 13.041 o
-6 9 5 3250.360 3614.650 368.895 142.194 o
-6 9 6 13802.300 16754.400 1035.920 18.358 o
-6 9 7 2666.430 2390.590 486.517 108.161 o
-6 9 8 23985.100 23531.300 1250.070 10.561 o
-6 9 9 607.498 -863.251 515.056 121.116 o
-6 9 10 779.970 840.646 759.657 55.801 o
-6 9 11 447.940 818.568 828.013 47.604 o
-6 10 1 20213.000 18948.700 973.461 15.699 o
-6 10 2 0.190 -335.239 443.763 169.039 o
-6 10 3 14934.800 14976.600 722.070 26.127 o
-6 10 4 2809.890 3516.960 477.380 105.810 o
-6 10 5 9875.940 10702.600 542.967 46.462 o
-6 10 6 495.344 468.271 452.341 153.992 o
-6 10 7 4142.450 5546.340 562.771 72.172 o
-6 10 8 229.770 -261.426 472.302 146.894 o
-6 10 9 2543.960 2500.790 580.852 81.788 o
-6 11 1 56.092 123.113 456.750 158.196 o
-6 11 2 5785.900 6201.680 777.129 41.405 o
-6 11 3 1398.010 2082.180 551.092 96.278 o
-6 11 4 22.846 -159.669 455.439 160.216 o
-6 11 5 7011.960 7898.960 598.273 53.411 o
-6 11 6 4051.330 3522.630 696.655 55.336 o
-6 11 7 2212.680 1800.310 575.679 86.064 o
-5 0 2 18118.500 17000.000 492.876 27.113 o
-5 0 4 58568.600 53534.100 1808.640 3.164 o
-5 0 6 88933.700 88878.300 2828.490 1.355 o
-5 0 8 43919.100 42626.500 1944.090 4.034 o
-5 0 10 81.304 1242.940 876.433 42.718 o
-5 0 12 15940.600 18731.800 1999.860 6.782 o
-5 0 14 1374.380 430.249 1242.940 21.187 o
-5 0 16 840.112 -748.952 1219.040 22.201 o
-5 1 1 177.675 451.684 128.527 1459.690 o
-5 1 2 259359.000 260322.000 3038.820 0.239 o
-5 1 3 1285.380 759.182 231.546 409.619 o
-5 1 4 174267.000 171234.000 2312.130 0.516 o
-5 1 5 259.752 -10.531 331.703 291.896 o
-5 1 6 122989.000 115553.000 2450.060 0.939 o
-5 1 7 11496.500 10867.600 870.590 26.625 o
-5 1 8 7425.580 7281.880 664.159 46.891 o
-5 1 9 35536.800 36932.500 1338.050 6.662 o
-5 1 10 10150.300 10928.200 864.684 28.092 o
-5 1 11 1927.500 672.860 588.563 86.438 o
-5 1 12 10270.000 8543.110 863.144 29.212 o
-5 1 13 5682.130 4485.750 1290.750 18.109 o
-5 1 14 2004.150 2379.120 1003.910 31.260 o
-5 1 15 3925.390 3126.060 1071.640 26.489 o
-5 1 16 115.216 -463.303 1856.450 9.654 o
-5 1 17 475.969 1676.310 2067.590 7.748 o
-5 2 1 862.771 1894.900 169.419 564.372 o
-5 2 2 2478.460 2147.400 165.650 362.168 o
-5 2 3 19264.300 16956.700 493.274 25.701 o
-5 2 4 480.657 1094.270 286.792 336.979 o
-5 2 5 1365.200 930.091 495.287 120.630 o
-5 2 6 37093.300 39453.800 1227.530 6.643 o
-5 2 7 2102.940 3825.400 583.556 80.224 o
-5 2 8 10503.700 8563.870 707.492 36.798 o
-5 2 9 652.336 1146.380 562.666 98.924 o
-5 2 10 10502.800 11096.200 1617.420 10.839 o
-5 2 11 1587.510 1060.070 952.125 35.320 o
-5 2 12 9454.070 8386.440 1952.060 7.981 o
-5 2 13 11062.900 10146.900 1780.750 9.171 o
-5 2 14 3993.930 3919.120 874.433 37.641 o
-5 2 15 5675.600 6577.180 1442.130 14.587 o
-5 2 16 38.636 1583.180 917.419 38.939 o
-5 3 1 61569.400 64950.900 841.558 3.553 o
-5 3 2 64460.500 71320.700 884.809 3.170 o
-5 3 3 4219.190 3835.560 293.581 158.108 o
-5 3 4 63662.100 64683.800 1207.260 3.185 o
-5 3 5 61782.900 61624.600 1226.680 3.355 o
-5 3 6 11247.800 10120.700 821.254 29.189 o
-5 3 7 27609.200 27002.100 1697.090 6.810 o
-5 3 8 6244.050 6621.060 1043.750 25.417 o
-5 3 9 8893.080 7082.210 840.579 32.556 o
-5 3 10 2799.280 4673.870 738.044 51.643 o
-5 3 11 2480.750 2540.010 723.812 56.175 o
-5 3 12 551.657 2058.600 1071.640 28.341 o
-5 3 13 14296.800 14469.100 1617.420 10.017 o
-5 3 14 13449.800 11353.400 1140.320 17.605 o
-5 3 15 1173.740 59.489 821.233 47.969 o
-5 3 16 206.435 664.511 861.770 44.320 o
-5 4 1 3935.280 4878.260 285.908 156.915 o
-5 4 2 130970.000 128270.000 1455.020 0.920 o
-5 4 3 2961.240 3321.220 224.563 240.595 o
-5 4 4 117859.000 115696.000 1382.940 1.116 o
-5 4 5 13346.800 12292.000 522.407 37.802 o
-5 4 6 20470.000 19481.400 1354.490 10.946 o
-5 4 7 2492.690 2671.090 657.325 66.256 o
-5 4 8 5564.510 5924.320 704.458 48.548 o
-5 4 9 147.483 573.313 615.301 86.381 o
-5 4 10 4254.150 4196.280 711.874 52.291 o
-5 4 11 75.281 693.179 1051.720 29.917 o
-5 4 12 5984.220 4167.040 1362.460 16.378 o
-5 4 13 2267.860 590.587 1278.800 19.817 o
-5 4 14 1875.320 2036.090 1017.460 30.648 o
-5 4 15 7.084 -1552.410 865.516 44.431 o
-5 4 16 2896.890 3479.340 1081.010 26.486 o
-5 5 1 56415.700 63766.300 952.946 3.860 o
-5 5 2 63097.000 63768.500 959.890 3.417 o
-5 5 3 3228.210 3691.240 242.010 212.067 o
-5 5 4 54800.400 51999.200 780.124 4.639 o
-5 5 5 8015.940 7803.850 422.690 69.868 o
-5 5 6 44061.100 43461.800 1134.750 5.712 o
-5 5 7 33199.800 35431.900 1297.770 7.270 o
-5 5 8 23724.600 23760.400 2123.360 5.468 o
-5 5 9 1757.840 2080.990 698.752 61.953 o
-5 5 10 605.179 1719.960 1007.900 32.010 o
-5 5 11 4735.780 5060.260 827.783 39.669 o
-5 5 12 1203.690 1705.670 779.918 51.764 o
-5 5 13 2379.670 1665.220 1314.650 18.642 o
-5 5 14 545.228 -108.712 1330.590 18.712 o
-5 5 15 50.167 -716.122 931.978 38.291 o
-5 6 1 26678.500 25585.300 565.444 15.168 o
-5 6 2 29443.600 26566.400 617.500 13.186 o
-5 6 3 9271.360 8988.560 405.781 62.880 o
-5 6 4 22687.700 21157.800 573.142 19.131 o
-5 6 5 9934.450 10576.300 664.032 38.600 o
-5 6 6 2204.950 2256.340 404.700 148.819 o
-5 6 7 323.519 352.884 467.166 147.248 o
-5 6 8 2369.510 2372.880 638.450 70.501 o
-5 6 9 8797.280 7755.160 839.470 32.343 o
-5 6 10 1127.090 1826.400 752.096 55.466 o
-5 6 11 10058.700 9721.100 1242.940 17.034 o
-5 6 12 299.401 -461.893 1677.170 11.815 o
-5 6 13 1665.830 1461.720 1171.230 23.558 o
-5 6 14 1483.360 756.920 1147.330 24.702 o
-5 7 1 30742.900 34709.200 698.187 10.700 o
-5 7 2 856.083 931.200 282.965 327.481 o
-5 7 3 6126.850 6877.420 344.825 98.044 o
-5 7 4 879.315 1281.210 288.584 307.247 o
-5 7 5 10865.200 12025.000 701.749 33.879 o
-5 7 6 9696.510 9376.300 543.271 48.699 o
-5 7 7 3983.190 3728.910 491.244 92.874 o
-5 7 8 18208.700 20184.300 1037.480 15.395 o
-5 7 9 3644.850 3262.680 798.300 44.955 o
-5 7 10 17497.300 15087.200 2541.660 4.526 o
-5 7 11 205.235 815.018 859.160 44.515 o
-5 7 12 241.328 1322.980 919.585 38.705 o
-5 7 13 6211.280 5309.440 1073.910 24.609 o
-5 7 14 765.955 695.790 974.092 34.430 o
-5 8 1 3741.190 3564.380 527.741 85.870 o
-5 8 2 54617.400 50365.000 1008.270 4.476 o
-5 8 3 6.569 -56.299 257.034 503.102 o
-5 8 4 48389.000 46572.600 840.198 5.551 o
-5 8 5 1327.390 1226.450 353.683 211.007 o
-5 8 6 2656.820 2341.580 456.483 119.437 o
-5 8 7 8184.540 10373.500 699.493 39.664 o
-5 8 8 4716.570 5108.070 589.011 66.445 o
-5 8 9 792.590 -639.235 656.860 74.963 o
-5 8 10 840.567 699.921 865.109 43.360 o
-5 8 11 571.323 -1110.480 1159.470 24.597 o
-5 8 12 301.230 482.001 1258.880 20.893 o
-5 9 1 3818.550 3089.310 473.075 101.155 o
-5 9 2 4549.860 4860.010 503.288 83.317 o
-5 9 3 4014.150 4691.280 470.587 94.710 o
-5 9 4 4815.640 4393.530 380.347 114.091 o
-5 9 5 1192.210 876.449 436.061 153.274 o
-5 9 6 15118.200 16472.100 783.055 23.526 o
-5 9 7 10127.500 9972.980 741.314 34.437 o
-5 9 8 19845.100 17968.100 851.610 18.053 o
-5 9 9 919.314 2328.900 636.835 75.505 o
-5 9 10 950.181 3422.230 992.377 32.282 o
-5 9 11 1082.480 -973.397 1003.910 32.467 o
-5 10 1 437.652 797.912 552.038 104.656 o
-5 10 2 28725.300 27698.800 954.071 10.948 o
-5 10 3 6289.490 6032.130 628.709 54.758 o
-5 10 4 14822.400 14611.600 752.042 25.546 o
-5 10 5 22209.600 20738.300 1171.900 12.161 o
-5 10 6 411.647 778.865 603.341 88.355 o
-5 10 7 978.224 771.141 543.560 104.756 o
-5 10 8 5911.240 5162.990 571.039 64.698 o
-5 10 9 6810.780 8357.320 639.104 49.338 o
-5 11 1 11829.500 11194.900 794.413 29.074 o
-5 11 2 1718.120 1364.030 480.104 122.472 o
-5 11 3 147.927 235.758 467.482 149.510 o
-5 11 4 154.316 510.667 480.789 140.138 o
-5 11 5 47.818 -185.861 466.895 152.196 o
-5 11 6 20622.000 19386.600 908.469 16.330 o
-5 11 7 1893.680 972.204 552.966 96.019 o
-4 0 2 1269.030 -43.737 264.615 367.068 o
-4 0 4 87338.700 81253.300 2446.050 1.562 o
-4 0 6 102274.000 113753.000 3402.160 0.959 o
-4 0 8 11398.300 10971.400 1250.910 16.198 o
-4 0 10 1353.540 2493.850 892.369 39.559 o
-4 0 14 6400.670 7744.480 1306.680 17.069 o
-4 0 16 3214.730 2892.230 1521.810 13.843 o
-4 1 1 13320.500 14533.200 311.686 43.953 o
-4 1 2 14568.700 14303.100 530.768 33.342 o
-4 1 3 26645.400 28438.400 569.983 14.395 o
-4 1 4 24268.400 23466.900 589.435 17.023 o
-4 1 5 11285.600 13466.100 615.648 36.220 o
-4 1 6 62479.600 58181.600 1500.480 3.171 o
-4 1 7 63321.300 65588.400 1670.280 2.820 o
-4 1 8 371.412 514.724 541.795 109.699 o
-4 1 9 31392.800 31261.500 1276.000 8.018 o
-4 1 10 20351.400 20043.800 1181.680 12.738 o
-4 1 11 12214.000 12528.500 1105.770 18.665 o
-4 1 12 26762.400 28556.100 1480.570 7.937 o
-4 1 13 397.900 1474.000 1673.190 11.813 o
-4 1 14 8265.840 8153.370 1011.000 24.939 o
-4 1 15 1877.380 1744.670 1446.120 15.560 o
-4 1 16 5282.110 6348.380 1083.990 24.433 o
-4 2 1 12.867 44.588 141.059 1629.020 o
-4 2 2 35989.100 36400.700 540.073 9.464 o
-4 2 3 20283.000 18950.500 527.132 22.875 o
-4 2 4 27024.000 24931.700 625.361 14.681 o
-4 2 5 12245.200 12306.900 1051.720 20.014 o
-4 2 6 10244.000 11871.700 1274.810 15.960 o
-4 2 7 84641.300 79868.100 1948.460 1.811 o
-4 2 8 109.300 -388.585 540.769 113.185 o
-4 2 9 60372.200 58781.400 1717.660 3.053 o
-4 2 10 46470.900 46161.000 1619.750 4.359 o
-4 2 11 2145.720 2088.570 715.243 58.552 o
-4 2 12 18944.200 19475.700 1354.880 11.303 o
-4 2 13 17222.800 15321.600 1609.450 9.578 o
-4 2 14 562.286 533.195 779.552 53.613 o
-4 2 15 3378.740 4962.300 968.593 31.536 o
-4 2 16 1444.020 989.374 836.283 45.476 o
-4 3 1 23409.600 25970.400 392.453 18.584 o
-4 3 2 28242.100 26408.800 449.489 14.877 o
-4 3 3 7977.790 6918.460 288.684 91.298 o
-4 3 4 93522.400 89403.300 1334.230 1.707 o
-4 3 5 17645.800 15306.900 543.369 27.648 o
-4 3 6 21003.400 21710.100 969.784 14.758 o
-4 3 7 10487.400 12720.600 1609.450 10.811 o
-4 3 8 20449.200 18409.900 1048.090 14.670 o
-4 3 9 3621.770 3366.230 666.895 60.675 o
-4 3 10 87876.600 89316.500 3322.480 1.214 o
-4 3 11 7049.780 6530.250 895.582 31.816 o
-4 3 12 31499.400 29552.800 2326.530 4.231 o
-4 3 13 7426.580 8282.650 1505.870 13.037 o
-4 3 14 4942.710 4537.680 951.684 31.459 o
-4 3 15 3268.500 1880.600 1155.300 23.553 o
-4 3 16 164.281 -589.601 852.531 45.642 o
-4 4 1 36212.200 40457.300 613.863 8.668 o
-4 4 2 9915.290 11967.500 325.979 59.953 o
-4 4 3 30901.000 33564.500 562.371 11.474 o
-4 4 4 3911.410 3622.070 260.736 182.906 o
-4 4 5 1026.790 1521.100 333.506 235.937 o
-4 4 6 11011.800 11657.500 891.664 25.934 o
-4 4 7 16777.400 17346.400 991.698 17.513 o
-4 4 8 711.313 1696.650 597.213 87.044 o
-4 4 9 10010.500 10031.200 838.458 29.812 o
-4 4 10 4014.190 3535.580 719.494 52.576 o
-4 4 11 16.685 -371.302 703.278 67.269 o
-4 4 13 4152.610 4969.390 1342.540 17.163 o
-4 4 14 2499.670 1706.110 954.047 34.300 o
-4 4 15 50.012 682.289 1087.570 27.999 o
-4 4 16 171.655 789.359 944.690 36.932 o
-4 5 1 320.020 815.851 247.925 456.008 o
-4 5 2 48760.300 52867.800 1327.570 4.421 o
-4 5 3 25463.700 25805.400 513.538 16.227 o
-4 5 4 4809.500 5658.070 302.134 130.321 o
-4 5 5 23831.100 26619.800 723.525 15.015 o
-4 5 6 970.843 1625.160 451.385 142.538 o
-4 5 7 12115.700 13338.200 816.415 26.817 o
-4 5 8 2629.750 2543.000 623.931 72.176 o
-4 5 9 6290.820 6828.320 779.276 40.000 o
-4 5 10 824.819 -236.511 692.904 67.488 o
-4 5 11 51.849 492.337 1187.170 23.542 o
-4 5 12 15554.700 17766.500 2346.450 5.229 o
-4 5 13 2150.880 530.552 808.101 47.922 o
-4 5 14 3204.190 5425.920 1434.160 15.300 o
-4 5 15 2424.750 949.548 913.821 37.565 o
-4 6 1 1718.990 1711.780 267.734 286.077 o
-4 6 2 141.886 71.355 203.550 753.717 o
-4 6 3 6280.550 7034.690 337.939 97.322 o
-4 6 4 17568.800 17118.100 539.972 26.678 o
-4 6 5 208.291 672.199 471.508 144.191 o
-4 6 6 45284.900 45547.700 1201.670 5.312 o
-4 6 7 5833.540 6877.750 640.797 53.496 o
-4 6 8 52.861 -841.285 750.085 59.081 o
-4 6 9 5392.840 6266.540 817.769 38.791 o
-4 6 10 20949.200 21469.900 1349.110 10.658 o
-4 6 11 10700.200 10212.200 1153.680 18.742 o
-4 6 12 12695.300 10667.400 1078.740 19.534 o
-4 6 13 61.921 -1500.640 812.083 50.405 o
-4 6 14 8.808 1369.420 1230.990 21.810 o
-4 7 1 342.503 225.018 307.434 327.570 o
-4 7 2 21009.500 20310.000 493.757 22.008 o
-4 7 3 183.099 184.203 244.009 521.775 o
-4 7 4 835.707 938.894 332.757 252.146 o
-4 7 5 656.164 1468.540 375.506 203.244 o
-4 7 6 109.748 -348.025 498.373 133.123 o
-4 7 7 20103.600 17909.900 1059.170 14.763 o
-4 7 8 7635.700 6825.050 695.983 44.232 o
-4 7 9 16321.500 15846.800 982.334 18.341 o
-4 7 10 7526.580 7851.660 1133.140 21.260 o
-4 7 11 1237.280 3821.090 966.345 33.628 o
-4 7 12 154.835 -2476.060 847.780 46.163 o
-4 7 13 17699.500 21490.000 1641.410 8.785 o
-4 8 1 7174.060 7622.930 461.101 69.535 o
-4 8 2 344.013 -64.650 393.689 207.620 o
-4 8 3 181.988 479.983 292.285 361.790 o
-4 8 4 74.754 152.786 300.458 359.495 o
-4 8 5 6562.140 7939.580 625.842 51.778 o
-4 8 6 1252.370 1214.550 410.664 166.587 o
-4 8 7 43244.400 43106.200 1038.640 6.055 o
-4 8 8 802.155 1234.550 565.673 96.973 o
-4 8 9 950.237 422.759 757.107 56.228 o
-4 8 10 13424.000 12394.300 1139.360 17.411 o
-4 8 11 3271.980 3230.120 1928.150 8.733 o
-4 8 12 12372.500 18702.200 1612.870 10.032 o
-4 9 1 5340.510 6174.860 503.803 75.593 o
-4 9 2 23690.700 24549.700 944.799 13.326 o
-4 9 3 1872.190 1742.850 357.539 189.332 o
-4 9 4 527.969 635.371 365.097 226.800 o
-4 9 5 416.057 42.241 411.368 189.089 o
-4 9 6 9211.180 9059.740 566.012 48.655 o
-4 9 7 228.637 -310.941 411.929 192.181 o
-4 9 8 3779.480 4261.490 534.187 82.394 o
-4 9 9 57.722 -38.589 609.395 89.426 o
-4 9 10 526.666 176.583 700.466 66.532 o
-4 9 11 263.098 454.995 715.474 64.068 o
-4 10 1 1315.310 3057.960 581.792 85.693 o
-4 10 2 2644.040 1710.620 429.026 134.538 o
-4 10 3 18662.700 18071.000 622.066 23.178 o
-4 10 4 894.665 767.487 356.873 224.638 o
-4 10 5 8144.700 8022.440 566.945 53.047 o
-4 10 6 283.823 347.909 465.731 148.572 o
-4 10 7 7718.060 7164.640 902.467 30.509 o
-4 10 8 2175.420 2744.740 554.604 89.493 o
-4 10 9 1696.040 2166.370 748.899 54.613 o
-4 11 1 12.478 -659.432 654.747 77.617 o
-4 11 2 177.526 433.106 635.301 81.242 o
-4 11 3 728.831 994.825 461.719 142.801 o
-4 11 4 287.540 -506.803 577.337 98.554 o
-4 11 5 2911.120 2939.260 522.774 93.567 o
-4 11 6 4003.180 3260.900 830.802 41.503 o
-4 11 7 323.555 615.457 502.439 126.863 o
-4 12 1 3899.700 2552.800 651.268 63.410 o
-3 0 2 48568.300 44253.000 940.815 5.505 o
-3 0 4 128166.000 124596.000 2450.740 0.863 o
-3 0 6 10315.900 11266.200 1147.330 18.835 o
-3 0 8 2258.820 2748.810 812.693 45.810 o
-3 0 10 17386.100 20038.500 1673.190 8.689 o
-3 0 12 9327.430 8971.490 1298.710 16.213 o
-3 0 14 980.552 1123.430 1187.170 23.200 o
-3 0 16 14.824 103.578 1075.620 28.747 o
-3 1 1 30.825 -25.889 80.509 4787.960 o
-3 1 2 15752.200 13457.400 401.833 36.293 o
-3 1 3 95.819 248.655 202.773 747.830 o
-3 1 4 80681.100 78259.400 1365.670 2.159 o
-3 1 5 59263.200 57560.800 1692.830 3.158 o
-3 1 6 99673.100 106224.000 2318.360 1.243 o
-3 1 7 15780.100 15337.200 953.443 19.400 o
-3 1 8 3673.580 3690.140 587.755 73.243 o
-3 1 9 3359.480 2951.440 1195.140 21.883 o
-3 1 10 11240.100 11968.800 997.056 22.204 o
-3 1 11 3971.950 4487.740 733.925 50.058 o
-3 1 12 27522.200 32155.200 1575.060 7.084 o
-3 1 13 8004.210 7446.390 1657.260 10.959 o
-3 1 14 81.253 -1163.770 714.910 64.973 o
-3 1 15 134.366 156.416 892.369 41.632 o
-3 1 16 795.727 1800.200 896.375 40.025 o
-3 2 1 9032.560 13360.800 247.254 66.250 o
-3 2 2 1087.610 1695.810 161.980 566.015 o
-3 2 3 37878.900 41752.100 668.080 7.996 o
-3 2 4 4472.580 4196.700 252.294 167.171 o
-3 2 5 82497.200 75101.300 1076.500 2.255 o
-3 2 6 279.423 202.874 525.860 117.854 o
-3 2 7 63609.200 69081.400 1760.270 2.670 o
-3 2 8 7455.770 7816.190 1075.620 23.185 o
-3 2 9 194.546 -730.577 1342.540 18.438 o
-3 2 10 5527.540 4890.510 784.806 42.168 o
-3 2 11 9523.840 10046.300 937.935 26.120 o
-3 2 12 2351.200 2546.570 1071.640 27.411 o
-3 2 13 10935.700 8094.220 1135.380 19.570 o
-3 2 14 6409.120 7079.620 1042.420 25.233 o
-3 2 15 6125.540 8134.960 2075.550 7.319 o
-3 2 16 28.799 1145.670 935.825 37.604 o
-3 3 1 15727.000 17303.800 364.272 33.623 o
-3 3 2 32727.800 35604.500 509.982 10.680 o
-3 3 3 9450.320 9372.490 355.242 65.912 o
-3 3 4 13328.000 12800.400 452.926 40.400 o
-3 3 5 14622.500 13002.000 899.287 22.261 o
-3 3 6 14801.100 15542.700 1115.460 16.605 o
-3 3 7 51305.300 52757.900 1531.930 3.934 o
-3 3 8 68.133 105.671 543.476 111.999 o
-3 3 9 3043.090 2762.830 627.311 69.790 o
-3 3 10 1170.770 1163.470 650.917 73.497 o
-3 3 11 251.285 -780.822 940.174 37.495 o
-3 3 12 37864.400 38913.600 2390.270 3.590 o
-3 3 13 9183.230 9549.720 1149.280 19.664 o
-3 3 14 8675.300 11930.700 3079.470 3.369 o
-3 3 15 2187.230 2051.940 922.245 36.663 o
-3 3 16 31.543 -1880.940 884.401 42.533 o
-3 4 1 48.449 153.357 196.647 820.102 o
-3 4 2 22.713 -74.577 182.787 986.096 o
-3 4 3 38219.500 38128.900 610.989 8.475 o
-3 4 4 49444.100 49480.000 819.353 5.285 o
-3 4 5 17249.900 16266.300 632.355 25.346 o
-3 4 6 21219.200 22882.000 851.541 15.892 o
-3 4 7 495.707 1047.760 545.779 105.923 o
-3 4 8 1142.540 445.287 587.713 90.520 o
-3 4 9 1771.780 1713.270 636.987 73.733 o
-3 4 10 9455.850 11326.200 945.698 25.379 o
-3 4 11 38.328 122.621 672.582 73.340 o
-3 4 12 12063.600 11784.000 1513.840 11.767 o
-3 4 13 138.928 1322.620 1227.010 21.925 o
-3 4 14 51.564 -331.999 869.076 44.028 o
-3 4 15 448.393 740.640 964.295 35.304 o
-3 5 1 21674.400 20298.100 453.174 21.928 o
-3 5 2 8504.880 8059.670 291.614 82.285 o
-3 5 3 22035.700 21818.800 438.354 21.050 o
-3 5 4 5221.620 4871.420 331.266 121.310 o
-3 5 5 28777.600 30054.600 1000.520 10.284 o
-3 5 6 17923.500 17107.100 824.776 20.092 o
-3 5 7 1618.830 2290.330 490.427 115.222 o
-3 5 8 33793.800 34118.500 1351.260 7.061 o
-3 5 9 1898.770 3009.800 673.295 64.677 o
-3 5 10 11209.100 12636.800 1458.070 12.589 o
-3 5 11 620.797 1427.880 824.203 47.479 o
-3 5 12 6618.730 8598.310 1310.750 16.796 o
-3 5 13 215.984 293.526 1063.670 29.277 o
-3 5 14 449.886 36.870 1386.360 17.254 o
-3 5 15 305.212 509.925 1219.040 22.269 o
-3 6 1 1363.760 806.755 280.306 308.030 o
-3 6 2 2403.580 2845.070 219.496 280.958 o
-3 6 3 4523.540 4667.610 254.365 160.282 o
-3 6 4 490.232 305.831 228.248 534.825 o
-3 6 5 10749.000 11675.800 510.376 45.094 o
-3 6 6 16076.100 16285.800 692.081 25.075 o
-3 6 7 6492.270 6589.810 611.328 55.367 o
-3 6 8 1798.520 2488.930 548.663 93.771 o
-3 6 9 15662.700 14150.400 1182.120 15.365 o
-3 6 10 15798.700 14828.400 1306.160 13.314 o
-3 6 11 19412.800 22229.500 2119.380 5.821 o
-3 6 12 22245.500 20402.400 2071.570 5.896 o
-3 6 13 17755.700 20604.600 2334.500 5.105 o
-3 6 14 3252.180 4833.600 988.646 30.537 o
-3 7 1 25564.100 27295.900 699.960 14.200 o
-3 7 2 112.573 -77.279 192.381 859.340 o
-3 7 3 5246.430 4643.810 264.995 143.219 o
-3 7 4 255.181 -133.571 256.147 478.587 o
-3 7 5 2809.520 2191.750 322.146 189.364 o
-3 7 6 11535.700 11349.700 502.966 43.949 o
-3 7 7 52237.300 53212.400 1408.110 4.028 o
-3 7 8 11519.300 13404.600 895.068 24.653 o
-3 7 9 2086.530 1499.120 734.002 56.558 o
-3 7 10 11582.500 13686.700 1309.530 14.644 o
-3 7 11 36929.800 34619.100 2438.080 3.628 o
-3 7 12 5506.350 5128.590 1055.540 25.796 o
-3 7 13 456.828 413.445 922.245 38.662 o
-3 8 1 3985.030 3946.740 341.296 140.846 o
-3 8 2 72.469 46.449 210.276 728.691 o
-3 8 3 957.582 470.439 242.178 426.770 o
-3 8 4 535.373 707.820 251.494 429.776 o
-3 8 5 5441.090 5649.020 388.953 99.922 o
-3 8 6 14397.600 14022.200 713.829 27.500 o
-3 8 7 9163.720 11053.500 564.041 46.332 o
-3 8 8 4884.210 5596.880 706.323 50.113 o
-3 8 9 292.127 177.871 622.487 84.613 o
-3 8 10 12.538 -314.940 855.615 45.459 o
-3 8 11 849.374 815.224 720.443 61.703 o
-3 8 12 3856.180 2491.260 908.820 35.987 o
-3 9 1 5927.080 6200.300 545.627 66.319 o
-3 9 2 1464.510 1756.760 284.463 274.817 o
-3 9 3 3252.880 3726.650 313.777 168.245 o
-3 9 4 1792.970 1591.010 347.210 201.140 o
-3 9 5 156.408 809.427 356.884 244.445 o
-3 9 6 682.749 1081.070 390.547 193.086 o
-3 9 7 1205.630 1592.530 689.294 65.409 o
-3 9 8 3013.530 3649.010 533.097 88.277 o
-3 9 9 50.998 742.137 501.953 128.757 o
-3 9 10 2589.800 3253.130 675.875 62.149 o
-3 9 11 3136.210 2842.990 755.564 50.641 o
-3 10 1 248.348 -356.793 397.026 206.163 o
-3 10 2 2213.530 2509.070 281.934 234.102 o
-3 10 3 984.260 489.534 281.362 335.774 o
-3 10 4 326.060 321.867 341.241 268.315 o
-3 10 5 360.654 323.332 365.752 234.489 o
-3 10 6 14725.700 14490.400 748.113 25.823 o
-3 10 7 2.165 -742.282 461.384 156.352 o
-3 10 8 3101.410 3275.780 542.076 86.584 o
-3 10 9 2090.050 2855.950 797.995 47.517 o
-3 11 1 8183.960 8508.150 586.430 50.440 o
-3 11 2 876.566 890.675 434.730 158.084 o
-3 11 3 88.569 -141.746 441.838 169.340 o
-3 11 4 1190.100 673.603 480.738 129.883 o
-3 11 5 348.622 615.723 472.849 142.290 o
-3 11 6 4919.040 3927.830 543.868 75.749 o
-3 11 7 6772.610 5992.090 597.998 56.949 o
-3 12 1 979.631 927.456 503.050 120.275 o
-3 12 2 113.546 501.743 513.887 123.407 o
-2 0 2 74365.800 82732.700 1580.310 2.189 o
-2 0 4 159304.000 161854.000 3090.210 0.551 o
-2 0 6 373910.000 380133.000 9935.570 0.091 o
-2 0 8 46847.800 43757.900 1960.020 3.805 o
-2 0 10 51450.600 52139.800 2350.430 2.866 o
-2 0 12 11554.000 10286.100 1418.230 13.349 o
-2 0 14 165.560 -2071.570 980.012 34.569 o
-2 0 16 21175.400 20285.400 2454.010 4.559 o
-2 1 1 29171.300 33819.600 381.205 12.887 o
-2 1 2 850.126 994.658 151.866 738.211 o
-2 1 3 10311.700 10003.000 399.057 56.967 o
-2 1 4 1034.050 949.285 252.121 376.440 o
-2 1 5 191371.000 199279.000 3267.210 0.395 o
-2 1 6 37747.100 36523.400 1657.260 5.401 o
-2 1 7 3720.160 3418.920 629.439 66.170 o
-2 1 8 1899.720 1366.660 546.691 96.851 o
-2 1 9 10030.700 9841.060 1127.410 19.795 o
-2 1 10 686.218 955.247 689.195 67.407 o
-2 1 11 17196.100 19911.800 1222.410 13.259 o
-2 1 12 103.937 -113.200 968.061 35.461 o
-2 1 13 81.113 -347.615 766.152 56.591 o
-2 1 14 1251.230 629.660 810.347 48.771 o
-2 1 15 4281.460 4059.320 1111.480 24.402 o
-2 1 16 6.691 249.166 939.045 37.664 o
-2 2 1 451.259 451.316 100.240 1604.700 o
-2 2 2 5583.220 5715.550 222.181 140.878 o
-2 2 3 1410.480 1422.130 177.035 494.120 o
-2 2 4 83448.400 83179.200 1028.370 2.115 o
-2 2 5 2333.040 1808.890 274.808 249.445 o
-2 2 6 4857.710 4288.340 427.549 100.989 o
-2 2 7 74600.900 73734.800 1842.190 2.183 o
-2 2 8 2409.640 2662.310 606.912 76.207 o
-2 2 9 101610.000 98643.300 2388.610 1.250 o
-2 2 10 133.151 119.514 900.336 40.916 o
-2 2 11 4341.090 5200.490 847.984 38.515 o
-2 2 12 2325.770 3394.940 1545.710 13.511 o
-2 2 13 2115.720 1784.450 927.923 36.409 o
-2 2 14 5485.690 5216.840 963.352 30.125 o
-2 2 15 13695.700 12378.400 1240.660 15.372 o
-2 2 16 7.099 -68.562 876.802 43.294 o
-2 3 1 13105.100 14880.200 278.068 45.260 o
-2 3 2 8653.590 8162.550 251.432 85.373 o
-2 3 3 29.162 -127.628 170.607 1126.430 o
-2 3 4 19190.800 18074.900 506.504 24.878 o
-2 3 5 136.335 322.542 316.758 317.198 o
-2 3 6 9302.010 8405.470 1127.410 20.473 o
-2 3 7 4763.300 5524.940 646.613 57.479 o
-2 3 8 7481.820 6571.540 713.116 43.375 o
-2 3 9 1771.230 1734.420 615.354 78.403 o
-2 3 10 51.063 -35.801 625.577 84.892 o
-2 3 11 11561.000 11358.700 951.334 23.596 o
-2 3 12 25293.100 24181.600 2151.250 5.251 o
-2 3 13 230.930 1034.590 897.303 40.744 o
-2 3 14 14300.200 12198.600 1236.640 15.268 o
-2 3 15 333.559 309.363 911.762 39.679 o
-2 3 16 4.301 480.867 1000.450 33.134 o
-2 4 1 26358.600 22763.200 331.722 18.000 o
-2 4 2 56443.100 61288.600 761.215 4.107 o
-2 4 3 49636.300 48968.200 655.277 5.504 o
-2 4 4 80.026 -43.560 247.772 531.627 o
-2 4 5 17369.200 20024.900 663.275 22.644 o
-2 4 6 24105.300 24499.600 725.425 15.408 o
-2 4 7 6607.030 7710.410 664.077 48.246 o
-2 4 8 1439.050 1156.970 617.487 80.140 o
-2 4 9 4033.810 4882.480 730.787 49.905 o
-2 4 10 857.819 758.831 691.874 66.736 o
-2 4 11 1132.850 1629.510 733.917 58.255 o
-2 4 13 3512.170 4277.060 937.631 33.577 o
-2 4 14 5.443 764.887 1195.140 23.207 o
-2 4 15 569.815 767.385 1076.180 28.368 o
-2 5 1 612.752 290.416 153.931 931.883 o
-2 5 2 7814.570 8976.800 352.216 76.467 o
-2 5 3 14232.900 14816.500 402.506 38.058 o
-2 5 4 17048.400 14441.100 506.496 30.048 o
-2 5 5 1124.050 1896.450 348.512 212.613 o
-2 5 6 48229.400 51562.400 1058.680 4.950 o
-2 5 7 600.468 847.860 373.227 213.694 o
-2 5 8 5233.190 5074.970 490.347 81.536 o
-2 5 9 1344.640 2019.620 638.539 74.278 o
-2 5 10 678.290 755.352 1179.200 23.650 o
-2 5 11 3205.130 3767.350 850.499 40.492 o
-2 5 12 1473.550 2592.800 1804.660 10.071 o
-2 5 13 518.125 420.320 915.188 39.204 o
-2 5 14 129.280 570.628 840.563 46.687 o
-2 5 15 624.765 -142.842 895.635 40.995 o
-2 6 1 18961.600 19210.300 432.704 25.813 o
-2 6 2 8060.120 7790.200 314.096 83.695 o
-2 6 3 227.836 465.709 209.779 650.095 o
-2 6 4 9469.200 9021.980 369.579 65.341 o
-2 6 5 8607.090 8879.370 507.883 55.856 o
-2 6 6 17052.900 16359.400 715.345 23.497 o
-2 6 7 10661.000 10631.900 739.463 33.322 o
-2 6 8 3617.010 3520.570 468.058 102.521 o
-2 6 9 299.785 255.480 444.636 162.884 o
-2 6 10 1898.190 1550.060 795.712 48.971 o
-2 6 11 3445.880 3609.310 1330.590 17.772 o
-2 6 12 14892.900 14701.700 1956.040 7.285 o
-2 6 13 53.430 342.507 912.488 39.814 o
-2 6 14 25.335 1556.420 2199.050 6.866 o
-2 7 1 157.705 484.232 183.410 834.998 o
-2 7 2 7177.670 6282.840 293.267 100.764 o
-2 7 3 41.445 362.342 224.708 617.267 o
-2 7 4 18202.800 16404.200 521.194 26.760 o
-2 7 5 1144.810 1909.150 307.323 255.946 o
-2 7 6 260.020 549.596 387.241 210.229 o
-2 7 7 15185.300 14399.100 666.735 27.850 o
-2 7 8 1336.700 1141.440 401.479 172.262 o
-2 7 9 12661.300 13668.300 788.367 27.078 o
-2 7 10 148.450 17.638 634.192 82.271 o
-2 7 11 3464.660 1733.680 906.940 36.827 o
-2 7 12 6396.980 5872.320 1007.050 27.116 o
-2 7 13 3632.840 4635.280 1023.100 28.540 o
-2 8 1 20199.600 20688.900 473.109 22.928 o
-2 8 2 4386.310 4211.880 279.648 157.289 o
-2 8 3 7815.540 7347.960 350.931 81.949 o
-2 8 4 4323.790 4325.680 403.830 112.321 o
-2 8 5 10845.800 11467.600 514.595 44.850 o
-2 8 6 0.528 -343.310 323.225 318.604 o
-2 8 7 811.941 823.802 367.006 215.349 o
-2 8 8 1211.210 1206.510 451.684 142.030 o
-2 8 9 31.960 14.867 518.031 123.768 o
-2 8 10 4.132 -37.290 622.989 85.756 o
-2 8 11 12467.500 11925.800 884.504 24.825 o
-2 8 12 15.637 886.323 694.379 68.029 o
-2 9 1 6600.040 5960.450 324.535 101.987 o
-2 9 2 5568.250 5910.990 415.566 91.949 o
-2 9 3 6479.540 6769.770 463.217 74.891 o
-2 9 4 938.056 1083.340 438.869 153.433 o
-2 9 5 251.097 858.490 359.586 237.683 o
-2 9 6 30868.300 29905.700 833.399 10.708 o
-2 9 7 7090.590 6313.930 495.653 68.251 o
-2 9 8 7931.420 9351.410 541.628 54.087 o
-2 9 9 696.081 911.278 556.408 101.417 o
-2 9 10 725.610 322.862 626.583 81.835 o
-2 9 11 5.936 -456.487 645.548 79.862 o
-2 10 1 3320.980 2533.060 329.430 170.124 o
-2 10 2 580.938 232.857 280.636 370.747 o
-2 10 3 4784.780 5708.300 489.941 82.356 o
-2 10 4 3370.730 3455.160 388.786 133.083 o
-2 10 5 53.313 341.389 362.260 247.152 o
-2 10 6 3663.060 4317.540 425.490 111.891 o
-2 10 7 6582.470 7069.020 799.282 37.968 o
-2 10 8 118.239 -50.293 633.473 82.581 o
-2 10 9 380.224 1181.510 526.167 113.835 o
-2 11 1 886.566 1377.910 349.701 224.402 o
-2 11 2 2329.190 2959.080 313.152 198.153 o
-2 11 3 1425.990 2659.650 408.948 154.496 o
-2 11 4 3050.040 3169.020 444.170 116.595 o
-2 11 5 151.383 881.147 404.811 192.214 o
-2 11 6 1397.970 1387.500 416.799 159.129 o
-2 11 7 513.085 704.489 429.107 168.175 o
-2 12 1 3553.330 3161.630 519.774 89.971 o
-2 12 2 5827.050 6269.960 455.234 81.286 o
-1 0 2 24744.300 22898.800 796.758 14.748 o
-1 0 4 7977.080 8964.330 615.354 47.864 o
-1 0 6 131036.000 127657.000 3792.570 0.688 o
-1 0 8 24556.000 24587.900 1537.740 8.248 o
-1 0 10 24925.500 23631.800 1681.160 7.415 o
-1 0 12 2665.860 3075.480 1123.430 24.831 o
-1 0 14 2500.060 3808.500 1322.620 18.167 o
-1 0 16 248.502 -2565.560 1147.330 25.215 o
-1 1 1 3588.160 4400.990 162.817 234.168 o
-1 1 2 4711.170 3527.420 266.132 163.328 o
-1 1 3 12611.200 13882.900 320.690 46.664 o
-1 1 4 10456.700 7699.550 372.115 63.545 o
-1 1 5 56440.400 51253.900 1073.080 4.211 o
-1 1 6 17005.400 17987.600 903.916 18.852 o
-1 1 7 109.404 412.930 468.387 148.421 o
-1 1 8 16734.300 17122.300 1394.330 11.669 o
-1 1 9 736.549 790.063 936.190 37.204 o
-1 1 10 9244.450 11488.900 1513.840 12.312 o
-1 1 11 15.400 -1170.630 661.208 76.100 o
-1 1 12 4265.240 4741.960 912.644 34.315 o
-1 1 13 16232.100 14214.100 2131.330 6.230 o
-1 1 14 2711.470 3347.260 1956.040 8.517 o
-1 1 15 2069.920 1791.560 837.182 44.191 o
-1 1 16 1823.890 1573.050 917.419 37.528 o
-1 2 1 4287.520 1970.960 109.774 289.028 o
-1 2 2 144.342 -5.490 140.552 1514.990 o
-1 2 3 7779.630 7770.800 291.409 89.013 o
-1 2 4 1543.500 1088.610 189.651 466.453 o
-1 2 5 310.116 110.279 277.734 401.963 o
-1 2 6 10361.900 9205.930 509.391 49.636 o
-1 2 7 14554.100 12775.200 671.705 29.489 o
-1 2 8 975.738 1503.850 551.326 100.043 o
-1 2 9 4870.120 4109.440 640.417 59.989 o
-1 2 10 8313.830 8357.910 1298.710 16.605 o
-1 2 11 9457.010 11537.100 1354.490 14.754 o
-1 2 12 14617.200 13923.600 1215.950 15.214 o
-1 2 13 2053.060 1959.090 833.475 44.477 o
-1 2 14 562.131 1207.000 902.979 39.902 o
-1 2 15 2749.630 2960.800 998.012 30.962 o
-1 2 16 3516.670 2585.110 1852.460 9.447 o
-1 3 1 979.097 551.469 123.688 931.940 o
-1 3 2 1163.990 2244.620 180.806 463.471 o
-1 3 3 16838.600 16066.800 369.399 32.598 o
-1 3 4 1512.300 676.689 203.190 460.397 o
-1 3 5 1694.950 2180.580 366.857 181.515 o
-1 3 6 14395.600 15768.400 634.304 29.006 o
-1 3 7 104.144 163.352 397.718 206.708 o
-1 3 8 501.089 181.937 476.695 140.723 o
-1 3 9 1082.580 1909.350 632.297 76.656 o
-1 3 10 56.004 358.198 588.240 95.204 o
-1 3 11 5725.160 5845.190 876.433 34.636 o
-1 3 12 2264.560 2697.880 834.613 43.666 o
-1 3 13 81.457 -414.314 1179.200 23.918 o
-1 3 14 2686.640 2697.650 980.399 32.131 o
-1 3 15 2431.730 2141.070 935.234 35.486 o
-1 3 16 4383.030 4269.910 1154.830 22.680 o
-1 4 1 43512.700 44084.900 486.381 7.012 o
-1 4 2 26759.600 25639.200 400.624 16.286 o
-1 4 3 5965.280 6162.230 299.570 113.013 o
-1 4 4 48395.200 46428.100 802.231 5.618 o
-1 4 5 30226.100 30028.000 862.001 10.720 o
-1 4 6 62191.100 61849.100 1144.170 3.392 o
-1 4 7 16151.500 14918.800 687.213 25.849 o
-1 4 8 16263.300 17145.600 856.522 20.595 o
-1 4 9 1127.850 1242.600 666.602 70.299 o
-1 4 10 166.603 -548.744 616.433 87.017 o
-1 4 11 470.648 761.258 760.330 56.262 o
-1 4 12 1737.050 860.498 1227.010 21.582 o
-1 4 13 103.697 -1170.480 768.830 56.165 o
-1 4 14 2114.360 2101.190 1979.940 8.371 o
-1 4 15 1906.910 733.017 1394.330 16.787 o
-1 5 1 11824.200 12976.700 311.453 51.194 o
-1 5 2 7893.320 8360.960 301.444 84.470 o
-1 5 3 23569.100 23435.300 472.594 18.714 o
-1 5 4 1212.400 1584.650 268.934 313.515 o
-1 5 5 12190.000 11876.900 586.333 37.456 o
-1 5 6 17153.200 17424.500 698.233 23.302 o
-1 5 7 10968.400 11571.300 673.588 35.468 o
-1 5 8 7734.690 7209.190 517.565 60.986 o
-1 5 9 13133.600 13321.700 1216.900 15.830 o
-1 5 10 81.035 -915.393 501.243 131.844 o
-1 5 11 513.042 1573.350 804.706 49.777 o
-1 5 12 118.531 -334.347 847.780 46.199 o
-1 5 13 924.630 -1190.810 838.945 46.322 o
-1 5 14 209.452 -442.567 854.968 45.340 o
-1 5 15 542.016 1844.690 1019.320 31.313 o
-1 6 1 18455.900 20982.500 401.307 25.863 o
-1 6 2 1343.670 1747.150 219.443 387.158 o
-1 6 3 103.803 132.304 213.652 689.741 o
-1 6 4 16466.600 19973.800 535.288 26.384 o
-1 6 5 2150.330 2630.370 352.583 178.040 o
-1 6 6 12967.100 13310.400 607.958 33.849 o
-1 6 7 5073.590 4884.740 409.258 101.410 o
-1 6 8 6441.370 7819.950 545.975 61.251 o
-1 6 9 48.018 26.143 785.464 53.875 o
-1 6 10 1081.810 1934.850 622.519 78.844 o
-1 6 11 28144.500 32463.200 4234.770 1.646 o
-1 6 12 313.645 729.845 870.830 43.284 o
-1 6 13 7521.320 8081.790 1095.790 22.397 o
-1 6 14 211.166 -129.970 933.477 38.060 o
-1 7 1 16963.000 19942.800 455.854 27.482 o
-1 7 2 1527.440 2160.180 244.828 316.259 o
-1 7 3 5636.800 6356.040 301.086 115.364 o
-1 7 4 42.084 339.788 266.982 446.536 o
-1 7 5 41832.400 45422.000 819.953 6.578 o
-1 7 6 2189.590 3268.910 506.517 101.856 o
-1 7 7 405.631 138.975 385.200 213.651 o
-1 7 8 830.877 910.160 447.167 150.683 o
-1 7 9 38.556 332.676 451.161 161.044 o
-1 7 10 11139.800 9484.910 804.376 30.392 o
-1 7 11 7108.260 6001.440 639.861 51.445 o
-1 7 12 558.454 -217.132 652.923 76.512 o
-1 7 13 1259.010 2290.750 709.889 61.043 o
-1 8 1 887.932 820.966 242.995 414.950 o
-1 8 2 100261.000 101144.000 1224.490 1.487 o
-1 8 3 983.215 1049.490 287.936 308.916 o
-1 8 4 24072.600 22977.800 618.024 17.006 o
-1 8 5 1958.630 1575.840 327.863 214.021 o
-1 8 6 15473.800 14503.400 569.804 30.451 o
-1 8 7 674.361 991.625 531.073 110.593 o
-1 8 8 1879.870 2249.460 467.086 122.672 o
-1 8 9 619.269 195.981 530.704 113.611 o
-1 8 10 9.781 167.290 545.621 111.283 o
-1 8 11 30.377 -191.978 548.193 110.601 o
-1 8 12 1.780 1227.480 710.946 64.621 o
-1 9 1 54920.600 52050.400 790.810 4.615 o
-1 9 2 1712.680 1794.570 275.627 274.355 o
-1 9 3 2926.870 2646.290 356.610 161.020 o
-1 9 4 426.059 49.981 306.828 328.979 o
-1 9 5 1440.850 1368.580 357.319 203.261 o
-1 9 6 8972.700 9124.110 493.615 55.507 o
-1 9 7 41.728 642.861 396.347 204.555 o
-1 9 8 3707.730 5666.100 785.464 44.288 o
-1 9 9 392.251 1044.460 533.713 111.156 o
-1 9 10 3819.410 4676.460 599.446 68.748 o
-1 9 11 157.818 638.269 689.906 68.859 o
-1 10 1 1.019 -166.875 274.265 442.450 o
-1 10 2 47.036 -153.099 298.841 369.770 o
-1 10 3 3427.050 3518.770 376.541 137.076 o
-1 10 4 839.404 1528.630 348.015 225.425 o
-1 10 5 106.653 -143.327 356.680 258.338 o
-1 10 6 5726.070 4696.740 445.606 88.779 o
-1 10 7 218.561 95.742 622.968 84.874 o
-1 10 8 438.858 -342.757 432.414 171.740 o
-1 10 9 1990.550 2755.890 491.792 110.046 o
-1 11 1 554.971 1126.220 351.703 234.815 o
-1 11 2 512.393 -230.164 347.054 259.106 o
-1 11 3 7255.560 6318.230 706.695 44.572 o
-1 11 4 337.015 1324.200 392.218 195.947 o
-1 11 5 282.456 756.438 409.293 187.065 o
-1 11 6 1652.110 1006.480 507.375 113.191 o
-1 11 7 9645.120 10429.800 552.366 46.745 o
-1 12 1 3898.640 4784.390 439.806 103.480 o
-1 12 2 3785.870 5546.410 623.959 63.468 o
0 0 2 146601.000 129479.000 2176.990 0.749 o
0 0 4 813478.000 786328.000 13960.800 0.024 o
0 0 6 1190.650 2621.330 852.531 43.228 o
0 0 8 26255.800 27822.800 1713.030 6.842 o
0 0 10 78267.800 81285.200 3107.350 1.446 o
0 0 12 7224.360 5856.170 1179.200 20.428 o
0 0 14 281.727 1242.940 1242.940 21.348 o
0 0 16 1353.140 1059.690 1330.590 18.472 o
0 1 1 248360.000 229518.000 6690.310 0.211 o
0 1 2 1090.590 955.434 119.304 828.948 o
0 1 3 132452.000 136087.000 1287.730 0.886 o
0 1 4 33421.800 32055.100 455.224 11.249 o
0 1 5 4366.850 5837.500 368.375 114.723 o
0 1 6 15009.200 15194.600 553.002 31.166 o
0 1 7 9865.470 9819.000 724.513 35.849 o
0 1 8 4435.660 4487.710 426.732 103.894 o
0 1 9 6112.510 6551.680 486.106 73.733 o
0 1 10 1905.520 2525.730 773.728 50.809 o
0 1 11 193.309 588.128 776.931 54.460 o
0 1 12 13958.000 12921.800 2115.390 6.493 o
0 1 13 1324.810 1159.990 2294.660 6.284 o
0 1 14 97.830 41.892 806.689 51.011 o
0 1 15 14.169 -151.797 2322.550 6.171 o
0 1 16 5956.490 3686.060 2123.360 7.117 o
0 2 0 30.696 -232.070 104.459 2925.060 o
0 2 1 219.789 135.066 107.722 2073.700 o
0 2 2 86.623 159.867 134.444 1613.000 o
0 2 3 813.172 478.334 161.839 771.582 o
0 2 4 1443.600 1698.110 229.624 361.905 o
0 2 5 168.434 -44.008 237.028 566.383 o
0 2 6 3126.150 2811.420 324.830 173.922 o
0 2 7 984.700 949.722 325.959 255.581 o
0 2 8 3470.470 3540.330 406.716 124.318 o
0 2 9 21212.900 19222.600 894.147 16.271 o
0 2 10 830.776 151.639 709.114 64.346 o
0 2 11 9030.200 8896.620 934.774 27.113 o
0 2 12 261.045 2406.210 1083.590 27.781 o
0 2 13 1307.560 3030.250 1462.050 15.220 o
0 2 14 100.446 -505.029 898.280 41.176 o
0 2 15 7.481 818.042 2234.910 6.656 o
0 2 16 587.262 -1289.240 1358.470 17.948 o
0 3 0 355.889 662.481 156.925 937.995 o
0 3 1 1298.920 2024.430 141.863 557.310 o
0 3 2 688.361 1069.460 168.781 688.355 o
0 3 3 969.514 927.764 193.730 545.113 o
0 3 4 51938.800 51658.500 704.833 5.025 o
0 3 5 4818.340 5240.550 430.460 96.787 o
0 3 6 3446.310 2668.230 359.612 150.704 o
0 3 7 5397.040 5275.280 489.663 80.207 o
0 3 8 371.274 40.171 434.961 170.463 o
0 3 9 689.529 748.688 474.359 137.463 o
0 3 10 2844.990 2785.160 572.843 81.702 o
0 3 11 5044.470 3896.120 807.747 41.661 o
0 3 12 10.947 -1219.390 776.931 55.133 o
0 3 13 4265.440 4738.200 935.232 32.901 o
0 3 14 602.357 1155.300 1234.970 21.556 o
0 3 15 833.414 552.986 992.201 33.209 o
0 4 0 416390.000 423050.000 8183.050 0.083 o
0 4 1 108704.000 114644.000 1482.780 1.221 o
0 4 2 121153.000 115931.000 1103.180 1.104 o
0 4 3 172835.000 171772.000 1790.800 0.538 o
0 4 4 3215.430 2597.590 278.747 203.992 o
0 4 5 10623.100 9061.510 583.060 43.878 o
0 4 6 21282.500 23340.100 729.977 17.314 o
0 4 7 819.617 685.532 377.702 206.137 o
0 4 8 5403.810 5757.230 474.819 81.630 o
0 4 9 1521.100 1905.940 517.092 107.344 o
0 4 10 3348.260 3461.160 561.547 80.435 o
0 4 11 11681.100 12152.400 839.771 26.984 o
0 4 12 94.814 -718.848 1022.860 31.773 o
0 4 13 420.216 426.491 889.381 41.559 o
0 4 14 4379.990 4804.120 1764.820 10.225 o
0 4 15 22.212 -901.207 875.736 43.387 o
0 5 0 254091.000 249833.000 2948.540 0.252 o
0 5 1 16305.100 17488.800 378.078 32.082 o
0 5 2 69015.100 64171.300 803.300 3.159 o
0 5 3 50563.700 48780.000 764.498 5.269 o
0 5 4 2.339 -48.415 279.689 425.350 o
0 5 5 24953.500 23384.400 645.218 16.063 o
0 5 6 1153.180 817.135 320.575 258.903 o
0 5 7 22399.500 23731.400 804.981 15.630 o
0 5 8 575.667 484.037 394.291 197.581 o
0 5 9 4816.990 5251.350 509.957 79.484 o
0 5 10 2638.230 2152.130 629.570 71.701 o
0 5 11 7060.190 6278.280 908.794 31.215 o
0 5 12 5.602 -474.071 932.206 38.303 o
0 5 13 2484.850 2846.380 940.663 34.787 o
0 5 14 6.806 1188.600 940.043 37.271 o
0 6 0 7362.880 7995.360 406.211 75.026 o
0 6 1 5533.230 5908.740 287.915 122.754 o
0 6 2 525.204 114.599 201.177 670.711 o
0 6 3 3817.610 4365.470 273.059 170.295 o
0 6 4 1048.610 951.446 320.660 260.138 o
0 6 5 13798.100 13904.700 584.689 32.956 o
0 6 6 70.161 -99.471 329.438 303.719 o
0 6 7 8989.760 8857.670 488.437 56.392 o
0 6 8 115.748 -574.415 348.119 270.720 o
0 6 9 244.335 516.694 392.405 205.671 o
0 6 10 997.137 980.464 432.351 157.456 o
0 6 11 848.000 1018.440 690.012 66.802 o
0 6 12 1078.000 1217.460 541.210 103.718 o
0 6 13 9.406 -239.295 623.564 85.580 o
0 6 14 7.611 -1273.280 626.088 84.898 o
0 7 0 18332.500 20513.400 592.915 22.874 o
0 7 1 517.299 799.908 222.503 518.661 o
0 7 2 17015.200 16830.700 449.135 29.777 o
0 7 3 16.127 -386.418 240.476 573.203 o
0 7 4 15555.600 15460.000 528.287 30.903 o
0 7 5 1027.470 1458.670 367.630 202.408 o
0 7 6 23.022 368.121 351.556 262.561 o
0 7 7 2369.110 3486.850 614.005 73.398 o
0 7 8 23.231 -854.348 384.849 224.220 o
0 7 9 514.874 492.328 439.695 162.059 o
0 7 10 1750.620 2182.010 502.631 110.021 o
0 7 11 13049.000 13722.500 749.503 27.991 o
0 7 12 1843.250 1181.300 558.910 93.947 o
0 7 13 962.251 475.828 789.275 51.816 o
0 8 0 3299.530 3633.420 379.507 136.749 o
0 8 1 29358.400 29929.500 579.539 12.720 o
0 8 2 15956.700 16437.600 538.774 29.291 o
0 8 3 31616.800 32069.800 694.753 10.862 o
0 8 4 22187.500 21924.600 612.511 18.717 o
0 8 5 0.093 -31.443 312.468 340.939 o
0 8 6 29725.300 27639.300 929.798 10.816 o
0 8 7 1735.200 1985.330 437.287 139.344 o
0 8 8 8754.520 10177.200 695.827 39.078 o
0 8 9 64.589 640.553 542.952 110.672 o
0 8 10 631.464 748.048 580.968 94.120 o
0 8 11 5778.960 6686.960 650.371 52.832 o
0 8 12 3672.670 3841.410 651.779 62.144 o
0 9 0 163501.000 151361.000 2232.030 0.601 o
0 9 1 4521.710 4298.520 330.928 134.446 o
0 9 2 40799.300 40305.000 804.302 7.218 o
0 9 3 7202.940 7367.870 448.789 71.702 o
0 9 4 2828.870 1710.030 352.691 173.692 o
0 9 5 196.099 50.678 332.229 292.537 o
0 9 6 44.468 246.747 359.759 252.169 o
0 9 7 4109.910 4097.100 437.140 105.348 o
0 9 8 39.015 -59.754 579.411 98.981 o
0 9 9 1983.610 2786.530 861.978 41.413 o
0 9 10 5072.260 4597.940 841.549 38.484 o
0 9 11 5016.610 4393.090 916.491 33.541 o
0 10 0 1581.460 2543.130 476.233 120.196 o
0 10 1 4142.990 4732.890 362.827 125.369 o
0 10 2 20.884 317.369 323.696 309.535 o
0 10 3 4134.120 4592.000 393.701 116.055 o
0 10 4 1278.970 2488.310 419.271 151.681 o
0 10 5 13.223 -432.965 366.882 246.940 o
0 10 6 2.658 726.254 383.361 218.067 o
0 10 7 364.907 454.785 506.569 125.177 o
0 10 8 670.405 1343.330 749.462 57.037 o
0 10 9 276.216 1286.540 549.459 105.138 o
0 11 0 35.574 -74.330 470.327 150.116 o
0 11 1 447.418 674.605 351.230 245.072 o
0 11 2 479.765 443.135 348.116 251.650 o
0 11 3 0.414 81.789 361.435 253.595 o
0 11 4 81.550 625.079 435.899 169.715 o
0 11 5 0.133 -223.499 482.485 142.996 o
0 11 6 89.210 -288.708 394.509 212.023 o
0 12 0 5182.680 3953.340 820.341 40.398 o
0 12 1 86.871 127.645 371.786 236.860 o
0 12 2 14530.300 15647.400 647.611 28.487 o
1 0 0 897.034 47.806 31.870 2113.350 o
1 0 2 52707.100 48586.100 1583.580 3.904 o
1 0 4 909.846 808.447 234.117 436.517 o
1 0 6 51849.100 54962.300 1464.530 3.918 o
1 0 8 44923.000 42530.900 2127.340 3.652 o
1 0 10 96511.100 96104.900 3521.670 1.051 o
1 0 12 3068.660 3546.140 1103.510 25.397 o
1 0 14 1148.760 2254.820 1187.170 22.984 o
1 0 16 6792.860 8031.320 1585.550 11.999 o
1 1 0 231297.000 233090.000 2925.950 0.295 o
1 1 1 2238.340 2201.320 73.785 508.468 o
1 1 2 9463.510 8475.020 216.449 81.360 o
1 1 3 21188.700 20914.100 327.342 23.643 o
1 1 4 246597.000 251889.000 2491.200 0.266 o
1 1 5 85783.800 88857.300 1346.000 1.886 o
1 1 6 53783.800 50793.200 933.153 4.623 o
1 1 7 1184.370 1122.270 308.831 267.416 o
1 1 8 6007.910 6161.030 546.260 65.987 o
1 1 9 7255.810 7096.420 483.993 67.335 o
1 1 10 16216.300 18461.500 908.514 19.104 o
1 1 11 12086.800 11573.100 813.113 27.863 o
1 1 12 1141.780 2008.800 625.136 77.907 o
1 1 13 5882.680 6376.770 1760.830 10.069 o
1 1 14 1017.050 1172.030 880.619 41.505 o
1 1 15 634.857 606.828 831.768 47.093 o
1 1 16 244.522 1501.380 1031.240 30.839 o
1 2 0 1290.660 690.916 107.669 859.542 o
1 2 1 470.464 13.651 107.421 1751.720 o
1 2 2 1412.460 1691.970 143.648 561.925 o
1 2 3 1931.280 2530.080 185.372 364.010 o
1 2 4 2275.740 2167.560 184.088 352.865 o
1 2 5 386.844 -25.726 217.549 623.981 o
1 2 6 7432.890 7344.440 455.408 69.715 o
1 2 7 1367.800 576.866 308.154 271.842 o
1 2 8 442.253 479.176 333.713 272.542 o
1 2 9 4014.540 4358.300 428.931 107.462 o
1 2 10 1979.790 1712.150 510.568 107.212 o
1 2 11 3922.190 3668.010 1091.560 25.482 o
1 2 12 5062.910 5107.220 1219.040 20.180 o
1 2 13 98.224 -246.995 1107.490 27.107 o
1 2 14 301.900 -630.022 1123.430 26.278 o
1 2 15 2978.150 4071.360 1936.120 8.656 o
1 3 0 6656.560 8093.930 217.780 109.412 o
1 3 1 15169.900 16001.800 297.358 37.810 o
1 3 2 3632.970 3904.800 194.426 224.226 o
1 3 3 72510.900 72436.800 766.235 2.796 o
1 3 4 19939.300 21244.500 491.109 22.640 o
1 3 5 875.750 798.587 254.497 389.160 o
1 3 6 7561.780 7454.730 550.860 57.422 o
1 3 7 713.081 559.993 361.325 227.219 o
1 3 8 4656.590 5340.510 563.919 70.290 o
1 3 9 7750.460 8361.190 650.188 46.171 o
1 3 10 9847.200 9115.290 867.714 29.146 o
1 3 11 36770.700 36229.600 1312.140 6.631 o
1 3 12 271.989 1012.900 879.157 42.391 o
1 3 13 5560.830 6051.200 944.690 30.720 o
1 3 14 1194.910 1797.360 900.336 39.343 o
1 3 15 418.036 342.606 1386.360 17.237 o
1 4 0 25531.700 25609.300 345.949 17.473 o
1 4 1 118795.000 118835.000 1115.310 1.113 o
1 4 2 1176.390 1118.210 212.513 449.319 o
1 4 3 3326.820 3438.490 251.223 206.937 o
1 4 4 18557.900 18779.100 572.060 23.921 o
1 4 5 19095.000 18592.300 916.664 17.232 o
1 4 6 67239.400 70166.800 1102.120 2.938 o
1 4 7 8656.030 9158.780 589.961 48.035 o
1 4 8 61670.500 61995.600 1232.980 3.346 o
1 4 9 38.952 277.799 462.567 153.612 o
1 4 10 26663.900 26781.600 1135.540 10.367 o
1 4 11 34.144 146.138 588.535 95.652 o
1 4 12 11460.400 9186.180 1019.200 22.279 o
1 4 13 512.278 769.802 859.751 44.178 o
1 4 14 464.705 3290.610 1394.330 16.813 o
1 4 15 501.276 305.231 1135.380 25.618 o
1 5 0 13367.800 13231.300 299.372 46.193 o
1 5 1 752.626 1087.110 186.966 593.446 o
1 5 2 46482.700 43143.000 584.999 6.446 o
1 5 3 557.329 665.957 284.630 349.530 o
1 5 4 28265.800 28070.000 676.897 12.977 o
1 5 5 10798.400 12074.400 556.690 41.704 o
1 5 6 4897.220 4102.170 367.291 118.760 o
1 5 7 1630.240 1242.570 335.498 220.406 o
1 5 8 30978.200 31247.800 826.132 10.509 o
1 5 9 325.103 119.451 376.237 225.618 o
1 5 10 31841.400 32554.000 991.302 9.226 o
1 5 11 941.224 1160.290 481.431 129.595 o
1 5 12 15.596 285.100 569.260 101.959 o
1 5 13 50.424 -40.411 611.766 88.763 o
1 5 14 859.096 1020.400 1438.660 15.911 o
1 6 0 111538.000 122917.000 1248.990 1.162 o
1 6 1 11550.600 12831.900 407.751 47.287 o
1 6 2 1390.570 1135.050 267.442 318.503 o
1 6 3 16354.500 16006.400 481.255 30.602 o
1 6 4 25653.500 27798.400 707.842 13.973 o
1 6 5 2958.770 2889.860 371.052 150.849 o
1 6 6 5449.760 5898.220 424.357 91.005 o
1 6 7 2666.600 3049.530 392.472 143.300 o
1 6 8 8096.380 8685.680 498.666 58.941 o
1 6 9 385.911 292.506 402.843 195.094 o
1 6 10 7877.250 7925.660 588.191 51.928 o
1 6 11 20281.900 19663.300 2319.590 5.059 o
1 6 12 708.297 583.837 503.117 123.659 o
1 6 13 50.455 -518.121 752.180 58.757 o
1 6 14 907.080 1199.010 705.470 63.708 o
1 7 0 3423.070 3736.980 221.480 218.113 o
1 7 1 59410.200 61199.600 824.744 3.838 o
1 7 2 807.117 965.040 253.159 391.109 o
1 7 3 5171.210 5015.790 314.049 126.139 o
1 7 4 715.131 902.449 293.371 317.145 o
1 7 5 51789.900 54142.700 1042.790 4.516 o
1 7 6 5755.250 5394.030 449.771 85.454 o
1 7 7 2341.280 2047.490 415.641 142.673 o
1 7 8 1317.800 2016.830 683.722 65.610 o
1 7 9 1262.780 1135.850 448.300 143.716 o
1 7 10 1244.240 452.222 475.471 133.016 o
1 7 11 11763.300 10791.400 667.010 35.147 o
1 7 12 1556.520 527.465 653.898 72.675 o
1 7 13 30.603 -239.016 565.632 103.894 o
1 8 0 29145.100 31624.800 602.504 12.329 o
1 8 1 392.337 1343.310 269.388 371.031 o
1 8 2 35510.800 36192.900 722.208 9.028 o
1 8 3 5597.170 5556.050 349.728 108.315 o
1 8 4 40422.200 39811.400 780.344 7.393 o
1 8 5 10710.100 10899.100 475.610 48.527 o
1 8 6 23864.400 23546.700 820.675 14.764 o
1 8 7 722.687 704.674 424.239 168.707 o
1 8 8 14053.200 13508.600 698.891 28.710 o
1 8 9 11430.900 10751.600 675.326 35.295 o
1 8 10 6366.760 7348.180 833.022 35.817 o
1 8 11 5232.600 6227.510 629.621 57.334 o
1 8 12 770.739 1274.770 569.322 95.872 o
1 9 0 165.647 -235.059 275.469 424.428 o
1 9 1 37982.900 37812.100 755.428 8.154 o
1 9 2 7948.320 8670.550 448.215 65.082 o
1 9 3 2711.470 2865.170 352.179 165.407 o
1 9 4 4308.840 4891.970 392.979 112.952 o
1 9 5 13.522 -181.411 322.516 319.397 o
1 9 6 833.766 1533.480 371.961 201.928 o
1 9 7 757.210 724.079 467.559 140.635 o
1 9 8 6875.560 7163.770 850.846 34.221 o
1 9 9 455.488 -162.228 538.309 112.124 o
1 9 10 4249.190 5438.090 726.511 49.408 o
1 10 0 20856.900 21365.200 637.331 19.583 o
1 10 1 3184.840 2863.650 430.554 121.852 o
1 10 2 1621.000 1397.680 331.697 222.228 o
1 10 3 185.163 -161.642 394.328 210.226 o
1 10 4 116.441 -117.424 337.691 287.411 o
1 10 5 1627.010 2189.550 426.397 145.130 o
1 10 6 603.845 440.880 385.618 205.706 o
1 10 7 2753.220 3342.650 446.748 117.608 o
1 10 8 755.310 776.714 486.972 130.212 o
1 10 9 6.424 -463.524 651.500 78.409 o
1 11 0 671.890 684.657 338.487 254.346 o
1 11 1 973.635 777.029 416.302 170.192 o
1 11 2 3066.190 2716.590 374.754 148.674 o
1 11 3 2453.170 2634.660 388.802 151.121 o
1 11 4 372.364 728.647 395.960 197.603 o
1 11 5 2590.500 1340.840 527.949 98.737 o
1 11 6 5458.140 5809.110 472.695 81.569 o
1 12 0 446.930 906.324 383.981 205.702 o
1 12 1 7832.330 8550.500 524.810 57.411 o
1 12 2 9938.660 11310.700 715.294 35.110 o
2 0 2 37444.900 39759.600 1036.320 7.185 o
2 0 4 630337.000 631663.000 7119.950 0.042 o
2 0 6 9235.240 10534.400 817.981 31.343 o
2 0 8 57253.900 62580.600 1258.850 3.564 o
2 0 10 32987.500 31533.300 1041.960 8.827 o
2 0 12 1729.240 1194.480 1071.640 28.013 o
2 0 14 7135.840 6410.330 654.555 49.426 o
2 1 0 652.515 641.501 67.270 1652.850 o
2 1 1 17085.400 13860.900 268.542 36.598 o
2 1 2 8249.030 8386.090 175.736 95.906 o
2 1 3 246444.000 232615.000 1816.940 0.286 o
2 1 4 191.694 181.637 143.799 1328.810 o
2 1 5 251091.000 261337.000 3090.940 0.248 o
2 1 6 26023.200 25055.400 585.309 15.521 o
2 1 7 4359.050 4854.020 351.537 125.768 o
2 1 8 13440.900 13645.600 675.062 30.256 o
2 1 9 9327.710 10541.900 830.315 30.648 o
2 1 10 8665.530 8633.030 519.929 54.933 o
2 1 11 15311.300 15313.200 785.034 23.820 o
2 1 12 6466.010 6198.820 978.414 28.261 o
2 1 13 1551.560 1770.830 537.267 100.670 o
2 1 14 1094.440 1480.930 413.436 165.073 o
2 1 15 4052.470 4385.820 1101.420 24.838 o
2 2 0 283.117 158.570 116.405 1735.270 o
2 2 1 782.136 845.929 108.823 1059.980 o
2 2 2 52899.500 52382.400 502.095 5.067 o
2 2 3 790.559 872.174 159.093 735.745 o
2 2 4 70966.600 71487.900 784.344 2.883 o
2 2 5 3405.290 3813.320 342.458 150.401 o
2 2 6 46104.400 46911.100 798.843 5.889 o
2 2 7 17114.900 14895.500 594.075 27.276 o
2 2 8 1721.120 2064.960 383.716 170.342 o
2 2 9 52107.600 48974.100 1042.790 4.722 o
2 2 10 8583.260 8123.470 662.412 43.671 o
2 2 11 12236.300 11193.200 771.840 29.524 o
2 2 12 20.904 -1414.830 779.912 54.699 o
2 2 13 1470.280 2319.740 892.398 39.529 o
2 2 14 87.981 1219.040 1115.460 26.519 o
2 2 15 140.252 -1328.050 925.916 38.731 o
2 3 0 1364.110 722.722 149.632 651.018 o
2 3 1 3495.900 4850.460 208.454 204.994 o
2 3 2 45273.200 46845.300 489.285 6.473 o
2 3 3 77472.900 74464.900 770.124 2.543 o
2 3 4 62106.100 58275.500 704.163 3.831 o
2 3 5 55203.600 53124.400 785.012 4.544 o
2 3 6 110582.000 108940.000 1342.650 1.252 o
2 3 7 864.200 649.945 372.437 210.690 o
2 3 8 34457.300 35363.500 1117.770 7.804 o
2 3 9 3023.590 3006.940 481.117 104.929 o
2 3 10 1135.670 992.297 511.962 115.120 o
2 3 11 12731.100 12439.000 847.406 25.597 o
2 3 12 1468.290 883.073 807.536 48.652 o
2 3 13 1119.640 788.712 855.177 44.016 o
2 3 14 825.945 792.003 1254.890 20.876 o
2 3 15 5.615 -394.262 1661.240 12.062 o
2 4 0 41732.900 35351.900 501.550 8.237 o
2 4 1 16.419 122.276 155.394 1313.940 o
2 4 2 94521.200 94847.500 1077.420 1.682 o
2 4 3 73180.900 68447.000 929.790 2.791 o
2 4 4 31100.500 35282.900 631.280 10.798 o
2 4 5 92961.900 97267.000 1257.490 1.654 o
2 4 6 56.605 533.356 289.884 373.827 o
2 4 7 891.384 1327.900 305.297 279.973 o
2 4 8 33.492 236.693 301.563 356.888 o
2 4 9 9916.930 10739.000 507.146 48.866 o
2 4 10 16786.700 16392.800 768.224 22.475 o
2 4 11 2282.890 3248.990 499.233 103.609 o
2 4 12 143.692 567.045 466.027 148.712 o
2 4 13 650.019 -95.106 699.213 66.690 o
2 4 14 1462.350 1794.920 569.650 91.193 o
2 4 15 3606.370 1079.130 874.976 39.495 o
2 5 0 20671.900 17747.500 359.898 25.739 o
2 5 1 1326.420 1743.280 185.243 463.759 o
2 5 2 39329.800 38736.900 614.656 8.143 o
2 5 3 15768.200 14612.400 537.487 30.944 o
2 5 4 17054.700 18902.700 599.904 24.877 o
2 5 5 83600.800 86567.900 1304.380 1.983 o
2 5 6 6150.420 7252.580 419.682 82.538 o
2 5 7 39198.900 37373.800 834.162 7.712 o
2 5 8 153.898 590.892 344.321 265.092 o
2 5 9 4271.850 4657.380 499.999 86.185 o
2 5 10 17126.700 17711.600 973.602 17.560 o
2 5 11 11052.200 12041.400 851.015 27.225 o
2 5 12 4597.800 5579.770 596.150 64.936 o
2 5 13 751.616 1241.200 544.324 104.434 o
2 5 14 432.751 -506.902 583.577 95.846 o
2 6 0 2781.670 2896.700 207.038 272.888 o
2 6 1 16887.200 16184.200 406.291 31.529 o
2 6 2 2097.340 2366.290 259.664 263.691 o
2 6 3 2907.040 2452.850 333.722 176.729 o
2 6 4 352.155 648.145 321.181 292.409 o
2 6 5 19041.500 19048.900 662.087 21.606 o
2 6 6 8751.670 9959.020 505.603 53.772 o
2 6 7 6622.340 7728.230 470.796 70.616 o
2 6 8 10645.800 10862.900 856.821 27.962 o
2 6 9 1661.750 1804.410 427.179 146.678 o
2 6 10 285.525 864.283 429.716 169.822 o
2 6 11 22.399 -147.524 450.431 163.797 o
2 6 12 250.261 -904.435 491.055 135.870 o
2 6 13 1764.680 1081.970 753.732 54.786 o
2 7 0 49.429 209.604 368.165 241.367 o
2 7 1 1546.700 1775.620 316.160 234.554 o
2 7 2 645.229 691.424 243.468 442.729 o
2 7 3 1992.490 1603.330 272.205 270.459 o
2 7 4 1852.250 1897.150 363.600 183.587 o
2 7 5 11374.700 11380.200 557.939 41.125 o
2 7 6 30923.200 28937.700 806.522 11.000 o
2 7 7 21362.600 21565.000 1331.860 10.710 o
2 7 8 10130.700 10004.400 556.146 45.778 o
2 7 9 27509.300 26817.600 944.816 11.540 o
2 7 10 589.008 229.134 512.315 121.669 o
2 7 11 9852.740 10132.800 668.897 38.853 o
2 7 12 34.146 41.362 688.862 70.027 o
2 8 0 1319.930 1453.300 286.838 284.747 o
2 8 1 10450.900 10555.400 692.450 36.126 o
2 8 2 13.482 430.865 267.883 442.111 o
2 8 3 14932.500 14524.000 577.110 30.995 o
2 8 4 13833.300 14015.900 617.029 31.600 o
2 8 5 21998.800 22061.500 774.739 16.684 o
2 8 6 38947.400 38014.400 976.937 7.264 o
2 8 7 473.366 527.948 414.292 181.581 o
2 8 8 8701.830 8748.990 619.662 46.037 o
2 8 9 11692.200 11813.400 935.646 23.831 o
2 8 10 248.218 -82.658 1343.220 18.411 o
2 8 11 554.975 27.015 639.411 79.680 o
2 9 0 150.468 592.791 296.340 351.165 o
2 9 1 317.927 292.749 274.149 403.921 o
2 9 2 35282.700 35917.400 837.432 8.693 o
2 9 3 998.341 1275.060 319.838 257.198 o
2 9 4 24778.600 24064.500 718.438 15.238 o
2 9 5 29.776 -187.105 343.567 280.933 o
2 9 6 25.055 -195.678 344.315 279.888 o
2 9 7 10938.400 11286.900 627.695 38.196 o
2 9 8 1016.480 1898.920 535.849 103.939 o
2 9 9 8088.490 9510.360 723.295 38.989 o
2 9 10 3712.600 3562.310 609.140 69.426 o
2 10 0 248.860 329.374 308.496 327.593 o
2 10 1 3072.020 2329.750 449.361 118.381 o
2 10 2 2181.530 2129.390 464.117 121.706 o
2 10 3 443.888 407.630 338.828 266.258 o
2 10 4 3465.950 3189.670 411.944 124.306 o
2 10 5 11677.800 11494.700 717.625 32.357 o
2 10 6 1402.330 515.676 434.381 153.933 o
2 10 7 2829.970 3983.980 489.912 100.104 o
2 10 8 657.590 1671.480 563.955 97.154 o
2 11 0 1068.650 961.008 341.899 233.639 o
2 11 1 1171.910 1176.920 461.930 137.128 o
2 11 2 242.464 185.255 469.257 147.684 o
2 11 3 3625.490 3597.680 448.964 107.966 o
2 11 4 4296.860 4341.920 412.159 109.979 o
2 11 5 2101.060 2185.520 535.669 96.775 o
2 11 6 164.039 783.122 405.784 191.992 o
2 12 0 979.528 594.738 490.442 127.378 o
2 12 1 775.890 2272.920 594.962 86.211 o
3 0 0 22129.900 22958.500 385.327 21.017 o
3 0 2 1555.110 2157.890 210.273 369.670 o
3 0 4 109792.000 106907.000 1575.420 1.245 o
3 0 6 129.364 -703.871 432.041 176.461 o
3 0 8 58597.100 59707.300 1193.960 3.631 o
3 0 10 21926.000 23043.600 811.676 15.981 o
3 0 12 115.645 194.076 561.714 104.417 o
3 0 14 1472.060 1251.140 1497.900 14.605 o
3 1 0 565.176 257.056 70.054 2096.420 o
3 1 1 19.947 112.443 86.350 3860.650 o
3 1 2 112336.000 111142.000 957.757 1.256 o
3 1 3 26734.900 24923.000 345.483 16.877 o
3 1 4 224571.000 233506.000 2033.910 0.318 o
3 1 5 97063.600 91274.600 1003.850 1.679 o
3 1 6 991.156 574.964 234.948 437.813 o
3 1 7 59782.100 60856.600 987.176 3.699 o
3 1 8 47373.600 50870.900 910.239 5.309 o
3 1 9 347.561 471.679 320.276 297.882 o
3 1 10 1536.890 1099.560 540.510 101.636 o
3 1 11 20486.400 21043.000 970.617 15.127 o
3 1 12 315.155 134.478 470.078 146.695 o
3 1 13 10006.100 10993.100 545.007 45.614 o
3 1 14 3403.930 2537.640 466.916 108.395 o
3 1 15 2054.120 2372.150 1008.870 30.943 o
3 2 0 904.935 1242.210 98.559 954.197 o
3 2 1 1640.410 2855.360 126.125 472.965 o
3 2 2 565.349 333.257 131.407 1153.160 o
3 2 3 108252.000 100208.000 912.385 1.402 o
3 2 4 4191.340 3467.330 208.460 204.869 o
3 2 5 27809.900 31121.700 570.408 13.191 o
3 2 6 707.584 973.722 312.012 285.174 o
3 2 7 9387.570 10214.800 519.148 50.269 o
3 2 8 4375.310 3878.610 668.162 57.862 o
3 2 9 6945.310 7289.520 715.313 43.526 o
3 2 10 12620.700 12241.300 807.314 27.185 o
3 2 11 17766.400 19332.600 810.957 19.687 o
3 2 12 2283.100 2928.200 823.521 44.575 o
3 2 13 132.028 499.861 568.446 101.158 o
3 2 14 1724.270 2792.920 1342.540 17.917 o
3 2 15 6595.210 5609.040 2083.520 7.306 o
3 3 0 5801.790 6641.280 244.676 124.692 o
3 3 1 852.574 719.727 133.472 887.607 o
3 3 2 49.900 -87.287 152.855 1379.680 o
3 3 3 98276.000 93801.800 922.196 1.641 o
3 3 4 17681.400 14091.100 364.792 32.969 o
3 3 5 83906.500 87174.300 1113.890 2.022 o
3 3 6 7105.620 7252.070 362.520 85.539 o
3 3 7 7690.360 9505.820 450.746 64.087 o
3 3 8 13648.500 13969.200 546.936 34.617 o
3 3 9 8650.760 9603.940 808.185 33.084 o
3 3 10 52167.200 51702.500 1119.440 4.489 o
3 3 11 4952.360 5355.410 685.745 52.492 o
3 3 12 2503.160 1905.650 441.489 129.341 o
3 3 13 10675.600 11494.600 652.770 37.115 o
3 3 14 14023.500 13899.600 1191.620 15.858 o
3 3 15 9083.800 8467.030 758.804 36.036 o
3 4 0 7311.710 7426.140 309.455 91.657 o
3 4 1 22316.800 20813.700 440.086 21.235 o
3 4 2 1231.710 677.537 177.311 579.920 o
3 4 3 15.206 58.728 204.442 783.666 o
3 4 4 7544.720 7822.630 351.321 82.123 o
3 4 5 13519.000 12521.300 529.793 36.907 o
3 4 6 2219.970 2052.520 322.240 205.549 o
3 4 7 14987.200 14836.100 708.452 26.552 o
3 4 8 17742.600 15887.600 607.254 25.616 o
3 4 9 1168.320 1266.930 340.824 227.555 o
3 4 10 21627.400 22682.200 822.649 16.100 o
3 4 11 15725.100 15292.300 903.916 20.552 o
3 4 12 2320.730 2084.750 466.908 119.516 o
3 4 13 2879.610 2728.390 500.126 101.011 o
3 4 14 1417.080 1833.390 484.601 121.104 o
3 5 0 184.317 312.750 215.710 642.377 o
3 5 1 43357.900 44922.300 674.655 6.660 o
3 5 2 63320.200 63802.500 811.394 3.497 o
3 5 3 524.113 608.866 322.681 283.746 o
3 5 4 78340.900 77148.500 1049.080 2.369 o
3 5 5 124.042 -381.656 451.840 161.545 o
3 5 6 504.920 656.536 317.150 292.373 o
3 5 7 1497.710 1116.490 335.439 225.955 o
3 5 8 18182.500 17020.400 678.860 22.957 o
3 5 9 291.907 504.066 364.985 234.840 o
3 5 10 757.167 865.430 410.601 177.166 o
3 5 11 15853.800 13777.800 1434.080 11.780 o
3 5 12 107.437 371.701 478.209 142.731 o
3 5 13 611.176 1223.480 596.729 88.544 o
3 5 14 1912.990 1725.660 565.206 90.438 o
3 6 0 1256.630 1305.950 274.408 309.955 o
3 6 1 4673.240 5026.860 317.605 131.752 o
3 6 2 4151.960 5062.930 534.586 78.475 o
3 6 3 2356.220 1950.540 262.891 258.090 o
3 6 4 10656.900 11060.100 446.649 50.406 o
3 6 5 81242.900 84484.900 1563.760 1.983 o
3 6 6 6491.980 6749.300 456.952 75.863 o
3 6 7 32357.200 33795.700 1003.640 8.899 o
3 6 8 42.010 -344.537 379.684 229.890 o
3 6 9 1675.180 1385.000 415.247 156.201 o
3 6 10 30861.800 29758.500 946.165 10.081 o
3 6 11 55.960 -70.352 450.134 163.599 o
3 6 12 108.040 436.932 861.365 44.562 o
3 6 13 1260.840 1869.510 552.793 97.052 o
3 7 0 1525.210 818.267 312.420 255.752 o
3 7 1 14730.800 14418.500 594.808 30.775 o
3 7 2 654.756 851.575 237.576 450.620 o
3 7 3 7059.710 6621.850 358.631 88.857 o
3 7 4 943.951 981.630 284.304 318.891 o
3 7 5 3759.310 4030.180 360.419 135.762 o
3 7 6 1370.700 1202.850 398.134 173.594 o
3 7 7 7841.320 7878.130 510.762 60.098 o
3 7 8 5517.720 6485.670 513.903 72.305 o
3 7 9 17499.200 17100.500 791.758 21.088 o
3 7 10 490.994 390.475 555.334 104.273 o
3 7 11 6838.750 6302.940 589.616 57.243 o
3 7 12 2062.910 2147.880 647.427 70.076 o
3 8 0 38.013 -145.830 329.264 305.412 o
3 8 1 177.997 -370.153 316.022 324.417 o
3 8 2 1977.930 2458.740 391.357 158.162 o
3 8 3 3125.520 3113.450 407.708 130.269 o
3 8 4 6044.450 6117.270 320.085 107.740 o
3 8 5 10759.200 10808.400 529.136 44.989 o
3 8 6 16749.200 17977.500 1175.490 14.376 o
3 8 7 11738.000 12229.500 660.592 34.352 o
3 8 8 261.044 566.287 452.948 155.771 o
3 8 9 742.071 -594.072 475.616 139.882 o
3 8 10 1552.430 1399.670 528.370 104.792 o
3 8 11 4619.720 4655.120 1058.020 26.320 o
3 9 0 0.744 -231.199 367.934 245.878 o
3 9 1 53559.000 56122.600 1734.230 3.433 o
3 9 2 1816.630 2473.600 462.586 124.135 o
3 9 3 17029.900 17872.700 609.966 25.239 o
3 9 4 5645.520 5962.730 341.957 107.628 o
3 9 5 2226.280 2794.330 338.222 184.553 o
3 9 6 2238.710 1929.820 607.880 78.004 o
3 9 7 5202.860 5504.640 568.895 67.025 o
3 9 8 2748.190 2442.530 557.353 86.679 o
3 9 9 6.307 207.837 648.629 78.806 o
3 9 10 112.467 734.735 585.657 94.975 o
3 10 0 3160.840 1979.380 448.120 119.667 o
3 10 1 2481.440 3131.590 470.543 112.268 o
3 10 2 38443.000 38479.700 1005.570 7.222 o
3 10 3 514.596 -143.854 455.732 154.289 o
3 10 4 47406.100 43897.500 809.494 5.899 o
3 10 5 674.454 1374.040 318.244 269.425 o
3 10 6 622.618 514.545 387.956 202.289 o
3 10 7 10121.900 10279.800 589.849 43.178 o
3 10 8 5274.440 5219.870 678.126 52.766 o
3 11 0 1280.190 1411.330 476.898 127.574 o
3 11 1 238.724 216.193 505.672 127.498 o
3 11 2 3088.920 3136.680 526.590 90.943 o
3 11 3 2515.920 3631.190 512.251 96.831 o
3 11 4 5071.700 5853.440 558.864 68.415 o
3 11 5 2619.310 2444.040 397.200 145.747 o
3 11 6 4023.140 5123.460 519.681 82.010 o
3 12 0 3771.450 2914.660 505.705 93.035 o
3 12 1 1693.000 2109.760 535.213 99.510 o
4 0 0 35718.100 29096.200 571.858 10.541 o
4 0 2 118228.000 115367.000 1606.450 1.090 o
4 0 4 49815.400 54782.200 1204.460 4.439 o
4 0 6 15361.200 14058.500 895.316 21.440 o
4 0 8 5022.600 4522.430 634.888 59.711 o
4 0 10 2802.640 4167.000 740.460 51.828 o
4 0 12 619.736 995.947 1418.230 16.403 o
4 0 14 0.490 1362.460 1394.330 17.028 o
4 1 0 193.409 227.853 98.002 2316.840 o
4 1 1 623.517 1203.480 128.270 915.449 o
4 1 2 6390.400 5693.020 237.386 124.716 o
4 1 3 64070.300 65140.800 636.464 3.500 o
4 1 4 53921.500 51389.800 678.152 4.857 o
4 1 5 28286.900 24926.200 555.655 14.556 o
4 1 6 7601.380 5506.480 534.760 62.635 o
4 1 7 35737.600 34891.900 694.946 9.234 o
4 1 8 3053.540 3548.600 405.852 129.337 o
4 1 9 2124.930 2552.090 322.933 201.022 o
4 1 10 5335.710 6194.260 421.253 91.415 o
4 1 11 10717.500 10878.400 975.217 23.597 o
4 1 12 9.950 242.301 372.195 236.858 o
4 1 13 8295.120 8855.770 719.768 39.426 o
4 1 14 35.443 1055.670 997.395 33.168 o
4 1 15 18880.000 14796.200 1337.620 12.087 o
4 2 0 36274.200 38425.900 556.788 9.066 o
4 2 1 3455.310 3847.860 160.679 253.171 o
4 2 2 14156.500 13413.200 271.281 44.541 o
4 2 3 13048.900 12607.100 315.824 47.497 o
4 2 4 353.257 -77.123 201.385 722.967 o
4 2 5 26639.500 26087.200 519.254 15.401 o
4 2 6 6095.120 5808.790 283.259 117.361 o
4 2 7 4457.580 4519.290 305.856 142.966 o
4 2 8 44458.800 44347.600 802.325 6.296 o
4 2 9 47344.800 45987.500 938.717 5.552 o
4 2 10 9412.240 8071.540 427.745 62.129 o
4 2 11 57894.000 53305.400 1310.390 3.763 o
4 2 12 4263.120 3483.430 479.825 94.769 o
4 2 13 11583.100 12625.500 1060.320 20.067 o
4 2 14 5192.110 4552.410 1661.240 11.403 o
4 2 15 1690.280 1131.400 1322.620 18.619 o
4 3 0 126451.000 126345.000 1425.430 0.970 o
4 3 1 34513.200 34742.600 418.297 10.515 o
4 3 2 83592.200 82511.800 830.585 2.172 o
4 3 3 52440.500 53999.100 610.830 4.938 o
4 3 4 243.834 155.015 181.836 874.892 o
4 3 5 21112.000 21229.700 504.971 21.322 o
4 3 6 15236.000 13943.100 446.600 35.374 o
4 3 7 7020.870 7648.120 375.181 82.760 o
4 3 8 72049.900 72556.200 1032.730 2.705 o
4 3 9 17965.200 18597.500 689.676 22.211 o
4 3 10 4462.030 4633.700 435.858 100.604 o
4 3 11 602.964 -270.574 510.609 123.194 o
4 3 12 4291.000 4493.080 455.893 97.208 o
4 3 13 3439.500 3616.310 711.583 54.673 o
4 3 14 2127.080 3015.520 816.958 45.374 o
4 4 0 43772.900 50637.900 708.539 6.101 o
4 4 1 33218.900 34933.300 564.716 10.432 o
4 4 2 11120.200 11917.000 357.293 53.142 o
4 4 3 9839.660 9946.520 361.143 62.154 o
4 4 4 47048.400 48953.000 715.422 5.757 o
4 4 5 1317.190 2033.670 312.117 242.171 o
4 4 6 1677.610 1212.510 314.816 240.878 o
4 4 7 2526.220 2301.050 323.922 193.498 o
4 4 8 741.797 283.861 335.138 263.294 o
4 4 9 86.353 -107.069 445.737 166.439 o
4 4 10 23127.300 24000.200 860.498 14.573 o
4 4 11 4774.810 5276.950 511.325 79.372 o
4 4 12 3.285 -339.451 477.259 146.114 o
4 4 13 4457.940 4303.890 523.932 80.995 o
4 4 14 2640.710 3139.410 485.598 105.848 o
4 5 0 1535.950 1824.260 244.093 326.974 o
4 5 1 61.151 329.806 273.509 425.162 o
4 5 2 1382.700 1934.130 252.204 320.239 o
4 5 3 8253.060 9591.510 377.403 69.274 o
4 5 4 20214.400 20767.900 531.990 21.979 o
4 5 5 8198.340 8467.970 429.396 66.544 o
4 5 6 45255.000 45110.800 899.304 5.944 o
4 5 7 5274.800 4546.170 394.556 104.906 o
4 5 8 546.185 1125.840 461.878 143.951 o
4 5 9 8320.250 7741.210 480.581 61.842 o
4 5 10 393.784 624.710 486.459 134.327 o
4 5 11 1241.730 877.990 493.798 122.486 o
4 5 12 4843.280 5727.850 755.564 45.172 o
4 5 13 3414.640 3759.730 544.669 83.159 o
4 6 0 794.651 1142.960 337.911 243.800 o
4 6 1 2547.070 2942.340 298.484 203.528 o
4 6 2 9550.540 10050.000 451.271 55.528 o
4 6 3 18335.300 18500.500 533.294 25.089 o
4 6 4 9886.790 9274.570 516.665 50.378 o
4 6 5 12524.200 12376.600 553.298 37.932 o
4 6 6 2433.680 2077.110 372.626 165.083 o
4 6 7 2121.960 1638.360 404.555 154.414 o
4 6 8 7880.220 7092.160 523.368 59.998 o
4 6 9 426.517 326.520 393.123 203.198 o
4 6 10 3990.790 3797.340 584.500 72.400 o
4 6 11 5979.200 5459.630 504.592 74.076 o
4 6 12 2658.030 4564.830 702.605 56.524 o
4 6 13 3130.120 4155.640 607.048 70.814 o
4 7 0 49245.600 48972.900 1179.420 4.785 o
4 7 1 394.910 739.433 323.704 284.709 o
4 7 2 2804.840 2396.100 355.755 165.869 o
4 7 3 4602.560 5625.510 525.040 76.760 o
4 7 4 5398.640 5310.840 338.566 114.614 o
4 7 5 7184.760 7182.700 395.967 80.022 o
4 7 6 682.960 756.247 375.301 210.752 o
4 7 7 580.552 808.676 460.928 145.833 o
4 7 8 189.802 1311.260 472.366 140.692 o
4 7 9 25910.500 26611.300 943.301 12.130 o
4 7 10 7651.930 7428.700 595.084 52.588 o
4 7 11 24913.000 26273.300 1101.490 11.184 o
4 7 12 409.280 317.185 507.154 125.085 o
4 8 0 755.006 862.451 358.949 224.797 o
4 8 1 16600.900 16302.500 677.928 24.886 o
4 8 2 3680.990 4274.400 428.143 111.079 o
4 8 3 23932.500 22093.100 590.666 17.688 o
4 8 4 1070.850 1394.100 266.087 331.844 o
4 8 5 468.747 536.632 326.600 281.270 o
4 8 6 2684.630 2892.450 483.517 107.133 o
4 8 7 1.813 547.661 617.697 86.281 o
4 8 8 6.604 229.121 446.787 165.221 o
4 8 9 5154.190 4641.540 581.712 66.841 o
4 8 10 4255.310 5224.040 636.888 60.648 o
4 8 11 4821.550 3848.070 664.523 57.233 o
4 9 0 2132.040 2087.020 447.466 129.584 o
4 9 1 1183.510 1329.890 423.687 158.149 o
4 9 2 3356.440 3710.850 487.319 98.153 o
4 9 3 357.293 -288.193 438.651 168.151 o
4 9 4 20814.800 20114.800 539.311 21.611 o
4 9 5 784.933 1023.700 312.718 279.875 o
4 9 6 23.902 -216.218 480.004 144.251 o
4 9 7 24156.900 21735.500 909.717 14.082 o
4 9 8 1713.850 1774.310 605.641 80.799 o
4 9 9 11838.600 12208.000 721.875 31.471 o
4 10 0 140.908 410.647 412.660 189.499 o
4 10 1 2045.900 2047.320 445.538 131.570 o
4 10 2 250.346 691.920 475.790 141.197 o
4 10 3 2045.290 2690.020 541.621 93.918 o
4 10 4 3940.470 4681.520 533.535 80.665 o
4 10 5 1450.210 1604.430 355.186 202.179 o
4 10 6 11732.700 12418.700 576.789 38.293 o
4 10 7 2382.250 2747.060 542.761 91.607 o
4 10 8 2213.200 3343.050 565.081 85.162 o
4 11 0 4821.150 4386.440 520.939 79.535 o
4 11 1 4077.040 3684.580 578.005 73.488 o
4 11 2 352.245 -130.969 468.768 147.807 o
4 11 3 1929.170 2918.000 647.154 69.372 o
4 11 4 1566.250 2660.930 525.133 101.865 o
4 11 5 115.959 420.891 358.636 249.009 o
4 12 0 10246.900 7736.520 1529.770 12.246 o
5 0 0 26793.500 27676.000 613.019 14.200 o
5 0 2 23405.000 23562.800 561.939 17.859 o
5 0 4 21442.100 21405.000 892.964 15.615 o
5 0 6 39377.500 37620.700 1271.440 6.316 o
5 0 8 22016.200 23398.200 1179.490 11.746 o
5 0 10 6139.250 5427.350 785.797 40.769 o
5 0 12 5747.860 4831.430 912.063 32.933 o
5 0 14 870.254 2788.650 1545.710 13.711 o
5 1 0 308.467 98.189 124.990 1571.760 o
5 1 1 12914.000 12872.500 289.507 48.609 o
5 1 2 15553.200 16945.000 317.016 35.470 o
5 1 3 131.192 313.327 172.056 977.337 o
5 1 4 138.673 -35.881 203.027 767.901 o
5 1 5 1804.170 1478.560 242.870 323.015 o
5 1 6 571.723 1315.600 385.257 197.668 o
5 1 7 15757.200 13945.500 683.827 26.924 o
5 1 8 23758.000 27018.800 858.360 13.644 o
5 1 9 1133.640 669.096 442.032 151.628 o
5 1 10 1401.800 792.081 485.058 125.458 o
5 1 11 511.095 -142.893 647.061 78.015 o
5 1 12 2619.670 2113.910 707.973 58.572 o
5 1 13 4979.550 4618.460 778.843 43.735 o
5 1 14 1312.520 1713.650 906.260 38.787 o
5 1 15 1562.370 1956.250 1032.320 29.998 o
5 2 0 820.526 384.434 136.645 952.389 o
5 2 1 12789.000 11722.900 299.842 50.551 o
5 2 2 20.982 -88.489 158.050 1315.750 o
5 2 3 2183.320 1712.770 172.586 397.777 o
5 2 4 19161.100 20969.200 410.887 24.861 o
5 2 5 1557.680 2060.770 227.349 344.515 o
5 2 6 19333.000 19715.600 460.669 24.593 o
5 2 7 16663.800 16752.700 462.757 30.036 o
5 2 8 1660.330 2330.310 428.863 142.544 o
5 2 9 18565.300 17783.900 839.559 19.136 o
5 2 10 3523.890 3817.890 1070.780 26.556 o
5 2 11 4170.720 4237.630 728.405 50.529 o
5 2 12 5496.630 5832.870 821.485 38.665 o
5 2 13 3814.110 3588.360 736.647 50.910 o
5 2 14 339.220 377.360 769.290 55.473 o
5 3 0 21.406 373.201 112.414 2101.020 o
5 3 1 34786.700 33377.100 437.799 10.596 o
5 3 2 16.153 -93.545 149.918 1465.050 o
5 3 3 5097.260 6128.090 230.028 143.619 o
5 3 4 36929.100 41462.600 535.666 8.573 o
5 3 5 39.132 -169.747 246.817 541.131 o
5 3 6 233.708 142.631 237.939 542.669 o
5 3 7 544.998 432.189 346.784 251.542 o
5 3 8 12052.300 12275.000 717.385 31.335 o
5 3 9 7900.110 8340.100 501.409 60.033 o
5 3 10 46.498 -69.606 312.147 339.172 o
5 3 11 9.124 338.138 427.668 179.315 o
5 3 12 872.357 1510.210 715.432 61.780 o
5 3 13 315.795 -305.353 684.245 70.364 o
5 3 14 945.431 485.502 927.597 37.840 o
5 4 0 47398.300 46864.800 726.799 5.832 o
5 4 1 335.370 152.201 172.686 918.729 o
5 4 2 29158.100 29197.700 489.231 13.472 o
5 4 3 3899.940 3661.100 386.014 126.467 o
5 4 4 3253.350 3329.590 260.752 204.538 o
5 4 5 6895.160 6697.470 378.869 86.354 o
5 4 6 11098.900 11695.500 525.755 43.261 o
5 4 7 8737.370 8195.230 440.822 63.450 o
5 4 8 5642.220 5582.690 386.464 99.053 o
5 4 9 674.863 798.619 346.223 242.641 o
5 4 10 4328.270 4757.180 542.965 76.731 o
5 4 11 10899.600 10748.800 620.397 39.189 o
5 4 12 48.421 230.086 409.578 195.506 o
5 4 13 10639.500 11390.600 669.974 36.343 o
5 4 14 1025.280 1257.570 450.602 144.419 o
5 5 0 2701.560 3170.470 258.239 226.345 o
5 5 1 3520.900 3330.850 265.978 193.757 o
5 5 2 327.904 605.287 195.627 690.493 o
5 5 3 373.452 724.711 227.287 525.705 o
5 5 4 535.538 182.649 257.380 437.291 o
5 5 5 11815.600 12219.400 552.914 39.554 o
5 5 6 892.159 571.945 331.791 257.683 o
5 5 7 254.899 -137.739 324.148 305.366 o
5 5 8 1373.280 1375.480 379.456 186.089 o
5 5 9 13498.200 13282.900 682.827 30.132 o
5 5 10 14881.500 16379.500 726.099 25.335 o
5 5 11 84.844 -272.038 567.974 102.776 o
5 5 12 2261.830 2282.120 502.098 106.199 o
5 5 13 1580.180 2786.910 822.964 45.611 o
5 6 0 10955.900 11352.200 436.766 49.655 o
5 6 1 10877.900 9304.700 420.626 54.499 o
5 6 2 99.100 -91.820 348.007 271.460 o
5 6 3 15194.300 15884.300 489.513 32.325 o
5 6 4 856.178 1012.810 269.557 350.571 o
5 6 5 26.519 91.757 328.556 305.239 o
5 6 6 1738.840 2004.620 393.114 164.407 o
5 6 7 15096.900 15466.000 690.468 26.615 o
5 6 8 2458.120 2747.520 415.837 136.794 o
5 6 9 44589.900 43312.900 1023.870 5.898 o
5 6 10 1198.490 455.011 443.109 151.483 o
5 6 11 4026.950 5350.160 535.577 78.190 o
5 6 12 5036.980 5791.300 596.054 63.087 o
5 7 0 109.874 35.384 294.035 376.504 o
5 7 1 1553.480 1864.320 305.013 244.799 o
5 7 2 3999.460 4427.510 394.412 118.109 o
5 7 3 12676.300 13899.500 485.032 39.198 o
5 7 4 397.954 577.139 284.966 361.600 o
5 7 5 2716.360 3192.070 343.939 167.072 o
5 7 6 842.914 971.665 410.318 175.143 o
5 7 7 1012.370 867.776 446.221 149.360 o
5 7 8 5033.820 5562.190 522.919 75.226 o
5 7 9 698.641 506.512 458.066 147.897 o
5 7 10 1650.410 978.311 478.156 125.618 o
5 7 11 1008.970 844.247 567.260 96.410 o
5 7 12 1160.170 731.079 724.103 60.581 o
5 8 0 12237.800 11430.100 626.592 35.805 o
5 8 1 5047.250 4416.950 418.609 101.215 o
5 8 2 29606.200 29710.200 820.579 11.221 o
5 8 3 73.865 -219.702 375.432 234.294 o
5 8 4 30937.500 28577.100 798.753 11.100 o
5 8 5 1817.810 2280.090 369.445 176.372 o
5 8 6 26.002 482.978 463.537 152.000 o
5 8 7 6314.770 6119.180 572.313 61.385 o
5 8 8 1920.780 2054.940 570.465 88.184 o
5 8 9 273.093 912.666 566.855 100.001 o
5 8 10 300.112 -497.239 483.292 139.738 o
5 9 0 3697.460 3989.450 482.883 96.085 o
5 9 1 78.936 -479.140 388.451 218.856 o
5 9 2 1204.830 1389.050 453.923 139.894 o
5 9 3 788.260 600.228 425.472 167.624 o
5 9 4 1563.290 1813.720 442.268 139.719 o
5 9 5 4455.620 6194.380 547.546 72.118 o
5 9 6 2070.480 1760.190 525.128 101.531 o
5 9 7 10354.900 11008.800 852.287 28.361 o
5 9 8 4937.030 5224.120 722.399 48.700 o
5 9 9 1985.330 1285.400 556.811 93.572 o
5 10 0 2662.690 2731.080 682.204 61.636 o
5 10 1 1583.910 1683.120 470.439 126.522 o
5 10 2 3014.490 3637.330 502.141 96.508 o
5 10 3 1717.850 2279.490 498.847 111.298 o
5 10 4 249.326 -42.138 487.789 137.675 o
5 10 5 2087.430 2477.360 507.061 105.055 o
5 10 6 18222.500 20143.100 888.856 17.748 o
5 10 7 6489.910 6901.550 645.889 51.253 o
5 11 0 4816.620 4006.410 739.263 48.349 o
5 11 1 10.543 596.860 708.247 65.735 o
5 11 2 1443.060 1330.880 488.999 121.092 o
5 11 3 448.140 314.559 498.388 129.064 o
5 11 4 3857.770 5688.920 712.321 51.506 o
5 11 5 1549.480 335.094 575.305 92.580 o
6 0 0 22012.600 25843.200 553.209 18.132 o
6 0 2 2229.640 2741.680 348.456 178.094 o
6 0 4 33348.200 28564.500 1035.910 9.112 o
6 0 6 98581.300 103911.000 2736.860 1.176 o
6 0 8 87506.900 89526.200 2267.610 1.552 o
6 0 10 1142.860 789.746 702.552 64.145 o
6 0 12 4040.650 3346.380 1179.200 22.129 o
6 0 14 4310.310 995.947 1466.030 14.851 o
6 1 0 9076.410 9509.340 287.139 74.031 o
6 1 1 946.171 680.917 169.485 669.832 o
6 1 2 5301.330 5181.330 243.313 144.461 o
6 1 3 66370.200 60881.100 761.374 3.427 o
6 1 4 723.505 594.103 175.540 704.859 o
6 1 5 20664.600 20734.200 526.155 21.660 o
6 1 6 4415.600 4458.580 321.988 138.082 o
6 1 7 13693.400 13248.700 702.519 29.184 o
6 1 8 3797.110 3512.650 460.008 103.545 o
6 1 9 26787.500 27353.700 928.839 11.814 o
6 1 10 39.553 -355.061 566.960 103.365 o
6 1 11 207.056 -617.901 585.488 96.213 o
6 1 12 822.517 387.964 560.346 100.773 o
6 1 13 0.716 609.780 1281.780 20.203 o
6 1 14 1532.750 1648.200 1629.370 12.351 o
6 2 0 121.693 5.385 129.792 1774.890 o
6 2 1 19724.500 22265.800 383.293 23.855 o
6 2 2 27324.800 26696.700 448.675 15.318 o
6 2 3 10414.700 9848.940 428.957 54.558 o
6 2 4 22305.500 23045.200 450.918 20.124 o
6 2 5 24791.200 23487.300 660.571 15.973 o
6 2 6 23297.400 24083.900 734.021 15.866 o
6 2 7 54101.000 51868.700 931.690 4.546 o
6 2 8 5489.910 6468.640 1130.170 22.607 o
6 2 9 11782.200 10559.500 1109.770 19.246 o
6 2 10 3072.490 2995.820 508.945 96.269 o
6 2 11 1301.710 1370.940 685.110 66.193 o
6 2 12 88.179 -403.745 658.836 76.452 o
6 2 13 10620.500 8950.170 860.710 28.767 o
6 2 14 7.116 -1103.470 664.541 75.361 o
6 3 0 1893.370 1325.360 186.631 420.601 o
6 3 1 22967.000 23227.800 374.162 20.244 o
6 3 2 21285.900 21972.400 387.176 22.297 o
6 3 3 15407.100 13843.200 337.254 38.636 o
6 3 4 3592.190 4058.700 230.304 202.262 o
6 3 5 3586.710 3975.750 274.278 179.333 o
6 3 6 122.705 54.424 248.163 521.036 o
6 3 7 15880.600 15101.100 487.282 31.906 o
6 3 8 7519.370 7052.380 391.953 78.931 o
6 3 9 9004.120 8974.930 605.557 46.160 o
6 3 10 270.317 -358.541 1003.910 32.893 o
6 3 11 3676.450 4429.280 691.494 55.820 o
6 3 12 162.662 529.697 656.828 75.985 o
6 3 13 4123.200 4173.180 808.786 42.659 o
6 3 14 1267.420 2075.220 1050.810 29.106 o
6 4 0 1507.370 1501.550 256.988 318.116 o
6 4 1 36926.900 37510.300 509.784 9.139 o
6 4 2 32439.100 34396.600 494.559 11.042 o
6 4 3 2816.830 3414.090 220.399 247.904 o
6 4 4 2110.610 1845.160 219.838 326.046 o
6 4 5 1951.540 2185.030 303.943 227.427 o
6 4 6 26609.300 27821.600 691.630 13.655 o
6 4 7 6380.310 5902.450 378.885 93.246 o
6 4 8 33442.400 34667.700 789.756 9.499 o
6 4 9 45509.000 48391.600 946.756 5.614 o
6 4 10 156.130 329.567 336.558 281.512 o
6 4 11 3931.900 3861.180 438.876 107.352 o
6 4 12 4442.100 3346.410 733.448 50.304 o
6 4 13 3824.860 1311.860 669.058 62.529 o
6 5 0 13200.400 15771.400 452.724 37.412 o
6 5 1 21697.600 21577.000 507.404 20.610 o
6 5 2 27346.600 30726.900 525.816 13.766 o
6 5 3 2550.080 2202.920 240.139 267.933 o
6 5 4 14638.000 13770.100 492.668 35.062 o
6 5 5 3732.850 4109.320 377.534 128.950 o
6 5 6 17154.400 17007.700 643.257 24.788 o
6 5 7 280.845 470.766 351.328 253.105 o
6 5 8 11495.500 11234.200 595.188 38.958 o
6 5 9 3997.330 3995.070 447.143 103.795 o
6 5 10 2609.650 2622.280 420.868 133.433 o
6 5 11 569.489 736.333 454.977 149.935 o
6 5 12 944.894 474.446 694.612 66.358 o
6 5 13 2292.620 2690.570 505.101 103.569 o
6 6 0 134.185 -58.107 237.930 567.369 o
6 6 1 12077.100 14513.900 490.338 39.597 o
6 6 2 282.274 488.983 267.842 416.116 o
6 6 3 2746.710 2476.360 261.925 233.861 o
6 6 4 3076.020 2741.330 300.701 190.894 o
6 6 5 6018.670 6077.720 450.480 81.574 o
6 6 6 55.246 482.491 358.284 250.365 o
6 6 7 237.806 133.982 381.759 221.240 o
6 6 8 494.678 -292.867 410.826 188.581 o
6 6 9 1269.180 928.053 447.396 145.335 o
6 6 10 6557.800 6470.460 520.128 66.815 o
6 6 11 85.190 -86.221 461.217 155.535 o
6 6 12 160.476 596.821 450.791 158.229 o
6 7 0 7872.960 7640.670 392.637 74.942 o
6 7 1 9762.580 10309.800 447.421 54.618 o
6 7 2 8828.460 8932.490 448.840 60.679 o
6 7 3 39.380 -277.851 245.677 546.082 o
6 7 4 1573.650 1345.360 300.808 258.327 o
6 7 5 4371.430 4310.430 646.124 60.327 o
6 7 6 342.229 986.809 450.848 153.703 o
6 7 7 8993.930 9488.380 583.199 47.297 o
6 7 8 2878.960 3035.050 536.923 89.698 o
6 7 9 4393.870 4806.270 535.808 77.689 o
6 7 10 982.638 582.350 509.251 118.851 o
6 7 11 129.795 -68.018 474.151 146.767 o
6 8 0 1128.000 1734.170 334.414 228.776 o
6 8 1 687.134 1236.060 372.981 207.524 o
6 8 2 2.920 176.456 370.110 240.562 o
6 8 3 1439.170 1539.920 404.829 165.154 o
6 8 4 26.741 106.050 297.877 370.069 o
6 8 5 2337.040 3006.220 396.990 145.870 o
6 8 6 858.566 1283.560 491.729 124.903 o
6 8 7 163.679 -115.853 465.673 151.747 o
6 8 8 2783.860 3244.860 677.450 61.419 o
6 8 9 10336.600 11547.700 685.305 35.895 o
6 8 10 5526.120 6527.240 608.065 58.720 o
6 9 0 10863.900 10080.200 610.621 40.495 o
6 9 1 584.513 -581.769 489.196 133.955 o
6 9 2 18164.300 18729.000 792.498 19.969 o
6 9 3 1463.200 1281.080 474.973 127.399 o
6 9 4 989.691 1152.500 319.250 260.469 o
6 9 5 1160.510 1258.380 372.457 197.404 o
6 9 6 10288.900 8793.720 629.188 41.818 o
6 9 7 5377.220 6447.280 643.780 54.927 o
6 9 8 19962.200 17052.400 862.427 18.079 o
6 9 9 7120.000 7359.710 672.150 46.769 o
6 10 0 276.495 -11.639 428.607 177.083 o
6 10 1 200.340 315.184 425.522 178.365 o
6 10 2 4.314 70.184 435.183 175.215 o
6 10 3 6217.920 6200.150 684.945 48.797 o
6 10 4 1112.960 2008.820 474.816 127.347 o
6 10 5 2165.220 2243.050 379.766 163.849 o
6 10 6 9.544 -551.995 816.453 49.927 o
6 10 7 1012.360 1404.120 714.509 61.752 o
6 11 0 5210.130 3584.400 620.775 62.549 o
6 11 1 16.792 -527.542 457.839 158.613 o
6 11 2 255.429 72.784 756.231 57.752 o
6 11 3 853.839 1138.260 624.768 80.468 o
6 11 4 421.660 -38.101 608.897 88.221 o
7 0 0 368.948 -113.053 237.010 537.684 o
7 0 2 8405.970 9085.960 576.351 49.935 o
7 0 4 55160.900 55604.900 1481.210 3.665 o
7 0 6 29834.100 26211.500 2310.600 4.438 o
7 0 8 50960.600 48798.400 1619.570 3.957 o
7 0 10 23722.600 24553.000 1920.190 6.287 o
7 0 12 211.222 467.818 829.273 47.922 o
7 0 14 7102.980 6023.750 1041.320 25.177 o
7 1 0 6108.970 6686.900 298.583 108.682 o
7 1 1 2347.960 2022.980 204.064 326.071 o
7 1 2 26443.400 26919.700 523.974 15.242 o
7 1 3 6064.000 6288.020 297.788 111.570 o
7 1 4 4290.510 3393.200 253.270 180.202 o
7 1 5 25941.200 24938.000 577.853 15.665 o
7 1 6 2475.150 2411.150 263.074 244.045 o
7 1 7 18943.600 17742.000 753.350 20.500 o
7 1 8 4614.040 5040.540 569.260 70.165 o
7 1 9 6213.280 5038.670 543.417 67.829 o
7 1 10 7795.700 8641.350 746.568 38.614 o
7 1 11 1589.830 1703.220 653.876 70.879 o
7 1 12 1964.320 2240.680 640.561 71.568 o
7 1 13 3661.350 3802.290 792.673 45.080 o
7 1 14 2397.040 1943.280 1188.950 22.580 o
7 2 0 6031.800 6302.950 243.062 124.203 o
7 2 1 276551.000 268343.000 3387.550 0.214 o
7 2 2 42277.700 40830.400 614.551 7.324 o
7 2 3 110960.000 114581.000 1273.900 1.219 o
7 2 4 18758.700 19344.600 465.622 25.396 o
7 2 5 34.110 -243.741 202.725 799.850 o
7 2 6 7265.140 6625.300 391.202 82.040 o
7 2 7 1371.190 1222.670 309.358 257.762 o
7 2 8 9179.300 9379.000 699.669 38.790 o
7 2 9 23380.600 24534.800 973.234 13.162 o
7 2 10 2271.620 2067.020 680.954 63.647 o
7 2 11 6097.130 4737.230 729.272 46.267 o
7 2 12 16.927 325.140 722.440 63.445 o
7 2 13 10001.200 9084.090 873.582 28.753 o
7 2 14 17.920 -590.050 757.953 57.917 o
7 3 0 10917.800 11944.500 439.857 48.659 o
7 3 1 52748.200 51012.400 638.275 5.040 o
7 3 2 6560.070 6728.990 267.644 109.701 o
7 3 3 35471.200 36195.200 529.125 9.673 o
7 3 4 10505.200 11992.700 375.805 54.097 o
7 3 5 22764.400 22448.800 477.285 19.697 o
7 3 6 58.682 54.538 246.532 536.092 o
7 3 7 22952.700 23626.800 565.865 18.112 o
7 3 8 9858.620 10373.600 533.355 47.633 o
7 3 9 42402.600 43386.900 943.408 6.372 o
7 3 10 1423.460 2563.290 675.813 66.055 o
7 3 11 922.251 1096.920 664.594 71.453 o
7 3 12 195.225 -1034.660 632.808 82.509 o
7 3 13 10917.000 9038.840 873.022 27.921 o
7 4 0 41683.600 40813.200 668.984 7.325 o
7 4 1 11757.600 13546.700 355.489 48.278 o
7 4 2 50598.400 53820.300 695.057 5.064 o
7 4 3 4950.250 5592.310 246.340 146.108 o
7 4 4 21801.400 19995.200 475.095 21.661 o
7 4 5 5247.030 5874.700 297.288 124.252 o
7 4 6 19919.100 19054.800 555.264 22.710 o
7 4 7 7585.720 7962.790 453.937 67.692 o
7 4 8 8288.650 7660.290 436.826 67.167 o
7 4 9 753.376 477.050 352.472 237.494 o
7 4 10 282.393 885.380 337.373 265.656 o
7 4 11 9394.370 8700.370 640.561 42.994 o
7 4 12 820.894 1154.990 740.486 58.274 o
7 4 13 1435.230 1323.850 796.147 49.727 o
7 5 0 88.931 525.939 289.231 373.518 o
7 5 1 8934.850 10106.900 483.833 54.816 o
7 5 2 1169.190 1645.090 239.994 364.968 o
7 5 3 2355.360 3256.210 259.458 236.046 o
7 5 4 22.009 -425.603 254.081 512.973 o
7 5 5 42196.900 43930.500 880.973 6.504 o
7 5 6 1002.900 1202.920 342.630 231.230 o
7 5 7 13903.200 13281.300 605.035 32.503 o
7 5 8 19722.000 19348.100 717.179 19.949 o
7 5 9 59.753 551.999 386.069 215.793 o
7 5 10 1033.470 763.148 399.002 182.487 o
7 5 11 4870.980 5589.980 480.300 84.147 o
7 5 12 1059.960 1374.990 595.711 86.686 o
7 6 0 28107.200 30163.400 721.677 12.313 o
7 6 1 41023.000 42070.500 717.999 7.223 o
7 6 2 11975.600 12624.600 495.136 41.752 o
7 6 3 57427.900 57021.000 809.150 4.161 o
7 6 4 49029.800 49743.800 851.539 5.272 o
7 6 5 13754.700 13695.700 618.284 31.908 o
7 6 6 4033.950 3273.140 402.491 121.164 o
7 6 7 1239.320 1893.620 449.246 139.246 o
7 6 8 9769.720 8754.370 587.015 45.989 o
7 6 9 6352.670 5360.190 489.777 74.926 o
7 6 10 13344.700 11401.300 903.497 23.725 o
7 6 11 17.690 612.572 470.142 147.256 o
7 6 12 1136.280 1680.660 638.053 75.579 o
7 7 0 2018.590 2632.580 319.012 205.856 o
7 7 1 54938.300 55982.800 902.938 4.324 o
7 7 2 2361.420 3071.030 416.231 135.828 o
7 7 3 20124.800 20402.700 559.992 21.793 o
7 7 4 1546.830 1955.420 309.287 238.865 o
7 7 5 19.997 334.678 591.190 94.465 o
7 7 6 149.925 196.513 469.433 148.476 o
7 7 7 2922.330 2986.820 480.158 106.076 o
7 7 8 101.190 452.151 458.529 154.596 o
7 7 9 25630.800 25360.500 908.975 12.756 o
7 7 10 355.113 468.054 645.170 78.232 o
7 7 11 78.939 -309.634 493.207 136.171 o
7 8 0 81002.500 78845.700 1162.680 2.214 o
7 8 1 21.884 42.888 418.816 189.065 o
7 8 2 31604.200 32017.900 927.754 9.679 o
7 8 3 29.159 -478.261 632.564 83.100 o
7 8 4 3246.000 3235.300 459.130 109.397 o
7 8 5 1890.390 1391.450 361.459 189.623 o
7 8 6 2258.250 2842.410 510.278 101.628 o
7 8 7 1898.960 1289.400 516.084 107.238 o
7 8 8 551.237 643.070 485.653 133.266 o
7 8 9 3542.150 5243.830 566.842 74.580 o
7 8 10 4525.100 2864.900 564.370 75.939 o
7 9 0 4287.680 4071.040 631.361 63.082 o
7 9 1 743.229 1686.530 411.951 169.881 o
7 9 2 1267.540 1998.240 457.886 134.001 o
7 9 3 9769.730 10496.100 612.752 42.205 o
7 9 4 6417.500 7392.140 809.770 37.256 o
7 9 5 26904.400 27634.900 858.354 12.272 o
7 9 6 201.929 1355.410 616.752 84.397 o
7 9 7 13263.400 13535.400 726.480 28.671 o
7 9 8 1398.250 1512.450 538.639 101.869 o
7 10 0 2933.510 2984.380 474.238 107.942 o
7 10 1 45.395 -220.962 422.452 185.804 o
7 10 2 189.145 -360.175 445.081 165.606 o
7 10 3 2888.000 3466.700 549.046 85.493 o
7 10 4 10499.200 8579.000 616.890 42.419 o
7 10 5 14352.900 13742.400 1206.120 15.509 o
7 10 6 16.045 320.862 551.381 108.525 o
7 11 0 30.391 514.228 553.316 107.171 o
7 11 1 5853.710 7173.540 576.069 60.676 o
7 11 2 1525.430 2525.070 519.888 104.305 o
7 11 3 21061.700 19694.500 1157.830 12.840 o
7 11 4 3366.520 3409.890 982.032 31.323 o
8 0 0 57761.100 59808.600 1022.840 3.843 o
8 0 2 1167.390 1115.040 334.638 236.565 o
8 0 4 184380.000 189900.000 5656.980 0.333 o
8 0 6 45212.900 39944.500 1577.580 4.787 o
8 0 8 2661.900 2012.160 729.033 55.628 o
8 0 10 40363.900 39096.900 1858.180 4.561 o
8 0 12 1559.510 2611.270 1091.560 26.805 o
8 0 14 8748.910 8711.030 1243.930 17.636 o
8 1 0 119.631 207.478 186.292 872.534 o
8 1 1 138366.000 129909.000 1503.840 0.851 o
8 1 2 8.302 567.347 258.124 467.864 o
8 1 3 27102.500 29548.700 672.094 13.193 o
8 1 4 300.791 39.478 236.462 546.736 o
8 1 5 7466.880 7786.330 479.393 65.466 o
8 1 6 410.910 277.653 243.401 490.448 o
8 1 7 1766.510 1475.000 404.944 160.593 o
8 1 8 12343.800 10956.100 721.063 31.667 o
8 1 9 4301.980 4092.390 536.123 79.799 o
8 1 10 2828.150 2991.650 590.794 77.371 o
8 1 11 10372.800 9150.230 1052.480 21.926 o
8 1 12 1325.030 611.978 874.016 42.087 o
8 1 13 11318.200 9754.720 796.402 30.386 o
8 2 0 29732.100 28748.200 484.083 13.335 o
8 2 1 23778.600 21682.700 422.171 19.751 o
8 2 2 24520.200 24110.100 457.498 17.896 o
8 2 3 30641.600 27193.100 542.762 12.962 o
8 2 4 4295.240 4179.490 301.304 150.317 o
8 2 5 15299.800 15885.000 453.125 33.251 o
8 2 6 2412.580 2542.710 316.634 198.713 o
8 2 7 7358.110 6999.050 507.090 64.136 o
8 2 8 1993.040 2224.630 335.966 198.023 o
8 2 9 4448.450 4138.430 558.877 74.565 o
8 2 10 60.156 202.222 539.708 113.317 o
8 2 11 1990.570 1727.330 720.757 58.435 o
8 2 12 969.650 98.730 683.362 68.868 o
8 2 13 5629.780 6256.950 835.005 37.258 o
8 3 0 5043.550 4469.500 296.425 137.479 o
8 3 1 99973.600 99825.300 1180.530 1.511 o
8 3 2 28788.400 26213.500 468.854 14.519 o
8 3 3 37085.000 36723.900 653.849 8.795 o
8 3 4 13766.800 13987.100 475.133 37.216 o
8 3 5 121.722 257.402 242.759 530.056 o
8 3 6 15457.400 15490.600 617.499 28.331 o
8 3 7 11310.600 12787.800 622.255 36.449 o
8 3 8 7830.000 7459.620 450.331 68.179 o
8 3 9 41.356 -550.828 409.058 198.192 o
8 3 10 4754.200 4099.630 640.561 60.317 o
8 3 11 2578.830 2263.870 801.797 46.838 o
8 3 12 7.522 855.672 740.566 59.954 o
8 3 13 1195.020 2819.970 1175.480 23.327 o
8 4 0 8378.900 8961.880 562.360 51.413 o
8 4 1 55165.700 55762.500 693.230 4.509 o
8 4 2 2788.480 2632.270 212.745 273.720 o
8 4 3 9381.370 10014.700 361.752 64.086 o
8 4 4 7392.610 7511.320 364.552 82.307 o
8 4 5 638.126 1090.980 254.245 397.079 o
8 4 6 19245.900 19373.900 562.293 23.096 o
8 4 7 8372.300 8626.850 424.879 65.859 o
8 4 8 2550.540 2323.790 321.509 194.399 o
8 4 9 259.063 256.134 314.110 317.971 o
8 4 10 5445.060 4613.790 832.615 38.683 o
8 4 11 7746.000 7975.980 908.838 29.791 o
8 4 12 1272.690 -112.799 660.054 72.937 o
8 4 13 5038.280 5208.860 891.004 34.742 o
8 5 0 36.368 -537.592 423.442 185.082 o
8 5 1 57417.600 57868.200 872.648 4.074 o
8 5 2 1125.600 1189.830 238.533 389.103 o
8 5 3 34181.600 33563.300 536.241 10.446 o
8 5 4 43955.000 44171.300 778.729 6.430 o
8 5 5 2899.140 1843.680 498.454 104.468 o
8 5 6 5628.030 6313.140 535.936 68.745 o
8 5 7 519.881 1081.370 367.083 219.232 o
8 5 8 1716.240 1057.370 403.307 165.610 o
8 5 9 35.471 -214.008 370.807 241.151 o
8 5 10 1164.880 1306.810 459.624 137.737 o
8 5 11 10574.000 12936.400 826.570 28.201 o
8 5 12 1021.290 1681.560 464.193 134.934 o
8 6 0 29159.500 30539.600 600.663 12.556 o
8 6 1 71.837 234.024 237.565 560.925 o
8 6 2 18686.600 18900.100 568.470 23.794 o
8 6 3 8290.980 8393.680 377.066 72.363 o
8 6 4 23.374 42.809 384.233 224.439 o
8 6 5 1705.370 1821.540 569.379 90.048 o
8 6 6 1167.250 1447.210 393.687 178.258 o
8 6 7 105.263 319.593 401.142 201.731 o
8 6 8 1220.730 1264.910 424.866 157.337 o
8 6 9 975.511 1230.070 410.574 170.806 o
8 6 10 3627.460 3021.200 466.539 104.820 o
8 6 11 2479.880 3189.900 676.512 62.412 o
8 7 0 5688.560 5457.800 308.237 118.356 o
8 7 1 16889.000 17401.100 533.662 27.510 o
8 7 2 5590.910 5520.340 424.972 91.220 o
8 7 3 44252.600 45950.100 867.621 6.085 o
8 7 4 7854.770 8209.870 607.633 49.799 o
8 7 5 11749.100 11116.700 687.712 33.912 o
8 7 6 1627.390 2102.380 444.874 136.083 o
8 7 7 1870.300 2104.910 471.312 121.632 o
8 7 8 9653.900 9047.410 578.907 46.521 o
8 7 9 1463.300 1980.670 588.333 85.692 o
8 7 10 839.301 -113.181 471.807 141.068 o
8 8 0 692.586 765.132 291.613 325.157 o
8 8 1 6275.070 6828.890 386.753 88.997 o
8 8 2 6645.340 7866.840 437.315 74.975 o
8 8 3 20302.600 17957.200 763.723 19.238 o
8 8 4 22.269 563.751 318.608 313.379 o
8 8 5 89.186 705.298 406.775 193.131 o
8 8 6 4041.670 4854.120 816.515 41.635 o
8 8 7 14016.600 13947.800 735.739 27.255 o
8 8 8 2302.610 3565.930 552.698 87.277 o
8 8 9 431.841 53.001 515.086 122.171 o
8 9 0 12967.700 13313.600 838.415 25.279 o
8 9 1 142.662 161.911 795.814 52.277 o
8 9 2 3149.570 3132.890 474.003 105.757 o
8 9 3 3211.650 4316.100 495.537 94.840 o
8 9 4 33049.600 33095.600 978.109 8.942 o
8 9 5 6799.450 6048.810 644.558 51.681 o
8 9 6 2870.060 2759.050 650.724 66.180 o
8 9 7 2157.390 2692.200 566.609 86.577 o
8 9 8 8041.230 7157.270 669.788 45.221 o
8 10 0 1937.160 1304.660 438.921 140.094 o
8 10 1 3531.360 2638.130 472.837 105.091 o
8 10 2 26.167 -251.992 465.425 153.390 o
8 10 3 227.894 215.043 469.296 147.657 o
8 10 4 57.236 -370.555 527.036 119.467 o
8 10 5 737.229 349.249 517.487 117.887 o
8 10 6 1365.480 1645.100 548.036 98.598 o
8 11 0 33176.800 34520.100 1026.190 8.534 o
8 11 1 21.993 603.550 525.661 118.320 o
8 11 2 6524.710 5580.930 557.126 63.609 o
8 11 3 996.470 516.607 564.722 98.101 o
9 0 0 9767.250 7912.600 617.667 44.703 o
9 0 2 13869.300 12248.500 1003.910 20.306 o
9 0 4 6680.450 7691.840 788.790 38.121 o
9 0 6 6096.690 4617.930 685.212 50.790 o
9 0 8 3466.570 3083.330 1740.920 10.643 o
9 0 10 43.815 81.318 736.433 61.234 o
9 0 12 2220.020 509.783 788.689 50.075 o
9 1 0 925.732 921.199 227.833 446.120 o
9 1 1 18043.200 17265.400 511.770 26.628 o
9 1 2 11723.300 12536.300 494.056 42.519 o
9 1 3 5716.400 4549.470 507.159 77.192 o
9 1 4 785.785 748.384 261.509 381.861 o
9 1 5 9901.970 9095.470 397.002 60.685 o
9 1 6 28.143 -185.118 252.412 518.984 o
9 1 7 31553.900 30240.900 918.818 9.979 o
9 1 8 1616.350 1043.360 559.024 95.425 o
9 1 9 42809.200 43040.000 1187.660 5.766 o
9 1 10 548.233 -673.849 614.036 86.319 o
9 1 11 25705.500 25735.600 1102.920 11.021 o
9 1 12 1202.680 2211.840 680.501 66.228 o
9 1 13 3128.380 3371.380 959.117 32.886 o
9 2 0 8708.640 7664.490 368.134 73.120 o
9 2 1 153991.000 156712.000 1777.350 0.655 o
9 2 2 28546.100 28303.400 588.824 13.383 o
9 2 3 159.992 195.012 223.501 617.214 o
9 2 4 14083.800 13151.000 499.765 36.440 o
9 2 5 406.688 534.062 233.283 511.621 o
9 2 6 19853.700 21186.900 973.746 15.341 o
9 2 7 6057.460 6462.950 430.125 83.818 o
9 2 8 2741.730 3051.590 344.738 167.449 o
9 2 9 455.939 523.711 566.776 100.085 o
9 2 10 1415.950 1618.330 579.478 89.061 o
9 2 11 16498.200 17394.200 966.137 18.128 o
9 2 12 1171.860 1880.820 621.941 78.759 o
9 2 13 7045.100 5429.050 1005.120 26.913 o
9 3 0 1312.510 1545.140 166.371 528.173 o
9 3 1 428.266 285.721 222.325 569.972 o
9 3 2 16859.200 16155.400 432.762 30.948 o
9 3 3 3238.050 3190.170 283.347 192.341 o
9 3 4 6835.150 6585.390 379.250 87.126 o
9 3 5 12120.200 12105.800 469.760 43.365 o
9 3 6 22776.700 24100.100 661.889 16.982 o
9 3 7 31027.600 29888.700 789.294 10.911 o
9 3 8 10066.000 10585.400 548.553 45.736 o
9 3 9 12739.200 13773.200 784.281 27.084 o
9 3 10 5994.730 4905.060 615.069 58.874 o
9 3 11 19032.100 19694.600 1036.890 15.152 o
9 3 12 20.438 -944.552 633.952 82.764 o
9 3 13 10692.500 11723.100 993.372 22.752 o
9 4 0 1.698 123.532 232.917 602.817 o
9 4 1 790.493 829.901 184.290 621.852 o
9 4 2 2964.470 3052.660 237.342 235.609 o
9 4 3 13814.400 12359.600 483.227 38.483 o
9 4 4 20668.700 21098.300 630.046 19.942 o
9 4 5 9844.170 9731.150 735.930 35.312 o
9 4 6 6833.760 6165.320 365.238 91.212 o
9 4 7 2681.060 2960.450 391.203 144.330 o
9 4 8 121.062 675.738 437.079 167.947 o
9 4 9 7915.910 7735.440 555.016 55.372 o
9 4 10 4110.110 4154.570 634.811 62.973 o
9 4 11 39.636 -781.591 959.465 36.137 o
9 4 12 9851.330 7955.960 876.439 29.322 o
9 5 0 101167.000 97656.700 2351.790 1.270 o
9 5 1 15240.000 17501.200 382.223 33.892 o
9 5 2 21730.300 22093.500 446.055 21.114 o
9 5 3 4272.630 4744.740 258.283 163.087 o
9 5 4 17772.300 18571.700 654.443 23.131 o
9 5 5 10249.600 10061.100 536.389 46.787 o
9 5 6 2951.260 2843.780 354.710 159.942 o
9 5 7 5013.510 5374.620 463.403 87.458 o
9 5 8 408.309 -36.048 372.652 229.210 o
9 5 9 16245.600 14855.400 1087.960 16.623 o
9 5 10 898.669 375.712 532.094 110.720 o
9 5 11 2101.430 3324.310 598.941 77.833 o
9 5 12 12.057 642.756 702.841 66.689 o
9 6 0 1144.310 1263.160 484.812 125.760 o
9 6 1 7720.310 7229.920 367.982 80.555 o
9 6 2 72201.600 77392.800 975.894 2.623 o
9 6 3 6781.370 8296.780 367.416 83.374 o
9 6 4 5036.900 5589.940 460.248 87.287 o
9 6 5 12730.100 13005.400 663.137 32.155 o
9 6 6 154.540 532.466 563.444 102.733 o
9 6 7 14095.200 14420.200 708.885 27.780 o
9 6 8 6672.760 7036.010 552.218 61.058 o
9 6 9 3758.680 4949.880 671.465 57.626 o
9 6 10 2076.680 2527.610 503.916 106.019 o
9 6 11 8735.670 8592.380 684.878 41.273 o
9 7 0 2862.760 3136.670 262.088 218.572 o
9 7 1 43816.500 43731.300 766.819 6.509 o
9 7 2 248.749 373.530 297.157 350.043 o
9 7 3 5749.500 5671.570 305.464 117.029 o
9 7 4 939.961 901.739 346.847 232.638 o
9 7 5 7688.860 8244.090 799.710 35.656 o
9 7 6 9643.160 10605.300 641.784 40.482 o
9 7 7 4254.320 4389.090 500.682 86.915 o
9 7 8 1386.490 1143.600 500.737 117.324 o
9 7 9 305.461 -205.776 770.603 55.614 o
9 7 10 2290.370 2001.930 498.537 108.228 o
9 8 0 7132.130 6712.020 373.623 85.486 o
9 8 1 564.463 609.656 400.841 190.715 o
9 8 2 3754.730 3270.940 478.478 99.406 o
9 8 3 1064.820 1476.250 426.241 157.148 o
9 8 4 1939.250 2353.540 358.827 180.715 o
9 8 5 4369.360 4127.290 550.516 76.530 o
9 8 6 44.198 -188.126 676.212 72.692 o
9 8 7 6241.140 6900.110 575.535 59.898 o
9 8 8 4284.560 4639.920 569.961 72.177 o
9 8 9 12026.700 12339.600 689.369 32.532 o
9 9 0 638.640 1226.670 513.696 117.108 o
9 9 1 126.245 383.587 364.801 241.201 o
9 9 2 2595.620 4083.350 694.377 58.356 o
9 9 3 28319.800 28309.700 921.166 11.207 o
9 9 4 1103.570 1646.130 501.275 117.342 o
9 9 5 7789.330 7864.110 473.420 64.623 o
9 9 6 1688.290 969.938 510.998 111.663 o
9 9 7 1152.160 1311.540 799.459 49.731 o
9 10 0 24620.100 23950.000 882.857 13.689 o
9 10 1 3487.680 3691.330 494.768 95.284 o
9 10 2 20528.800 20217.200 842.720 17.121 o
9 10 3 512.247 180.688 684.262 69.685 o
9 10 4 944.542 560.022 492.354 126.905 o
9 10 5 224.019 880.308 491.580 132.025 o
9 11 0 2247.330 3552.010 523.847 95.385 o
9 11 1 52.059 -1086.550 470.015 150.144 o
9 11 2 2570.950 3321.120 578.181 80.515 o
10 0 0 6417.500 7958.680 509.865 65.681 o
10 0 2 111023.000 118436.000 2549.310 1.016 o
10 0 4 15276.800 14497.200 921.031 20.723 o
10 0 6 5435.940 4586.870 619.425 60.485 o
10 0 8 43068.700 47217.300 1723.950 4.368 o
10 0 10 1092.960 1383.680 1005.250 31.998 o
10 0 12 212.094 -399.047 805.120 51.096 o
10 1 0 1731.840 1449.350 265.659 294.684 o
10 1 1 64797.800 64490.900 999.447 3.272 o
10 1 2 8109.460 8545.900 429.451 66.775 o
10 1 3 1413.220 1918.390 340.326 212.575 o
10 1 4 9822.480 9079.200 711.863 37.224 o
10 1 5 219.499 109.740 255.318 479.438 o
10 1 6 7333.540 5941.680 473.007 71.187 o
10 1 7 4254.230 4881.570 529.421 79.448 o
10 1 8 1037.680 428.901 445.634 152.027 o
10 1 9 5879.530 5655.170 602.076 59.741 o
10 1 10 841.068 1893.530 568.260 94.357 o
10 1 11 477.836 1198.260 616.825 83.672 o
10 1 12 9234.840 8057.880 854.495 30.933 o
10 1 13 807.481 905.257 767.064 54.670 o
10 2 0 33552.800 35271.300 595.595 10.161 o
10 2 1 2164.320 1663.690 251.524 286.264 o
10 2 2 10334.900 9221.270 388.410 59.309 o
10 2 3 7689.030 7946.900 553.424 55.924 o
10 2 4 2216.660 2237.170 297.363 224.360 o
10 2 5 12615.600 13287.500 529.308 37.961 o
10 2 6 1909.010 1931.880 254.930 288.010 o
10 2 7 14723.800 14993.900 681.125 27.598 o
10 2 8 246.802 540.253 316.851 306.820 o
10 2 9 1284.330 1148.600 701.930 63.544 o
10 2 10 115.121 507.384 583.492 96.154 o
10 2 11 241.163 119.953 784.314 53.707 o
10 2 12 128.125 266.196 612.654 87.744 o
10 3 0 8190.060 8933.030 307.626 79.540 o
10 3 1 51451.300 52638.700 752.731 4.973 o
10 3 2 30678.300 30170.200 631.539 11.855 o
10 3 3 6425.650 6480.490 327.809 100.512 o
10 3 4 2237.020 1919.440 311.777 215.739 o
10 3 5 971.237 1146.530 318.432 262.322 o
10 3 6 79.611 184.105 280.781 408.549 o
10 3 7 1524.540 1323.190 450.111 138.795 o
10 3 8 7479.690 7619.050 523.273 60.514 o
10 3 9 2418.380 2969.780 421.629 133.294 o
10 3 10 7483.150 6611.930 721.282 42.684 o
10 3 11 11.740 -196.694 563.469 104.788 o
10 3 12 16.395 -88.731 578.711 99.322 o
10 4 0 6452.320 6268.530 416.307 84.364 o
10 4 1 14931.100 14929.300 382.043 37.099 o
10 4 2 28825.400 30567.900 603.020 12.677 o
10 4 3 2233.890 2190.370 293.135 228.399 o
10 4 4 24132.600 24456.800 678.870 15.885 o
10 4 5 40.356 867.073 338.680 272.603 o
10 4 6 18733.000 18517.200 597.568 23.375 o
10 4 7 5.324 253.646 376.655 231.333 o
10 4 8 19885.500 19873.700 791.584 18.411 o
10 4 9 2608.730 3140.180 447.205 119.751 o
10 4 10 425.758 48.038 446.552 161.256 o
10 4 11 157.080 670.357 912.951 39.573 o
10 4 12 159.209 -1045.310 692.043 69.153 o
10 5 0 9117.290 8762.250 632.511 44.104 o
10 5 1 322.549 255.746 213.179 634.318 o
10 5 2 19145.500 18326.000 448.288 25.857 o
10 5 3 7267.240 7789.990 363.065 82.432 o
10 5 4 21924.200 20788.400 592.945 19.607 o
10 5 5 4484.530 4742.320 363.771 120.930 o
10 5 6 109.158 645.742 379.345 220.976 o
10 5 7 4368.840 4808.600 482.751 89.051 o
10 5 8 841.384 599.540 536.491 108.684 o
10 5 9 541.114 -993.752 679.310 70.834 o
10 5 10 2819.000 973.679 748.663 53.705 o
10 5 11 110.663 639.880 560.093 103.890 o
10 6 0 19949.700 21880.300 994.759 14.860 o
10 6 1 13731.500 13847.800 410.957 39.988 o
10 6 2 7827.510 9159.730 327.845 78.797 o
10 6 3 1008.740 1150.580 234.174 410.758 o
10 6 4 554.895 377.309 375.575 217.791 o
10 6 5 6989.270 7999.090 587.297 54.469 o
10 6 6 71.362 760.408 448.439 159.926 o
10 6 7 200.707 327.590 408.561 192.878 o
10 6 8 274.049 523.728 429.352 172.704 o
10 6 9 30.518 -440.530 419.638 188.537 o
10 6 10 18.974 23.472 575.110 100.503 o
10 7 0 13567.700 13171.600 840.583 24.736 o
10 7 1 967.169 1302.790 257.934 356.595 o
10 7 2 1663.130 2000.680 297.547 246.683 o
10 7 3 21625.900 20568.700 539.798 20.677 o
10 7 4 4919.560 4694.870 377.210 112.367 o
10 7 5 21112.800 23633.700 866.298 15.566 o
10 7 6 18.194 -640.913 420.784 187.714 o
10 7 7 7662.340 7302.700 614.824 50.813 o
10 7 8 92.926 737.680 477.779 141.360 o
10 7 9 3.013 -614.649 510.039 127.941 o
10 8 0 51.641 106.438 261.851 474.372 o
10 8 1 46520.300 46378.900 1224.020 5.096 o
10 8 2 70.012 -42.855 300.600 364.080 o
10 8 3 3021.500 2463.900 379.060 149.057 o
10 8 4 5065.800 4487.860 403.499 104.703 o
10 8 5 437.447 1531.460 487.071 129.645 o
10 8 6 5119.690 4427.690 558.825 71.121 o
10 8 7 132.976 1276.330 536.816 110.808 o
10 8 8 7302.040 8595.390 633.338 48.389 o
10 9 0 4332.360 4684.330 453.121 96.911 o
10 9 1 3867.470 3814.320 366.877 133.208 o
10 9 2 29644.100 27143.800 773.411 11.961 o
10 9 3 2948.460 3601.630 558.910 82.555 o
10 9 4 3744.600 3374.790 526.951 86.550 o
10 9 5 8777.190 9057.330 627.799 44.882 o
10 9 6 157.185 -1113.690 509.461 127.071 o
10 9 7 494.920 786.470 525.942 114.471 o
10 10 0 319.037 499.697 346.257 258.385 o
10 10 1 327.470 811.900 470.937 142.621 o
10 10 2 7282.190 8154.480 585.757 53.539 o
10 10 3 11435.800 11971.300 699.052 33.212 o
10 10 4 2450.720 2406.220 544.746 91.610 o
10 11 0 15160.600 12984.500 780.128 25.183 o
10 11 1 7.073 -353.485 466.776 152.708 o
11 0 0 13613.300 15498.700 859.288 23.165 o
11 0 2 88.800 769.833 486.664 136.289 o
11 0 4 27370.700 27234.000 1153.470 10.002 o
11 0 6 6579.410 6091.050 745.714 42.757 o
11 0 8 334.013 81.146 656.334 76.245 o
11 0 10 22581.700 20781.300 2199.050 5.346 o
11 0 12 41609.100 44838.900 2338.480 3.399 o
11 1 0 29710.900 30752.000 655.238 11.984 o
11 1 1 36017.200 35441.900 720.824 9.000 o
11 1 2 41667.300 40474.300 954.517 6.676 o
11 1 3 70100.700 70179.300 1275.150 2.713 o
11 1 4 21717.800 21211.200 741.059 17.560 o
11 1 5 229.181 750.222 357.617 242.269 o
11 1 6 2567.100 3719.220 444.896 118.277 o
11 1 7 10988.900 10756.400 450.076 49.609 o
11 1 8 5998.680 6495.870 619.731 55.954 o
11 1 9 9670.570 9775.710 824.732 30.956 o
11 1 10 7.897 -743.776 584.680 97.343 o
11 1 11 14165.100 12719.000 805.512 25.488 o
11 1 12 320.063 627.349 586.528 94.034 o
11 2 0 15771.400 16212.900 496.403 30.926 o
11 2 1 4011.270 3903.050 307.636 155.108 o
11 2 2 39.278 -169.279 310.931 342.198 o
11 2 3 458.600 980.768 287.283 340.590 o
11 2 4 13596.000 14603.400 554.104 33.881 o
11 2 5 29505.600 27614.500 684.986 12.503 o
11 2 6 7512.650 6922.400 358.826 84.384 o
11 2 7 30231.700 33225.600 802.339 10.564 o
11 2 8 1475.900 1263.040 345.698 214.390 o
11 2 9 296.058 -376.718 502.176 129.645 o
11 2 10 1825.130 1581.980 937.267 36.028 o
11 2 11 214.413 217.820 581.617 96.968 o
11 2 12 53.477 -270.756 752.113 58.763 o
11 3 0 15317.100 15700.000 426.409 34.190 o
11 3 1 854.193 834.283 237.118 432.705 o
11 3 2 8774.170 9361.440 432.663 61.613 o
11 3 3 102.609 -0.229 269.202 449.584 o
11 3 4 64786.600 66741.000 1095.660 3.149 o
11 3 5 17823.000 17183.100 557.903 25.923 o
11 3 6 36878.600 38459.200 818.393 8.124 o
11 3 7 7165.410 7328.560 809.666 36.320 o
11 3 8 137.455 495.710 386.886 213.830 o
11 3 9 10681.500 9150.670 823.422 30.239 o
11 3 10 451.304 284.749 405.860 191.244 o
11 3 11 3296.470 3740.690 671.692 60.331 o
11 3 12 244.872 699.283 608.217 87.767 o
11 4 0 1065.950 1503.920 422.058 159.616 o
11 4 1 19358.600 20534.600 520.039 23.128 o
11 4 2 4087.860 4155.210 354.967 132.584 o
11 4 3 50756.400 49130.600 882.760 5.072 o
11 4 4 955.039 932.465 362.645 214.995 o
11 4 5 1335.700 1902.260 375.711 184.626 o
11 4 6 51.980 541.051 361.707 245.067 o
11 4 7 17409.400 15655.800 760.948 22.427 o
11 4 8 729.815 749.020 416.786 173.788 o
11 4 9 1989.100 1552.050 470.215 123.513 o
11 4 10 1912.680 2194.090 503.335 108.558 o
11 4 11 194.134 -232.591 461.851 153.901 o
11 5 0 28466.800 27483.800 680.240 12.993 o
11 5 1 630.636 125.273 285.460 360.065 o
11 5 2 14671.900 14984.400 438.700 35.724 o
11 5 3 4487.020 4747.580 344.125 127.299 o
11 5 4 3591.930 4039.680 388.569 126.916 o
11 5 5 21046.300 22062.100 740.552 17.723 o
11 5 6 691.127 1533.320 426.658 161.593 o
11 5 7 20773.600 22168.900 943.667 15.093 o
11 5 8 1228.410 851.503 445.993 147.054 o
11 5 9 1383.590 2071.190 555.998 94.892 o
11 5 10 4212.760 3606.330 590.286 70.865 o
11 5 11 1100.540 53.357 653.909 74.668 o
11 6 0 2713.770 3121.730 289.226 203.272 o
11 6 1 12778.200 13467.400 736.013 28.939 o
11 6 2 541.699 880.273 217.306 528.548 o
11 6 3 43610.900 44926.000 675.329 6.617 o
11 6 4 26683.100 24805.900 684.667 14.392 o
11 6 5 26245.100 23895.900 703.866 14.666 o
11 6 6 10125.500 8816.340 585.240 45.185 o
11 6 7 1570.130 2650.880 543.190 96.193 o
11 6 8 6884.490 6314.180 623.301 53.346 o
11 6 9 2942.900 2933.070 599.612 75.201 o
11 6 10 15.064 -301.808 679.939 71.968 o
11 7 0 643.629 495.251 537.041 109.989 o
11 7 1 20.268 -636.430 533.102 117.004 o
11 7 2 210.891 -219.629 302.201 351.970 o
11 7 3 16792.500 16308.300 519.121 28.737 o
11 7 4 1472.850 875.354 434.186 150.878 o
11 7 5 240.101 -296.526 430.873 175.795 o
11 7 6 1908.050 2031.980 528.208 100.698 o
11 7 7 17166.800 16727.400 1320.680 12.486 o
11 7 8 1897.850 2108.000 489.112 114.252 o
11 7 9 33.968 563.926 506.304 127.424 o
11 8 0 14333.000 17646.400 1103.780 16.565 o
11 8 1 11153.200 11125.000 857.903 27.304 o
11 8 2 6842.890 6984.340 406.872 81.110 o
11 8 3 16217.900 16203.300 862.704 20.827 o
11 8 4 24872.400 24812.900 1188.650 10.680 o
11 8 5 1410.950 2045.430 494.815 116.073 o
11 8 6 13988.400 13078.500 1084.810 18.149 o
11 8 7 921.947 1525.990 527.177 108.812 o
11 8 8 845.540 -330.027 695.695 66.916 o
11 9 0 10459.300 10737.300 564.593 43.525 o
11 9 1 5518.780 5377.930 688.793 50.850 o
11 9 2 297.219 514.115 332.178 279.629 o
11 9 3 8878.250 7611.380 479.056 60.049 o
11 9 4 3075.160 1832.900 528.613 94.217 o
11 9 5 1746.670 3106.200 530.800 97.631 o
11 9 6 119.881 -558.736 596.075 93.207 o
11 10 0 23792.600 21543.300 1231.880 11.020 o
11 10 1 11911.500 12017.500 969.891 22.548 o
11 10 2 606.537 1525.260 461.545 141.393 o
11 10 3 3416.660 2942.380 511.905 93.481 o
11 10 4 325.927 625.029 528.521 115.025 o
12 0 0 15496.800 16360.500 1163.270 15.324 o
12 0 2 18794.500 16587.700 2011.810 6.579 o
12 0 4 63758.200 63220.600 1788.450 2.755 o
12 0 6 30815.400 30222.500 1319.630 7.992 o
12 0 8 18566.100 16938.700 1343.820 11.824 o
12 0 10 42.213 1177.610 1732.950 11.048 o
12 0 12 3811.580 3851.210 1876.360 9.157 o
12 1 0 3203.150 3191.770 308.773 177.693 o
12 1 1 2964.280 3090.870 368.731 150.391 o
12 1 2 5454.680 5851.880 426.291 90.728 o
12 1 3 20469.400 23535.100 767.427 17.251 o
12 1 4 2457.690 1749.090 398.710 152.104 o
12 1 5 12589.400 12541.200 551.240 37.738 o
12 1 6 15356.500 14970.700 819.109 23.028 o
12 1 7 64278.500 64874.000 1619.230 2.836 o
12 1 8 21.978 -539.383 507.705 128.975 o
12 1 9 26.749 352.046 544.075 111.279 o
12 1 10 51.751 99.134 569.426 102.175 o
12 1 11 446.494 -1230.500 541.530 110.878 o
12 1 12 89.108 -446.130 620.670 86.107 o
12 2 0 5163.710 5195.190 324.683 121.942 o
12 2 1 107274.000 107963.000 1491.420 1.284 o
12 2 2 1246.880 1401.930 358.682 206.179 o
12 2 3 12252.500 12421.900 543.446 38.915 o
12 2 4 25210.900 25406.300 788.223 14.022 o
12 2 5 2548.320 3170.560 342.462 171.349 o
12 2 6 4176.470 3878.110 311.097 150.905 o
12 2 7 5394.000 5533.900 476.189 82.069 o
12 2 8 1424.070 2206.390 392.669 168.171 o
12 2 9 1371.770 -185.693 602.148 86.455 o
12 2 10 236.702 960.964 1026.520 31.254 o
12 2 11 1962.390 2117.280 660.365 67.990 o
12 3 0 4907.400 4696.810 287.983 140.701 o
12 3 1 19149.400 21002.000 559.165 22.445 o
12 3 2 16293.200 15805.500 552.730 28.876 o
12 3 3 648.231 761.790 342.947 248.106 o
12 3 4 9862.250 9944.500 650.941 40.119 o
12 3 5 47.617 -9.099 346.929 274.913 o
12 3 6 1051.510 744.375 305.611 285.094 o
12 3 7 16399.500 17469.900 760.714 22.521 o
12 3 8 677.731 1555.330 633.588 78.260 o
12 3 9 1009.940 2034.310 430.353 151.676 o
12 3 10 112.160 -239.393 458.896 156.795 o
12 3 11 39.008 -241.505 627.514 84.409 o
12 4 0 7343.850 7934.110 540.510 58.487 o
12 4 1 4065.260 3888.410 277.007 168.230 o
12 4 2 407.577 217.458 292.973 354.419 o
12 4 3 13.582 148.425 291.652 385.257 o
12 4 4 47141.600 44165.500 1038.210 5.503 o
12 4 5 32236.800 33174.000 1207.380 8.021 o
12 4 6 34122.700 32080.300 933.485 9.016 o
12 4 7 23083.300 24184.100 999.899 13.069 o
12 4 8 2252.910 2144.160 468.841 119.081 o
12 4 9 4988.690 5042.940 525.875 76.149 o
12 4 10 1681.150 1400.350 501.763 113.725 o
12 4 11 7433.050 7400.080 594.376 53.320 o
12 5 0 44.123 235.940 290.723 382.569 o
12 5 1 10021.200 10756.400 500.383 49.028 o
12 5 2 3711.830 3220.020 371.974 137.184 o
12 5 3 2795.140 2553.070 412.376 135.492 o
12 5 4 39942.500 40966.700 907.193 7.041 o
12 5 5 16212.000 15177.700 756.770 23.803 o
12 5 6 1316.920 1619.310 436.451 146.897 o
12 5 7 4244.310 4419.530 543.637 77.779 o
12 5 8 20339.400 20935.500 1033.830 14.385 o
12 5 9 5679.620 6087.660 593.131 60.856 o
12 5 10 2686.880 2867.490 656.419 65.581 o
12 6 0 1724.740 2132.620 300.962 238.623 o
12 6 1 22464.200 22658.300 702.663 17.140 o
12 6 2 3901.520 3946.040 276.197 171.537 o
12 6 3 12047.300 12398.100 510.380 41.059 o
12 6 4 1220.690 955.954 368.865 202.582 o
12 6 5 4395.930 5576.900 691.546 52.842 o
12 6 6 1679.900 2343.820 445.828 133.746 o
12 6 7 9815.920 9583.370 652.397 40.462 o
12 6 8 77.314 454.055 557.166 105.627 o
12 6 9 654.658 -107.510 708.413 64.994 o
12 7 0 9652.570 8148.780 1011.070 24.026 o
12 7 1 38981.100 36846.300 892.416 7.628 o
12 7 2 262.909 196.437 324.846 299.524 o
12 7 3 10637.400 12180.300 697.141 34.328 o
12 7 4 2506.550 2174.660 549.113 90.734 o
12 7 5 955.490 1141.510 444.165 149.639 o
12 7 6 613.032 636.000 537.366 109.622 o
12 7 7 240.566 -672.665 660.112 75.748 o
12 7 8 100.928 451.166 586.473 95.378 o
12 8 0 4204.310 4156.850 641.660 61.670 o
12 8 1 2599.480 1997.450 659.415 66.541 o
12 8 2 5072.610 5854.850 986.721 29.000 o
12 8 3 7702.690 7754.960 451.625 67.920 o
12 8 4 1056.990 548.715 389.755 191.690 o
12 8 5 88.912 737.935 578.460 97.400 o
12 8 6 11189.400 9790.350 966.646 23.930 o
12 8 7 12483.100 13087.800 742.951 29.254 o
12 9 0 3063.160 3346.080 1173.800 22.671 o
12 9 1 5076.490 4884.200 694.309 51.779 o
12 9 2 1307.050 637.791 407.901 172.179 o
12 9 3 1500.760 1922.660 470.847 126.001 o
12 9 4 5805.000 4465.410 666.890 53.683 o
12 9 5 3370.800 3857.060 548.490 82.276 o
12 10 0 5778.550 7064.930 789.398 39.821 o
12 10 1 4689.020 4258.270 906.216 34.561 o
12 10 2 34.831 751.124 461.068 152.017 o
12 10 3 800.183 1872.840 629.485 78.290 o
13 0 0 44.507 308.920 458.136 156.318 o
13 0 2 703.143 1249.420 539.984 106.261 o
13 0 4 3474.370 2962.150 605.470 72.019 o
13 0 6 45344.200 42353.300 1590.320 4.650 o
13 0 8 5776.280 4080.800 805.433 40.703 o
13 0 10 35735.800 33568.800 1727.850 5.511 o
13 1 0 17540.900 16479.700 649.939 24.502 o
13 1 1 37747.500 40431.000 933.230 7.398 o
13 1 2 63189.000 62413.700 1196.320 3.279 o
13 1 3 26.070 127.867 346.545 274.042 o
13 1 4 26932.900 24795.600 835.734 12.992 o
13 1 5 6664.030 6735.440 413.604 81.938 o
13 1 6 1579.960 1688.190 332.678 218.373 o
13 1 7 6564.750 6825.220 594.879 56.675 o
13 1 8 119.417 694.782 886.782 41.942 o
13 1 9 20357.100 21640.800 1070.040 13.786 o
13 1 10 4460.570 4360.890 641.221 60.694 o
13 1 11 2948.000 1869.450 762.464 50.988 o
13 2 0 4230.800 4419.230 351.093 130.357 o
13 2 1 10087.600 10311.800 514.533 48.452 o
13 2 2 1970.220 2238.300 374.899 170.312 o
13 2 3 13055.100 13014.300 674.584 31.226 o
13 2 4 1420.650 1202.960 344.449 217.827 o
13 2 5 11435.100 11649.900 545.419 41.399 o
13 2 6 0.537 639.558 336.033 282.378 o
13 2 7 1286.410 2325.040 488.760 118.410 o
13 2 8 1898.790 1283.500 384.946 173.201 o
13 2 9 17726.400 16076.400 882.171 19.427 o
13 2 10 1886.780 1898.870 610.301 78.829 o
13 2 11 6581.560 5953.200 743.995 43.013 o
13 3 0 18727.000 20302.300 539.617 23.560 o
13 3 1 17963.500 16220.400 548.006 26.559 o
13 3 2 18836.900 19883.100 604.004 22.487 o
13 3 3 1241.190 709.693 369.684 204.118 o
13 3 4 7775.690 6979.180 503.098 62.977 o
13 3 5 3025.280 3558.960 397.946 132.894 o
13 3 6 5630.430 4911.590 370.438 106.030 o
13 3 7 1408.930 714.158 319.666 252.830 o
13 3 8 7081.950 6967.430 830.598 35.330 o
13 3 9 5259.090 5434.760 511.102 76.553 o
13 3 10 3313.800 3609.870 500.079 95.235 o
13 3 11 627.045 254.477 793.374 51.899 o
13 4 0 54.678 -221.358 201.537 803.034 o
13 4 1 4301.130 4192.930 301.705 149.933 o
13 4 2 15041.100 13584.200 662.052 28.679 o
13 4 3 3988.080 4825.050 454.618 98.559 o
13 4 4 1553.900 1181.550 440.692 144.312 o
13 4 5 6466.350 7098.410 638.133 51.859 o
13 4 6 420.350 532.396 493.847 130.677 o
13 4 7 4684.940 4580.470 452.065 94.981 o
13 4 8 1582.920 1631.170 648.343 72.112 o
13 4 9 26992.100 27636.000 977.975 11.324 o
13 4 10 2502.080 2270.410 619.913 73.882 o
13 5 0 2169.610 1146.020 358.669 188.486 o
13 5 1 477.092 122.791 289.940 359.824 o
13 5 2 32519.900 33379.500 702.320 10.331 o
13 5 3 2614.750 2538.730 521.583 96.881 o
13 5 4 1623.960 1277.900 486.928 120.703 o
13 5 5 3753.550 3998.820 441.697 107.430 o
13 5 6 13932.000 15251.300 705.956 27.584 o
13 5 7 2575.240 2765.010 900.310 37.669 o
13 5 8 3214.030 3693.510 714.347 54.716 o
13 5 9 11522.700 12422.900 806.463 28.264 o
13 6 0 5865.550 5857.280 373.643 98.809 o
13 6 1 20391.800 20547.600 689.991 19.444 o
13 6 2 20582.700 20811.000 567.693 21.076 o
13 6 3 2172.400 2423.890 374.302 165.560 o
13 6 4 1037.960 784.975 394.835 185.577 o
13 6 5 14491.500 12777.500 657.838 30.061 o
13 6 6 693.072 324.495 528.638 113.574 o
13 6 7 2233.980 3420.870 488.236 106.957 o
13 6 8 1156.710 1023.350 698.062 64.637 o
13 6 9 5515.190 6886.860 692.118 48.867 o
13 7 0 9598.150 8190.900 1254.890 17.188 o
13 7 1 6805.110 7303.590 404.357 80.738 o
13 7 2 9853.160 10312.600 476.985 51.976 o
13 7 3 10.953 619.593 318.907 312.050 o
13 7 4 1520.080 1012.990 560.010 95.693 o
13 7 5 721.630 505.963 526.248 113.778 o
13 7 6 25.176 10.957 543.185 112.645 o
13 7 7 755.017 807.791 1143.120 25.114 o
13 7 8 444.704 191.181 689.580 68.778 o
13 8 0 1257.580 -509.925 1123.430 25.955 o
13 8 1 3686.560 4146.820 808.386 43.320 o
13 8 2 4889.940 4851.100 810.940 40.950 o
13 8 3 1259.830 1167.150 320.206 249.506 o
13 8 4 6485.610 6646.490 572.226 59.912 o
13 8 5 7159.330 7209.790 803.978 36.775 o
13 8 6 6525.510 6620.270 796.912 38.524 o
13 9 0 31.460 -20.846 744.331 60.032 o
13 9 1 2960.740 3063.000 638.579 67.554 o
13 9 2 3007.370 4062.130 772.609 47.932 o
13 9 3 8096.100 8051.170 609.895 49.180 o
13 9 4 539.404 824.115 560.692 100.990 o
13 10 0 60.191 -851.122 599.916 92.258 o
13 10 1 3142.900 2372.730 670.498 62.703 o
14 0 0 2264.150 2507.660 549.273 91.087 o
14 0 2 88663.800 93672.200 2283.680 1.494 o
14 0 4 32927.100 34513.200 1377.280 7.053 o
14 0 6 658.920 1078.380 840.579 45.851 o
14 0 8 7697.040 6074.620 893.193 31.534 o
14 0 10 22011.400 22882.700 1591.400 8.412 o
14 1 0 12755.200 11727.600 905.066 24.012 o
14 1 1 10072.000 10911.500 613.255 41.104 o
14 1 2 10488.700 10273.300 545.519 45.269 o
14 1 3 5528.150 6653.320 496.638 74.682 o
14 1 4 3713.400 3412.920 457.872 105.246 o
14 1 5 47173.300 45934.100 1452.790 4.623 o
14 1 6 2479.220 3543.130 390.682 143.352 o
14 1 7 15901.900 16712.600 971.588 18.548 o
14 1 8 1861.770 1402.400 543.047 98.095 o
14 1 9 11638.500 10196.400 780.819 30.435 o
14 1 10 815.763 1116.920 616.268 82.749 o
14 1 11 1498.650 -69.503 946.047 36.195 o
14 2 0 5.445 215.867 301.897 358.399 o
14 2 1 7151.930 7071.060 517.509 63.514 o
14 2 2 68.300 565.825 355.587 252.380 o
14 2 3 26649.500 25354.400 827.440 13.065 o
14 2 4 789.814 -177.348 560.060 102.043 o
14 2 5 41741.200 41141.700 903.116 6.741 o
14 2 6 783.466 850.644 499.756 123.574 o
14 2 7 3736.960 4666.320 494.569 90.639 o
14 2 8 42.504 87.392 377.103 231.932 o
14 2 9 2465.680 2867.800 675.062 63.095 o
14 2 10 592.319 1364.640 610.397 84.629 o
14 3 0 1221.570 1153.000 266.729 328.925 o
14 3 1 2004.130 2064.910 310.605 221.462 o
14 3 2 860.255 798.610 480.709 132.316 o
14 3 3 27.797 241.403 366.063 244.258 o
14 3 4 3750.600 3495.620 511.759 89.862 o
14 3 5 14160.800 13985.100 1152.600 16.507 o
14 3 6 5650.640 6403.650 421.498 88.374 o
14 3 7 3750.100 3736.210 377.071 131.242 o
14 3 8 1469.240 1572.550 463.915 131.177 o
14 3 9 7354.920 7255.430 594.040 53.786 o
14 3 10 1.188 -453.054 607.211 90.281 o
14 4 0 524.430 160.035 251.764 456.628 o
14 4 1 14098.900 13895.100 491.641 36.005 o
14 4 2 16638.900 15509.300 691.389 24.913 o
14 4 3 4571.950 4307.110 461.252 94.498 o
14 4 4 53.350 -344.558 549.710 109.864 o
14 4 5 15979.400 16720.800 984.418 18.247 o
14 4 6 10513.800 11433.000 611.557 39.784 o
14 4 7 6738.200 8166.580 551.731 58.907 o
14 4 8 918.752 40.261 667.725 72.226 o
14 4 9 6983.080 6807.270 581.054 56.986 o
14 5 0 9604.480 9382.730 733.563 36.062 o
14 5 1 1057.370 1767.620 345.025 219.406 o
14 5 2 9303.610 9421.820 644.162 42.184 o
14 5 3 26092.700 26713.100 749.795 13.669 o
14 5 4 240.833 130.219 494.509 133.538 o
14 5 5 16284.400 17588.600 833.031 20.933 o
14 5 6 18503.700 18455.200 824.630 19.228 o
14 5 7 3005.080 3350.110 510.042 95.272 o
14 5 8 4277.720 4764.940 562.544 73.281 o
14 5 9 10748.800 11003.900 777.748 31.155 o
14 6 0 8132.340 7900.080 492.089 61.005 o
14 6 1 2923.470 2919.270 527.607 92.237 o
14 6 2 1204.620 1282.470 334.567 233.006 o
14 6 3 11091.000 11307.300 546.871 42.487 o
14 6 4 9.244 -339.955 467.698 152.084 o
14 6 5 19259.300 18554.900 1117.210 14.173 o
14 6 6 1361.340 1273.540 514.036 111.720 o
14 6 7 5281.600 6480.190 670.328 52.126 o
14 6 8 204.661 398.762 516.415 121.945 o
14 7 0 1540.530 1787.840 453.029 134.663 o
14 7 1 982.130 807.138 353.828 225.085 o
14 7 2 4825.930 5581.630 537.060 73.650 o
14 7 3 1857.300 1547.420 446.844 135.625 o
14 7 4 261.747 1144.640 451.147 153.530 o
14 7 5 21079.900 21780.900 1026.090 14.013 o
14 7 6 3149.940 3474.330 609.229 71.558 o
14 7 7 1773.820 1378.110 603.089 81.946 o
14 8 0 42.620 224.891 1175.220 24.061 o
14 8 1 1902.920 2700.490 861.107 41.623 o
14 8 2 15.985 -51.326 414.474 193.502 o
14 8 3 1.529 333.745 323.064 311.220 o
14 8 4 2273.500 3625.160 652.036 66.431 o
14 8 5 41.433 -1232.840 631.361 83.378 o
14 9 0 339.532 2093.950 748.771 57.062 o
14 9 1 61.547 53.868 714.336 65.064 o
14 9 2 3011.280 2697.480 1032.050 29.018 o
14 9 3 2315.120 2078.640 600.522 79.076 o
14 10 0 5030.160 4511.780 818.772 40.356 o
15 0 0 26423.400 26830.300 1131.750 10.451 o
15 0 2 48820.300 52055.400 1629.380 3.975 o
15 0 4 1226.490 1045.070 635.381 76.900 o
15 0 6 251.308 -462.052 670.153 73.486 o
15 0 8 552.683 336.174 1007.900 32.405 o
15 0 10 4067.780 5175.740 981.117 30.255 o
15 1 0 48666.800 50044.800 1078.640 4.951 o
15 1 1 9945.930 10618.800 724.513 35.126 o
15 1 2 7321.780 6438.620 484.159 68.504 o
15 1 3 2977.840 2982.580 451.804 115.347 o
15 1 4 9313.130 9454.090 754.413 35.252 o
15 1 5 16985.400 15207.100 850.973 20.895 o
15 1 6 15055.900 15432.300 690.701 26.673 o
15 1 7 2781.940 2593.730 411.128 135.974 o
15 1 8 2154.720 850.173 644.012 72.441 o
15 1 9 3022.050 3605.970 617.977 70.156 o
15 1 10 226.064 995.488 792.364 52.070 o
15 2 0 24408.000 23713.300 766.600 15.027 o
15 2 1 304.285 -8.214 361.454 245.918 o
15 2 2 4947.350 4741.670 469.245 88.641 o
15 2 3 1344.820 1514.260 431.418 150.095 o
15 2 4 1278.560 1601.340 454.901 137.458 o
15 2 5 3566.570 3112.140 431.533 116.485 o
15 2 6 1805.460 1747.690 406.168 157.249 o
15 2 7 23364.900 22938.400 840.917 14.929 o
15 2 8 3624.080 3522.520 444.432 109.742 o
15 2 9 232.055 787.135 662.215 74.240 o
15 2 10 1344.410 1371.150 609.481 82.034 o
15 3 0 58438.100 59278.600 998.005 3.836 o
15 3 1 6486.090 6224.730 469.882 75.240 o
15 3 2 12810.700 12068.700 662.580 32.747 o
15 3 3 2020.700 2287.350 409.251 148.663 o
15 3 4 24044.300 22861.700 961.607 13.348 o
15 3 5 5111.390 4349.520 574.787 68.656 o
15 3 6 7194.340 7626.810 499.146 64.512 o
15 3 7 330.628 326.209 357.144 246.072 o
15 3 8 6922.560 6825.900 544.417 61.500 o
15 3 9 45.953 585.065 526.203 117.984 o
15 4 0 6524.050 6414.120 378.264 90.252 o
15 4 1 412.599 240.582 281.264 380.582 o
15 4 2 6823.940 6439.940 394.214 85.140 o
15 4 3 8303.480 8414.290 615.896 47.693 o
15 4 4 2282.350 2952.380 557.626 87.647 o
15 4 5 266.046 1159.220 489.927 131.311 o
15 4 6 4975.340 4890.070 556.339 71.182 o
15 4 7 2030.040 2406.060 677.229 64.453 o
15 4 8 4081.340 2528.510 706.907 55.061 o
15 4 9 2836.550 4625.000 1012.300 29.592 o
15 5 0 9622.320 9658.670 717.850 36.729 o
15 5 1 2011.980 2403.710 339.996 192.371 o
15 5 2 11262.200 10764.300 627.836 38.073 o
15 5 3 1374.380 1711.430 338.649 217.925 o
15 5 4 4474.190 4499.860 495.976 86.359 o
15 5 5 7684.980 8109.100 533.344 57.785 o
15 5 6 11.992 268.317 671.925 73.367 o
15 5 7 11119.400 11449.700 763.266 31.074 o
15 5 8 4307.190 4225.200 620.116 64.499 o
15 6 0 25899.200 23788.200 1094.460 11.318 o
15 6 1 2036.800 2935.560 535.336 95.094 o
15 6 2 3174.810 3523.740 324.041 166.283 o
15 6 3 3715.600 3851.820 412.373 118.011 o
15 6 4 455.651 1497.580 435.551 159.080 o
15 6 5 13.040 531.685 434.739 172.199 o
15 6 6 722.401 628.232 531.558 111.245 o
15 6 7 1520.570 650.521 509.963 114.397 o
15 7 0 1647.930 1829.530 453.833 132.937 o
15 7 1 609.591 -200.963 379.701 216.480 o
15 7 2 492.060 356.845 468.388 144.746 o
15 7 3 1705.600 1423.060 337.911 213.641 o
15 7 4 9712.440 10295.000 605.488 43.029 o
15 7 5 2009.560 1654.080 646.488 71.163 o
15 7 6 3967.870 5235.250 980.975 30.313 o
15 8 0 290.727 224.551 1298.710 19.663 o
15 8 1 3921.880 1546.600 861.770 39.998 o
15 8 2 4068.760 4404.020 589.955 69.964 o
15 8 3 2069.020 2232.540 510.622 104.814 o
15 8 4 6125.910 7173.250 1228.770 19.186 o
15 8 5 3879.290 2693.040 1402.290 16.094 o
15 9 0 1617.560 1770.320 943.285 35.676 o
15 9 1 1088.830 957.840 775.628 53.048 o
15 9 2 3747.280 3379.220 889.933 37.027 o
16 0 0 30673.500 32885.600 1259.590 8.082 o
16 0 2 195.117 619.323 572.592 99.142 o
16 0 4 12457.600 13143.700 1967.990 7.465 o
16 0 6 29497.600 25153.600 1509.100 7.626 o
16 0 8 24683.800 22912.100 1582.380 8.075 o
16 1 0 435.204 1076.280 389.988 198.493 o
16 1 1 121.215 154.045 376.420 229.977 o
16 1 2 3144.160 2800.600 423.980 125.178 o
16 1 3 3265.550 2596.530 472.828 107.321 o
16 1 4 1755.230 1273.640 454.870 134.197 o
16 1 5 4497.320 3714.410 542.728 78.429 o
16 1 6 11744.900 11921.500 657.024 34.755 o
16 1 7 25257.200 24260.700 1365.070 9.310 o
16 1 8 9825.250 10766.400 841.915 29.466 o
16 1 9 298.172 -637.319 552.008 107.614 o
16 2 0 6975.140 7469.660 550.860 59.393 o
16 2 1 15310.700 14484.400 760.346 24.887 o
16 2 2 1830.970 1959.570 416.634 149.344 o
16 2 3 208.836 323.290 421.935 181.123 o
16 2 4 4143.460 4688.570 609.200 65.990 o
16 2 5 657.353 17.132 449.426 156.652 o
16 2 6 946.039 1264.070 408.493 172.511 o
16 2 7 1927.220 1279.460 491.624 116.304 o
16 2 8 432.752 701.715 423.849 173.289 o
16 2 9 2902.650 3786.450 671.875 61.267 o
16 3 0 2571.190 2658.170 327.551 185.770 o
16 3 1 5817.810 5199.180 441.166 87.401 o
16 3 2 138.526 486.422 397.142 203.399 o
16 3 3 2497.540 2350.720 499.859 105.048 o
16 3 4 1643.320 827.261 434.308 148.978 o
16 3 5 994.926 1728.350 529.466 106.863 o
16 3 6 1630.550 1811.970 645.162 72.340 o
16 3 7 5764.160 6312.490 535.669 68.217 o
16 3 8 247.290 -102.318 457.380 156.272 o
16 3 9 640.062 1374.610 532.769 108.956 o
16 4 0 6171.530 7194.690 573.662 59.869 o
16 4 1 411.568 982.450 311.343 298.909 o
16 4 2 1553.970 1973.710 369.547 184.338 o
16 4 3 5981.220 6098.980 718.279 46.217 o
16 4 4 645.227 596.310 445.093 156.123 o
16 4 5 3945.330 3360.850 594.561 71.566 o
16 4 6 9709.050 9023.020 812.991 31.915 o
16 4 7 7285.370 10058.900 668.043 43.917 o
16 4 8 6656.840 7331.740 600.258 55.042 o
16 5 0 7897.240 7032.280 1537.740 12.585 o
16 5 1 51.552 16.791 416.448 190.934 o
16 5 2 2825.090 3123.780 641.341 67.394 o
16 5 3 3682.620 3461.230 461.365 104.240 o
16 5 4 2801.690 3028.470 510.381 97.472 o
16 5 5 740.138 555.864 487.802 130.891 o
16 5 6 4319.280 3573.670 645.793 61.575 o
16 5 7 8701.810 9552.520 656.352 42.419 o
16 6 0 2374.480 2305.160 543.330 92.686 o
16 6 1 8739.410 8291.940 634.096 45.339 o
16 6 2 1437.080 1275.350 379.126 186.083 o
16 6 3 5830.560 6203.790 482.622 76.644 o
16 6 4 192.490 697.672 482.386 138.018 o
16 6 5 407.028 617.559 590.803 92.370 o
16 6 6 5.667 -151.233 467.696 152.123 o
16 7 0 3386.480 4424.660 650.528 62.318 o
16 7 1 9059.280 9149.260 732.322 37.149 o
16 7 2 867.253 461.670 517.185 116.716 o
16 7 3 8133.290 9045.310 824.433 33.171 o
16 7 4 3288.760 3357.950 489.063 99.340 o
16 7 5 1306.390 866.280 524.485 109.472 o
16 8 0 201.094 547.357 489.918 134.530 o
16 8 1 307.241 721.285 454.473 153.336 o
16 8 2 675.699 897.610 498.322 124.908 o
16 8 3 4732.970 4658.080 746.661 47.155 o
16 8 4 383.459 -178.892 706.848 65.840 o
16 9 0 49.802 -1470.520 1031.800 31.246 o
16 9 1 11.473 -1561.750 793.377 52.871 o
17 0 0 23301.100 24885.700 2226.940 5.084 o
17 0 2 2539.390 2524.960 692.864 60.542 o
17 0 4 19703.300 19748.300 1327.320 11.371 o
17 0 6 8094.800 8622.170 988.453 25.766 o
17 0 8 3660.580 3268.360 843.918 40.803 o
17 1 0 10419.100 11383.200 840.233 28.605 o
17 1 1 297.945 380.797 431.933 171.407 o
17 1 2 15669.200 14707.000 790.251 23.632 o
17 1 3 1965.190 2330.570 486.931 113.673 o
17 1 4 492.564 995.040 486.781 131.651 o
17 1 5 2127.150 1850.440 504.708 107.769 o
17 1 6 13183.700 11722.200 913.661 23.417 o
17 1 7 28.946 -49.220 392.332 215.646 o
17 1 8 17.940 -658.700 562.450 105.136 o
17 1 9 1221.790 769.792 864.464 43.014 o
17 2 0 10212.800 10260.500 598.815 42.412 o
17 2 1 8996.060 9758.740 629.768 43.486 o
17 2 2 17424.000 17423.600 806.958 20.704 o
17 2 3 62803.400 62016.900 2292.770 2.399 o
17 2 4 1136.730 151.729 454.370 147.201 o
17 2 5 34082.400 34349.800 1440.020 6.655 o
17 2 6 989.361 935.772 528.523 109.757 o
17 2 7 532.213 144.510 623.561 83.567 o
17 2 8 209.317 766.025 463.238 148.670 o
17 3 0 37331.500 39982.900 860.567 7.742 o
17 3 1 1998.360 2206.210 397.649 156.081 o
17 3 2 37701.100 36883.700 1031.910 7.403 o
17 3 3 7306.510 7323.100 561.482 57.315 o
17 3 4 490.354 650.327 495.521 128.766 o
17 3 5 4996.490 4399.310 573.777 69.169 o
17 3 6 2977.930 2010.310 927.634 35.633 o
17 3 7 2735.900 2999.090 521.313 94.837 o
17 3 8 1125.050 1769.070 494.527 119.528 o
17 4 0 7325.840 7682.690 854.021 33.238 o
17 4 1 3617.020 4717.840 374.411 127.793 o
17 4 2 1918.450 1743.010 454.113 130.481 o
17 4 3 14001.100 12373.500 690.413 29.788 o
17 4 4 3353.300 4527.560 546.260 81.225 o
17 4 5 409.925 922.409 571.646 97.711 o
17 4 6 1655.920 1969.880 594.989 83.226 o
17 4 7 14.427 1431.530 610.114 86.732 o
17 5 0 391.577 -137.459 492.637 133.803 o
17 5 1 719.761 1507.650 299.605 291.985 o
17 5 2 716.303 222.221 332.181 269.498 o
17 5 3 26075.500 25660.200 904.988 12.566 o
17 5 4 1002.230 670.407 478.494 132.723 o
17 5 5 1958.110 2635.680 547.300 92.918 o
17 5 6 3650.430 2643.370 706.537 55.927 o
17 5 7 2479.330 1485.240 542.848 94.490 o
17 6 0 10674.800 10267.300 887.097 27.016 o
17 6 1 13978.400 15714.100 935.360 20.839 o
17 6 2 28332.400 26845.200 2056.950 5.290 o
17 6 3 5128.940 5162.020 638.261 58.043 o
17 6 4 56.156 55.325 707.133 66.402 o
17 6 5 1850.650 1848.820 498.432 112.067 o
17 6 6 10901.400 10049.000 633.212 39.115 o
17 7 0 1622.970 884.401 788.790 50.655 o
17 7 1 864.963 2017.570 598.490 85.436 o
17 7 2 852.053 247.186 572.842 96.824 o
17 7 3 21925.700 21896.500 1146.440 12.335 o
17 7 4 534.289 314.385 480.091 137.885 o
17 8 0 805.838 357.202 479.738 135.346 o
17 8 1 8.607 276.036 915.785 39.586 o
17 8 2 3244.790 3862.910 571.989 77.778 o
18 0 0 5830.590 6922.270 778.203 40.704 o
18 0 2 5156.750 5595.320 769.240 43.530 o
18 0 4 423.813 -91.518 712.363 64.755 o
18 0 6 6328.350 6275.490 1282.780 17.867 o
18 0 8 4993.030 3505.730 946.500 32.135 o
18 1 0 18645.200 20520.800 1269.620 12.169 o
18 1 1 151.145 306.888 429.070 176.296 o
18 1 2 437.948 3.584 450.435 158.702 o
18 1 3 10522.300 10540.100 1054.570 21.384 o
18 1 4 17376.000 17985.700 901.310 18.674 o
18 1 5 1780.540 655.433 511.734 111.837 o
18 1 6 847.863 17.095 534.447 111.224 o
18 1 7 5795.180 5066.640 670.727 52.543 o
18 1 8 5769.060 4674.610 705.145 49.350 o
18 2 0 11902.700 11679.100 674.657 33.867 o
18 2 1 19779.800 19226.100 852.807 17.694 o
18 2 2 1.454 256.704 429.529 178.502 o
18 2 3 16891.100 14392.300 795.901 22.571 o
18 2 4 6080.800 6929.200 620.292 55.044 o
18 2 5 1501.990 1405.380 576.906 89.869 o
18 2 6 907.705 1086.590 581.516 91.956 o
18 2 7 108.350 -59.940 562.524 104.649 o
18 2 8 7.356 -327.729 843.857 46.740 o
18 3 0 21533.900 19932.300 826.960 16.855 o
18 3 1 29632.400 28971.500 915.472 10.734 o
18 3 2 7831.960 8308.630 563.397 53.902 o
18 3 3 233.394 214.542 467.227 148.882 o
18 3 4 3967.140 3330.780 561.312 77.981 o
18 3 5 11126.300 9935.440 678.515 36.285 o
18 3 6 13.327 503.941 640.561 80.325 o
18 3 7 283.329 1194.640 528.312 113.545 o
18 4 0 6186.260 6205.260 401.520 89.159 o
18 4 1 3784.280 3285.860 385.279 130.409 o
18 4 2 8879.150 9303.980 603.394 46.233 o
18 4 3 889.156 237.780 704.963 64.868 o
18 4 4 9680.880 11870.100 734.765 34.063 o
18 4 5 1252.730 763.854 536.571 105.672 o
18 4 6 13.711 -58.099 512.721 126.528 o
18 4 7 43.585 289.186 910.829 39.986 o
18 5 0 13835.100 13048.400 888.841 23.130 o
18 5 1 2824.700 3347.170 512.393 95.747 o
18 5 2 216.853 1250.020 476.372 138.502 o
18 5 3 103.747 91.090 727.963 62.546 o
18 5 4 4906.050 4857.740 567.134 69.722 o
18 5 5 406.462 1517.380 552.569 102.676 o
18 5 6 1448.880 1665.560 550.050 97.449 o
18 6 0 11411.700 10625.100 846.109 27.753 o
18 6 1 2835.990 3280.270 982.032 31.733 o
18 6 2 2323.680 1437.930 360.554 180.956 o
18 6 3 192.284 1133.410 468.465 143.793 o
18 6 4 13692.600 14079.000 819.555 24.861 o
18 6 5 746.318 917.597 512.517 117.946 o
18 7 0 7460.690 8052.800 819.367 34.881 o
18 7 1 24671.500 24068.000 1084.150 11.738 o
18 7 2 13347.800 12099.400 910.930 23.230 o
18 7 3 8859.050 9144.810 1708.490 10.176 o
18 8 0 2960.350 3100.090 704.075 57.283 o
18 8 1 6663.580 7204.790 681.066 47.117 o
19 0 0 3381.220 3430.530 700.267 56.487 o
19 0 2 6195.780 8400.180 897.375 31.640 o
19 0 4 22515.600 21490.000 2358.400 4.774 o
19 0 6 265.310 1297.770 997.014 33.003 o
19 1 0 42426.400 42530.200 1231.670 5.737 o
19 1 1 3195.520 3454.200 679.736 59.774 o
19 1 2 849.365 53.901 481.871 135.215 o
19 1 3 1067.740 1241.820 518.916 111.949 o
19 1 4 22266.900 21685.400 1072.970 13.045 o
19 1 5 1979.980 1440.930 589.553 84.337 o
19 1 6 10302.300 10829.200 753.773 32.970 o
19 1 7 1257.460 700.832 1155.770 24.433 o
19 2 0 2845.120 1821.330 616.252 74.212 o
19 2 1 37337.400 38020.600 1093.110 7.161 o
19 2 2 1226.380 2069.660 479.266 124.047 o
19 2 3 58923.800 58457.700 1413.500 3.435 o
19 2 4 809.866 836.312 519.862 114.703 o
19 2 5 17633.800 18481.100 1391.600 11.336 o
19 2 6 187.457 437.390 573.026 99.462 o
19 2 7 14526.100 14335.300 862.590 22.810 o
19 3 0 17186.300 15883.400 862.515 20.261 o
19 3 1 18383.000 20283.700 856.721 18.153 o
19 3 2 129.071 -228.985 445.840 165.817 o
19 3 3 22235.600 22868.100 991.734 13.737 o
19 3 4 1628.620 1474.080 531.499 103.017 o
19 3 5 351.486 16.791 572.313 99.925 o
19 3 6 3059.450 3235.550 687.918 59.187 o
19 4 0 371.578 108.867 337.177 276.637 o
19 4 1 1953.590 1852.930 441.090 135.730 o
19 4 2 26.603 -52.659 409.309 198.216 o
19 4 3 1027.790 1483.250 542.810 102.685 o
19 4 4 5268.250 5832.180 617.240 59.389 o
19 4 5 7534.430 6459.650 663.562 47.614 o
19 4 6 1964.440 -136.254 954.750 35.239 o
19 5 0 438.848 603.954 561.885 101.657 o
19 5 1 11590.100 12707.400 995.670 21.785 o
19 5 2 4100.340 3657.700 415.803 113.991 o
19 5 3 5948.450 6833.070 810.765 38.184 o
19 5 4 11235.100 12032.600 795.814 29.212 o
19 5 5 65.538 577.632 572.662 99.831 o
19 6 0 16561.100 15970.100 973.198 18.354 o
19 6 1 30849.700 30062.300 1252.950 8.344 o
19 6 2 286.373 457.143 452.822 156.199 o
19 6 3 11106.100 11153.900 867.821 26.956 o
19 6 4 1885.780 1607.900 549.994 95.268 o
19 7 0 2509.780 3249.580 638.150 68.743 o
19 7 1 7986.500 8095.480 955.989 27.381 o
19 7 2 2690.870 2173.180 632.784 70.876 o
20 0 0 3090.120 4928.010 1609.450 12.328 o
20 0 2 10415.400 11516.100 1693.110 10.006 o
20 0 4 22190.400 24489.000 1568.130 8.421 o
20 0 6 3082.700 3254.310 1011.810 29.890 o
20 1 0 30145.900 29024.200 1034.580 9.846 o
20 1 1 11374.100 10596.000 668.589 35.858 o
20 1 2 794.312 1289.160 572.743 94.659 o
20 1 3 2962.530 3072.430 574.245 80.234 o
20 1 4 46.669 665.869 671.241 72.926 o
20 1 5 644.711 -87.149 595.145 91.360 o
20 1 6 119.911 302.330 612.515 87.747 o
20 2 0 2160.400 2103.690 501.016 107.929 o
20 2 1 2313.510 2995.180 537.119 92.861 o
20 2 2 308.378 995.530 496.717 128.254 o
20 2 3 32.231 -195.599 789.028 53.428 o
20 2 4 2036.420 1512.740 545.579 96.039 o
20 2 5 85.331 -889.737 571.402 101.549 o
20 2 6 1.549 1041.400 609.898 87.564 o
20 3 0 32429.800 31337.500 1044.310 8.962 o
20 3 1 5809.940 7995.250 668.298 49.333 o
20 3 2 4542.620 5047.810 579.610 68.707 o
20 3 3 418.810 440.105 724.513 62.222 o
20 3 4 857.935 -4.428 605.542 87.517 o
20 3 5 333.733 -193.386 578.460 97.966 o
20 4 0 164.661 614.176 365.555 236.079 o
20 4 1 11983.400 11557.900 699.213 32.715 o
20 4 2 20.387 -691.570 429.758 179.935 o
20 4 3 8398.680 7664.970 621.243 47.919 o
20 4 4 624.454 -668.855 635.961 80.351 o
20 4 5 730.700 963.190 567.473 97.417 o
20 5 0 412.660 -271.271 410.573 190.218 o
20 5 1 14558.400 14065.600 619.409 30.434 o
20 5 2 1153.600 1413.630 487.656 123.747 o
20 5 3 1668.740 1140.580 541.442 100.449 o
20 5 4 13125.800 13973.100 841.815 24.734 o
20 6 0 1940.960 2868.220 652.782 68.369 o
20 6 1 1072.440 379.008 646.013 76.023 o
20 6 2 1626.540 1314.300 492.209 118.316 o
20 7 0 3739.620 3430.530 1257.420 19.714 o
21 0 0 1797.810 1648.400 1366.440 17.403 o
21 0 2 11935.400 14578.300 1191.130 16.529 o
21 0 4 530.320 848.757 796.317 51.259 o
21 1 0 4114.430 5724.610 595.577 66.462 o
21 1 1 107.159 -215.138 520.040 122.346 o
21 1 2 3580.770 2896.240 588.907 74.947 o
21 1 3 9820.590 10328.100 742.240 34.572 o
21 1 4 55.030 -304.894 826.865 48.629 o
21 1 5 199.605 144.966 571.494 100.626 o
21 2 0 635.410 461.996 468.419 142.721 o
21 2 1 3611.270 4962.230 594.842 69.778 o
21 2 2 6498.550 7578.600 724.018 43.370 o
21 2 3 28775.300 29619.400 1131.160 9.521 o
21 2 4 2044.600 2918.740 590.089 80.863 o
21 2 5 30511.900 28672.300 1542.460 7.073 o
21 3 0 2139.460 1103.690 480.070 119.992 o
21 3 1 1200.730 2065.700 744.063 56.253 o
21 3 2 992.237 1036.490 560.060 98.323 o
21 3 3 4394.870 3776.830 647.535 60.816 o
21 3 4 326.072 152.669 516.853 121.755 o
21 4 0 2157.660 2441.910 512.909 102.767 o
21 4 1 3118.270 2617.650 515.635 95.273 o
21 4 2 34.646 -580.917 503.709 130.927 o
21 4 3 3564.110 2299.680 554.788 83.676 o
21 5 0 1274.760 1084.690 1254.230 20.760 o
21 5 1 3028.660 2113.360 602.047 75.933 o
21 5 2 4482.800 4043.260 592.887 68.599 o
21 6 0 179.614 1150.560 654.177 75.669 o
21 6 1 137.642 -167.833 719.386 64.062 o
22 0 0 455.480 430.853 737.298 60.065 o
22 0 2 4046.280 4257.100 1207.090 21.037 o
22 0 4 17.190 898.578 983.011 34.191 o
22 1 0 6776.440 8073.810 769.747 39.028 o
22 1 1 4144.440 4077.850 591.695 69.988 o
22 1 2 6060.750 5665.300 624.621 56.384 o
22 1 3 1279.900 1082.960 584.863 89.354 o
22 1 4 82.266 44.096 583.561 97.294 o
22 2 0 175.690 457.627 571.291 100.063 o
22 2 1 3175.950 2484.770 563.510 83.041 o
22 2 2 128.510 664.506 569.410 100.440 o
22 2 3 14493.600 12566.000 838.643 24.248 o
22 2 4 7378.080 6197.850 652.570 49.295 o
22 3 0 5989.580 5591.960 575.822 62.974 o
22 3 1 2471.490 3091.840 586.565 79.542 o
22 3 2 11246.400 8680.420 956.817 24.628 o
22 3 3 5474.730 4861.770 644.462 56.715 o
22 4 0 865.261 1320.390 566.454 96.201 o
22 4 1 536.427 353.442 484.159 135.485 o
22 4 2 69.766 -561.365 515.310 124.858 o
22 5 0 6160.560 5068.350 565.734 64.713 o
22 5 1 969.606 33.000 529.627 112.334 o
23 0 0 14794.100 16900.600 1908.230 7.502 o
23 0 2 331.329 1056.150 883.473 41.913 o
23 1 0 2003.510 2349.070 614.867 76.565 o
23 1 1 139.443 478.106 611.796 87.559 o
23 1 2 479.388 -21.789 528.412 116.102 o
23 1 3 59.976 695.816 592.637 93.095 o
23 2 0 1971.020 1958.910 599.517 80.891 o
23 2 1 18642.300 18804.100 998.593 16.101 o
23 2 2 243.626 -17.290 938.808 37.609 o
23 3 0 3870.500 4142.340 920.020 34.464 o
23 3 1 496.184 -167.579 528.764 115.843 o
23 3 2 1447.440 395.364 798.985 50.007 o
23 4 0 1127.440 1100.490 802.714 49.519 o
23 4 1 374.168 -36.804 476.575 142.904 o
24 0 0 1523.880 900.282 822.454 46.904 o
24 1 0 2547.790 2896.310 683.177 61.564 o
24 1 1 1244.220 444.992 828.359 46.865 o
24 2 0 268.218 1038.530 536.323 110.904 o
24 2 1 11121.500 12036.800 787.289 29.689 o
24 3 0 1258.320 1526.250 552.721 98.004 o
;
_olex2_submission_special_instructions 'No special instructions were received'
loop_
_space_group_symop_id
_space_group_symop_operation_xyz
1 x,y,z
2 -x,y,-z+1/2
3 -x,-y,-z
4 x,-y,z-1/2
loop_
_atom_site_label
_atom_site_type_symbol
_atom_site_fract_x
_atom_site_fract_y
_atom_site_fract_z
_atom_site_U_iso_or_equiv
_atom_site_adp_type
_atom_site_occupancy
_atom_site_site_symmetry_order
_atom_site_refinement_flags_posn
_atom_site_refinement_flags_adp
_atom_site_refinement_flags_occupancy
Br01 Br 0.60584(5) 0.88550(10) 0.52654(8) 0.0585(5) Uani 1.000000 1 . . .
Br02 Br 0.64472(5) 1.11880(10) 0.55033(9) 0.0638(5) Uani 1.000000 1 . . .
Br2 Br 0.82395(5) 0.68265(10) 0.39259(9) 0.0580(5) Uani 1.000000 1 . . .
Br4 Br 1.22909(5) 0.64062(10) 0.46235(9) 0.0679(6) Uani 1.000000 1 . . .
Br1 Br 0.86492(5) 0.45345(10) 0.44093(9) 0.0618(5) Uani 1.000000 1 . . .
Br06 Br 0.26037(5) 1.08808(10) 0.58912(10) 0.0722(6) Uani 1.000000 1 . . .
Br07 Br 0.28697(5) 1.32131(10) 0.56060(9) 0.0680(6) Uani 1.000000 1 . . .
Br3 Br 1.19908(5) 0.87459(10) 0.48935(9) 0.0761(6) Uani 1.000000 1 . . .
VO1 V 1.01602(6) 0.66138(11) 0.34442(10) 0.0126(5) Uani 1.000000 1 . . .
VO2 V 0.47296(6) 1.10263(11) 0.65654(10) 0.0114(5) Uani 1.000000 1 . . .
O011 O 1.0 0.6577(7) 0.25 0.042(3) Uiso 1.000000 2 S T P
O012 O 0.5 1.0976(7) 0.75 0.038(3) Uiso 1.000000 2 S T P
C47 C 0.4546(4) 0.7995(9) 0.6479(7) 0.049(4) Uiso 1.000000 1 . . .
H47 H 0.4667(4) 0.7372(9) 0.6507(7) 0.058(5) Uiso 1.000000 1 R . .
C62 C 0.3222(4) 1.1356(8) 0.6137(6) 0.032(3) Uiso 1.000000 1 . . .
N4 N 1.0881(3) 0.7018(9) 0.3808(5) 0.037(3) Uani 1.000000 1 . . .
C17 C 0.8800(4) 0.6333(11) 0.3823(6) 0.031(3) Uani 1.000000 1 . . .
N1 N 0.9535(4) 0.6239(9) 0.3672(5) 0.037(3) Uani 1.000000 1 . . .
C18 C 0.8956(5) 0.5434(9) 0.3986(7) 0.034(4) Uani 1.000000 1 . . .
N7 N 0.4849(3) 1.2425(6) 0.6317(5) 0.032(3) Uani 1.000000 1 . . .
N8 N 0.5281(3) 1.0639(6) 0.6159(5) 0.034(3) Uani 1.000000 1 . . .
C20 C 0.9655(5) 0.4514(10) 0.3845(6) 0.036(4) Uani 1.000000 1 . . .
C73 C 0.6955(5) 1.2772(10) 0.7253(8) 0.071(5) Uiso 1.000000 1 . . .
H73 H 0.7197(5) 1.2547(10) 0.7641(8) 0.085(6) Uiso 1.000000 1 R . .
C25 C 0.9418(5) 0.1998(11) 0.4449(9) 0.083(5) Uiso 1.000000 1 . . .
H25 H 0.9541(5) 0.1575(11) 0.4828(9) 0.100(6) Uiso 1.000000 1 R . .
C51 C 0.5797(4) 0.9794(8) 0.5721(6) 0.032(3) Uiso 1.000000 1 . . .
C61 C 0.3324(4) 1.2287(8) 0.6029(6) 0.030(3) Uiso 1.000000 1 . . .
C3 C 1.0751(5) 0.3868(10) 0.3539(7) 0.048(4) Uani 1.000000 1 . . .
H3 H 1.0974(5) 0.3465(10) 0.3442(7) 0.058(5) Uiso 1.000000 1 R . .
C7 C 1.1677(4) 0.6897(11) 0.4259(7) 0.036(4) Uani 1.000000 1 . . .
C8 C 1.1564(5) 0.7825(11) 0.4347(7) 0.043(4) Uani 1.000000 1 . . .
N6 N 0.4473(3) 0.9648(6) 0.6315(5) 0.030(3) Uani 1.000000 1 . . .
C63 C 0.3655(4) 1.0825(8) 0.6381(6) 0.029(3) Uiso 1.000000 1 . . .
N2 N 1.0389(4) 0.5233(7) 0.3755(5) 0.037(3) Uani 1.000000 1 . . .
C52 C 0.5950(4) 1.0724(8) 0.5813(6) 0.034(3) Uiso 1.000000 1 . . .
C46 C 0.4156(4) 0.8262(8) 0.6621(7) 0.045(4) Uiso 1.000000 1 . . .
H46 H 0.3954(4) 0.7854(8) 0.6765(7) 0.054(4) Uiso 1.000000 1 R . .
C2 C 1.0335(6) 0.3590(9) 0.3602(7) 0.052(4) Uani 1.000000 1 . . .
H2 H 1.0217(6) 0.2963(9) 0.3554(7) 0.062(5) Uiso 1.000000 1 R . .
C66 C 0.5147(5) 0.7250(9) 0.5493(7) 0.057(4) Uiso 1.000000 1 . . .
H66 H 0.4858(5) 0.7410(9) 0.5169(7) 0.068(5) Uiso 1.000000 1 R . .
C68 C 0.5760(5) 0.6140(12) 0.5953(9) 0.091(5) Uiso 1.000000 1 . . .
H68 H 0.5896(5) 0.5541(12) 0.5927(9) 0.109(7) Uiso 1.000000 1 R . .
N3 N 1.0013(4) 0.8003(7) 0.3648(5) 0.035(3) Uani 1.000000 1 . . .
N5 N 0.4024(3) 1.1445(6) 0.6413(5) 0.031(3) Uani 1.000000 1 . . .
C45 C 0.4099(4) 0.9298(8) 0.6513(6) 0.032(3) Uiso 1.000000 1 . . .
C50 C 0.5391(4) 0.9727(8) 0.5970(6) 0.031(3) Uiso 1.000000 1 . . .
C74 C 0.7030(5) 1.3521(10) 0.6858(8) 0.067(4) Uiso 1.000000 1 . . .
H74 H 0.7328(5) 1.3796(10) 0.6977(8) 0.080(5) Uiso 1.000000 1 R . .
C16 C 0.9163(5) 0.6855(11) 0.3608(7) 0.037(4) Uani 1.000000 1 . . .
C9 C 1.1061(5) 0.7917(10) 0.4036(7) 0.036(4) Uani 1.000000 1 . . .
C21 C 0.9442(4) 0.3536(9) 0.3876(7) 0.047(4) Uiso 1.000000 1 . . .
C53 C 0.5635(4) 1.1255(9) 0.6113(7) 0.038(4) Uiso 1.000000 1 . . .
C11 C 1.0294(5) 0.8794(11) 0.3667(7) 0.035(4) Uani 1.000000 1 . . .
C19 C 0.9415(5) 0.5355(11) 0.3863(7) 0.036(4) Uani 1.000000 1 . . .
C36 C 1.1470(5) 1.1511(11) 0.4195(9) 0.078(5) Uiso 1.000000 1 . . .
H36 H 1.1627(5) 1.2101(11) 0.4262(9) 0.094(6) Uiso 1.000000 1 R . .
C049 C 0.8530(4) 0.9125(9) 0.3342(7) 0.051(4) Uiso 1.000000 1 . . .
H049 H 0.8717(4) 0.9391(9) 0.3770(7) 0.061(5) Uiso 1.000000 1 R . .
C26 C 0.9627(4) 0.2895(9) 0.4434(8) 0.056(4) Uiso 1.000000 1 . . .
H26 H 0.9894(4) 0.3067(9) 0.4803(8) 0.068(5) Uiso 1.000000 1 R . .
C39 C 0.8684(4) 0.8293(8) 0.3059(7) 0.036(3) Uiso 1.000000 1 . . .
C64 C 0.3711(4) 0.9832(8) 0.6548(6) 0.030(3) Uiso 1.000000 1 . . .
C6 C 1.1255(5) 0.6403(10) 0.3910(6) 0.032(3) Uani 1.000000 1 . . .
C77 C 0.3872(4) 1.4181(8) 0.6304(7) 0.039(4) Uiso 1.000000 1 . . .
C5 C 1.1203(4) 0.5417(10) 0.3709(7) 0.035(4) Uani 1.000000 1 . . .
C32 C 1.1597(4) 0.4905(8) 0.3533(7) 0.031(3) Uiso 1.000000 1 . . .
C65 C 0.5374(4) 0.7901(8) 0.6009(7) 0.038(4) Uiso 1.000000 1 . . .
C49 C 0.5156(4) 0.8876(8) 0.6068(6) 0.033(3) Uiso 1.000000 1 . . .
C1 C 1.0108(5) 0.4435(11) 0.3755(7) 0.038(4) Uani 1.000000 1 . . .
C57 C 0.4885(4) 1.4071(8) 0.6566(6) 0.040(4) Uiso 1.000000 1 . . .
H57 H 0.4792(4) 1.4694(8) 0.6642(6) 0.047(4) Uiso 1.000000 1 R . .
C12 C 1.0021(6) 0.9636(10) 0.3423(7) 0.048(4) Uani 1.000000 1 . . .
H12 H 1.0136(6) 1.0255(10) 0.3395(7) 0.057(5) Uiso 1.000000 1 R . .
C34 C 1.0965(4) 1.0370(9) 0.4516(8) 0.062(4) Uiso 1.000000 1 . . .
H34 H 1.0772(4) 1.0194(9) 0.4788(8) 0.074(5) Uiso 1.000000 1 R . .
C58 C 0.4587(4) 1.3218(8) 0.6396(6) 0.033(3) Uiso 1.000000 1 . . .
C35 C 1.1195(5) 1.1306(11) 0.4623(9) 0.082(5) Uiso 1.000000 1 . . .
H35 H 1.1158(5) 1.1743(11) 0.4962(9) 0.099(6) Uiso 1.000000 1 R . .
C48 C 0.4748(4) 0.8866(8) 0.6269(6) 0.030(3) Uiso 1.000000 1 . . .
C066 C 0.7954(5) 0.8343(9) 0.2080(8) 0.060(4) Uiso 1.000000 1 . . .
H066 H 0.7755(5) 0.8074(9) 0.1663(8) 0.072(5) Uiso 1.000000 1 R . .
C78 C 0.3857(4) 1.4860(9) 0.5764(7) 0.055(4) Uiso 1.000000 1 . . .
H78 H 0.3999(4) 1.4728(9) 0.5414(7) 0.066(5) Uiso 1.000000 1 R . .
C79 C 0.3622(5) 1.5745(10) 0.5764(9) 0.076(5) Uiso 1.000000 1 . . .
H79 H 0.3602(5) 1.6201(10) 0.5409(9) 0.091(6) Uiso 1.000000 1 R . .
C88 C 0.3355(4) 0.9318(8) 0.6801(7) 0.035(3) Uiso 1.000000 1 . . .
C69 C 0.5991(5) 0.6744(11) 0.6489(9) 0.086(5) Uiso 1.000000 1 . . .
H69 H 0.6273(5) 0.6558(11) 0.6821(9) 0.103(6) Uiso 1.000000 1 R . .
C81 C 0.3434(4) 1.5266(9) 0.6817(8) 0.062(4) Uiso 1.000000 1 . . .
H81 H 0.3288(4) 1.5405(9) 0.7161(8) 0.074(5) Uiso 1.000000 1 R . .
C4 C 1.0794(5) 0.4882(10) 0.3646(7) 0.037(4) Uani 1.000000 1 . . .
C85 C 0.2741(4) 0.8112(9) 0.6674(8) 0.058(4) Uiso 1.000000 1 . . .
H85 H 0.2537(4) 0.7651(9) 0.6401(8) 0.070(5) Uiso 1.000000 1 R . .
C10 C 1.0793(5) 0.8762(8) 0.3912(6) 0.034(4) Uani 1.000000 1 . . .
C40 C 0.8388(4) 0.7918(9) 0.2433(7) 0.046(4) Uiso 1.000000 1 . . .
H40 H 0.8479(4) 0.7366(9) 0.2240(7) 0.055(5) Uiso 1.000000 1 R . .
C67 C 0.5347(5) 0.6345(11) 0.5452(9) 0.081(5) Uiso 1.000000 1 . . .
H67 H 0.5202(5) 0.5903(11) 0.5096(9) 0.097(6) Uiso 1.000000 1 R . .
C31 C 1.1695(4) 0.5154(9) 0.2910(7) 0.045(4) Uiso 1.000000 1 . . .
H31 H 1.1522(4) 0.5643(9) 0.2623(7) 0.054(5) Uiso 1.000000 1 R . .
C70 C 0.5792(5) 0.7670(10) 0.6532(8) 0.064(4) Uiso 1.000000 1 . . .
H70 H 0.5936(5) 0.8103(10) 0.6895(8) 0.077(5) Uiso 1.000000 1 R . .
C30 C 1.2039(5) 0.4703(10) 0.2707(8) 0.067(4) Uiso 1.000000 1 . . .
H30 H 1.2098(5) 0.4886(10) 0.2287(8) 0.080(5) Uiso 1.000000 1 R . .
C60 C 0.3825(4) 1.2350(9) 0.6233(6) 0.035(3) Uiso 1.000000 1 . . .
C13 C 0.9571(6) 0.9382(10) 0.3244(7) 0.048(4) Uani 1.000000 1 . . .
H13 H 0.9312(6) 0.9782(10) 0.3053(7) 0.058(5) Uiso 1.000000 1 R . .
C082 C 0.7832(5) 0.9165(10) 0.2368(8) 0.065(4) Uiso 1.000000 1 . . .
H082 H 0.7551(5) 0.9475(10) 0.2129(8) 0.078(5) Uiso 1.000000 1 R . .
C83 C 0.3329(4) 0.9499(8) 0.7485(7) 0.043(4) Uiso 1.000000 1 . . .
H83 H 0.3523(4) 0.9968(8) 0.7765(7) 0.052(4) Uiso 1.000000 1 R . .
C80 C 0.3426(5) 1.5920(10) 0.6287(8) 0.063(4) Uiso 1.000000 1 . . .
H80 H 0.3278(5) 1.6512(10) 0.6289(8) 0.076(5) Uiso 1.000000 1 R . .
C56 C 0.5324(4) 1.3782(8) 0.6591(6) 0.044(4) Uiso 1.000000 1 . . .
H56 H 0.5591(4) 1.4170(8) 0.6691(6) 0.052(4) Uiso 1.000000 1 R . .
C87 C 0.3059(4) 0.8596(9) 0.6390(8) 0.055(4) Uiso 1.000000 1 . . .
H87 H 0.3074(4) 0.8441(9) 0.5937(8) 0.066(5) Uiso 1.000000 1 R . .
C38 C 1.1302(4) 1.0024(9) 0.3586(8) 0.059(4) Uiso 1.000000 1 . . .
H38 H 1.1334(4) 0.9616(9) 0.3227(8) 0.071(5) Uiso 1.000000 1 R . .
C72 C 0.6512(4) 1.2340(9) 0.7076(7) 0.048(4) Uiso 1.000000 1 . . .
H72 H 0.6458(4) 1.1824(9) 0.7345(7) 0.057(5) Uiso 1.000000 1 R . .
C71 C 0.6147(4) 1.2687(8) 0.6492(7) 0.040(4) Uiso 1.000000 1 . . .
C090 C 0.8106(4) 0.9543(10) 0.2990(8) 0.060(4) Uiso 1.000000 1 . . .
H090 H 0.8007(4) 1.0089(10) 0.3180(8) 0.072(5) Uiso 1.000000 1 R . .
C28 C 1.2210(5) 0.3715(10) 0.3743(8) 0.065(4) Uiso 1.000000 1 . . .
H28 H 1.2389(5) 0.3227(10) 0.4023(8) 0.077(5) Uiso 1.000000 1 R . .
C54 C 0.5674(4) 1.2214(8) 0.6328(7) 0.037(4) Uiso 1.000000 1 . . .
C86 C 0.2731(5) 0.8317(10) 0.7340(8) 0.067(4) Uiso 1.000000 1 . . .
H86 H 0.2520(5) 0.7985(10) 0.7519(8) 0.081(5) Uiso 1.000000 1 R . .
C55 C 0.5298(4) 1.2752(8) 0.6432(6) 0.033(3) Uiso 1.000000 1 . . .
C33 C 1.1032(4) 0.9743(9) 0.4016(7) 0.046(4) Uiso 1.000000 1 . . .
C29 C 1.2297(5) 0.3978(10) 0.3120(8) 0.068(5) Uiso 1.000000 1 . . .
H29 H 1.2530(5) 0.3664(10) 0.2980(8) 0.082(5) Uiso 1.000000 1 R . .
C76 C 0.6241(4) 1.3468(9) 0.6111(7) 0.054(4) Uiso 1.000000 1 . . .
H76 H 0.6003(4) 1.3716(9) 0.5727(7) 0.065(5) Uiso 1.000000 1 R . .
C14 C 0.9559(6) 0.8349(11) 0.3406(7) 0.042(4) Uani 1.000000 1 . . .
C15 C 0.9149(5) 0.7819(11) 0.3379(6) 0.036(4) Uani 1.000000 1 . . .
C59 C 0.4098(4) 1.3198(8) 0.6289(6) 0.030(3) Uiso 1.000000 1 . . .
C27 C 1.1860(4) 0.4167(9) 0.3962(7) 0.054(4) Uiso 1.000000 1 . . .
H27 H 1.1803(4) 0.3984(9) 0.4383(7) 0.065(5) Uiso 1.000000 1 R . .
C23 C 0.8847(5) 0.2325(11) 0.3332(9) 0.081(5) Uiso 1.000000 1 . . .
H23 H 0.8587(5) 0.2130(11) 0.2960(9) 0.097(6) Uiso 1.000000 1 R . .
C22 C 0.9065(4) 0.3245(9) 0.3315(8) 0.061(4) Uiso 1.000000 1 . . .
H22 H 0.8950(4) 0.3648(9) 0.2922(8) 0.074(5) Uiso 1.000000 1 R . .
C84 C 0.3019(5) 0.8992(9) 0.7761(8) 0.066(4) Uiso 1.000000 1 . . .
H84 H 0.3009(5) 0.9111(9) 0.8222(8) 0.080(5) Uiso 1.000000 1 R . .
C82 C 0.3666(4) 1.4391(9) 0.6826(7) 0.048(4) Uiso 1.000000 1 . . .
H82 H 0.3682(4) 1.3945(9) 0.7187(7) 0.058(5) Uiso 1.000000 1 R . .
C24 C 0.9032(6) 0.1749(12) 0.3904(9) 0.090(5) Uiso 1.000000 1 . . .
H24 H 0.8889(6) 0.1157(12) 0.3926(9) 0.108(6) Uiso 1.000000 1 R . .
C75 C 0.6687(5) 1.3882(9) 0.6298(8) 0.062(4) Uiso 1.000000 1 . . .
H75 H 0.6748(5) 1.4402(9) 0.6039(8) 0.074(5) Uiso 1.000000 1 R . .
C37 C 1.1527(5) 1.0936(11) 0.3700(9) 0.082(5) Uiso 1.000000 1 . . .
H37 H 1.1716(5) 1.1126(11) 0.3424(9) 0.099(6) Uiso 1.000000 1 R . .
loop_
_atom_site_aniso_label
_atom_site_aniso_U_11
_atom_site_aniso_U_22
_atom_site_aniso_U_33
_atom_site_aniso_U_12
_atom_site_aniso_U_13
_atom_site_aniso_U_23
Br01 0.0711(11) 0.0539(10) 0.0597(12) 0.0107(8) 0.0335(9) -0.0087(9)
Br02 0.0632(11) 0.0647(11) 0.0807(14) -0.0063(8) 0.0473(9) -0.0068(10)
Br2 0.0507(10) 0.0557(10) 0.0772(13) -0.0042(8) 0.0339(9) -0.0087(9)
Br4 0.0370(10) 0.0652(11) 0.0877(14) 0.0008(8) -0.0016(9) -0.0010(10)
Br1 0.0672(11) 0.0588(10) 0.0694(13) -0.0120(8) 0.0355(9) 0.0086(9)
Br06 0.0310(9) 0.0534(10) 0.1221(17) -0.0043(7) 0.0085(9) 0.0013(10)
Br07 0.0412(9) 0.0523(10) 0.0969(15) 0.0114(8) 0.0006(9) 0.0094(9)
Br3 0.0540(11) 0.0565(10) 0.0929(15) -0.0158(8) -0.0149(9) -0.0128(10)
VO1 0.0133(11) 0.0068(11) 0.0155(14) -0.0044(9) 0.0010(9) -0.0005(9)
VO2 0.0097(11) 0.0096(11) 0.0136(13) 0.0009(8) 0.0017(9) -0.0001(9)
N4 0.023(7) 0.025(7) 0.055(9) -0.010(7) -0.001(6) -0.003(6)
C17 0.027(9) 0.040(10) 0.026(10) -0.003(8) 0.010(7) -0.002(7)
N1 0.052(8) 0.007(7) 0.050(9) 0.001(7) 0.012(6) 0.010(6)
C18 0.042(11) 0.020(9) 0.038(10) 0.001(8) 0.008(7) 0.010(7)
N7 0.031(7) 0.029(6) 0.044(8) 0.004(5) 0.021(5) -0.007(5)
N8 0.033(6) 0.029(6) 0.043(8) 0.003(5) 0.015(5) -0.008(5)
C20 0.043(11) 0.032(11) 0.030(10) -0.025(9) 0.006(8) 0.003(7)
C3 0.048(12) 0.026(12) 0.077(12) -0.003(8) 0.027(9) 0.005(8)
C7 0.028(10) 0.028(9) 0.049(11) 0.003(9) 0.008(8) 0.012(8)
C8 0.026(11) 0.050(12) 0.046(11) -0.013(8) 0.002(8) 0.008(8)
N6 0.022(6) 0.025(6) 0.046(8) 0.001(5) 0.012(5) -0.005(5)
N2 0.038(8) 0.030(8) 0.040(8) 0.011(7) 0.008(6) 0.015(6)
C2 0.052(11) 0.008(9) 0.088(13) -0.006(9) 0.011(9) 0.002(8)
N3 0.023(8) 0.026(7) 0.051(9) -0.011(7) 0.002(6) -0.003(6)
N5 0.024(6) 0.020(6) 0.047(8) 0.000(5) 0.006(5) 0.001(5)
C16 0.048(11) 0.018(10) 0.039(10) 0.004(10) 0.003(8) 0.000(8)
C9 0.027(11) 0.018(10) 0.049(11) -0.002(9) -0.007(7) 0.005(8)
C11 0.026(11) 0.035(11) 0.038(10) -0.009(11) 0.001(7) -0.011(7)
C19 0.037(11) 0.029(12) 0.035(10) 0.014(9) 0.002(7) -0.006(8)
C6 0.038(11) 0.032(11) 0.022(10) -0.010(11) 0.003(7) 0.004(8)
C5 0.035(10) 0.026(10) 0.038(10) 0.009(9) 0.001(7) 0.010(7)
C1 0.047(11) 0.023(10) 0.042(11) -0.016(10) 0.011(8) 0.006(7)
C12 0.033(10) 0.028(10) 0.078(13) -0.010(9) 0.012(8) -0.004(8)
C4 0.018(10) 0.023(11) 0.062(12) -0.013(9) -0.002(8) -0.001(7)
C10 0.050(12) 0.013(9) 0.035(10) -0.021(8) 0.006(8) -0.008(7)
C13 0.053(13) 0.030(11) 0.062(12) 0.013(8) 0.019(9) 0.012(8)
C14 0.042(13) 0.051(13) 0.032(10) -0.007(11) 0.008(8) -0.003(8)
C15 0.038(11) 0.040(11) 0.029(10) 0.009(9) 0.007(7) -0.011(8)
loop_
_atom_type_symbol
_atom_type_scat_dispersion_real
_atom_type_scat_dispersion_imag
_atom_type_scat_Cromer_Mann_a1
_atom_type_scat_Cromer_Mann_a2
_atom_type_scat_Cromer_Mann_a3
_atom_type_scat_Cromer_Mann_a4
_atom_type_scat_Cromer_Mann_b1
_atom_type_scat_Cromer_Mann_b2
_atom_type_scat_Cromer_Mann_b3
_atom_type_scat_Cromer_Mann_b4
_atom_type_scat_Cromer_Mann_c
_atom_type_scat_source
_atom_type_scat_dispersion_source
C 0.00347 0.00161 2.31000 1.02000 1.58860 0.86500 20.84390 10.20750 0.56870
51.65120 0.215599998832
'International Tables Volume C Table 6.1.1.4 (pp. 500-502)'
'Henke, Gullikson and Davis, At. Data and Nucl. Data Tables, 1993, 54, 2'
H 0.00000 0.00000 0.49300 0.32291 0.14019 0.04081 10.51090 26.12570 3.14236
57.79970 0.0030380000826
'International Tables Volume C Table 6.1.1.4 (pp. 500-502)'
'Henke, Gullikson and Davis, At. Data and Nucl. Data Tables, 1993, 54, 2'
O 0.01158 0.00611 3.04850 2.28680 1.54630 0.86700 13.27710 5.70110 0.32390
32.90890 0.250800013542
'International Tables Volume C Table 6.1.1.4 (pp. 500-502)'
'Henke, Gullikson and Davis, At. Data and Nucl. Data Tables, 1993, 54, 2'
N 0.00653 0.00323 12.21260 3.13220 2.01250 1.16630 0.00570 9.89330 28.99750
0.58260 -11.5290002823
'International Tables Volume C Table 6.1.1.4 (pp. 500-502)'
'Henke, Gullikson and Davis, At. Data and Nucl. Data Tables, 1993, 54, 2'
Br -0.28346 2.55990 17.17890 5.23580 5.63770 3.98510 2.17230 16.57960 0.26090
41.43280 2.95569992065
'International Tables Volume C Table 6.1.1.4 (pp. 500-502)'
'Henke, Gullikson and Davis, At. Data and Nucl. Data Tables, 1993, 54, 2'
V 0.31844 0.54361 10.29710 7.35110 2.07030 2.05710 6.86570 0.43850 26.89380
102.47800 1.21990001202
'International Tables Volume C Table 6.1.1.4 (pp. 500-502)'
'Henke, Gullikson and Davis, At. Data and Nucl. Data Tables, 1993, 54, 2'
loop_
_geom_angle_atom_site_label_1
_geom_angle_atom_site_label_2
_geom_angle_atom_site_label_3
_geom_angle
_geom_angle_site_symmetry_1
_geom_angle_site_symmetry_3
N4 VO1 O011 106.5(3) . .
N1 VO1 O011 104.0(3) . .
N1 VO1 N4 149.6(4) . .
N2 VO1 O011 104.1(4) . .
N2 VO1 N4 86.2(5) . .
N2 VO1 N1 86.8(5) . .
N3 VO1 O011 103.2(4) . .
N3 VO1 N4 86.7(5) . .
N3 VO1 N1 86.0(5) . .
N3 VO1 N2 152.7(4) . .
N7 VO2 O012 103.1(4) . 2_656
N8 VO2 O012 102.8(3) . 2_656
N8 VO2 N7 86.4(3) . .
N6 VO2 O012 103.3(4) . 2_656
N6 VO2 N7 153.5(4) . .
N6 VO2 N8 87.2(3) . .
N5 VO2 O012 106.1(3) . 2_656
N5 VO2 N7 86.9(3) . .
N5 VO2 N8 151.1(4) . .
N5 VO2 N6 86.4(3) . .
VO1 O011 VO1 176.7(6) 2_755 .
VO2 O012 VO2 175.5(6) . 2_656
C48 C47 C46 107.1(11) . .
C61 C62 Br06 122.9(8) . .
C63 C62 Br06 128.4(8) . .
C63 C62 C61 108.4(10) . .
C9 N4 VO1 127.1(10) . .
C6 N4 VO1 125.6(9) . .
C6 N4 C9 107.1(9) . .
C18 C17 Br2 124.9(12) . .
C16 C17 Br2 127.9(12) . .
C16 C17 C18 107.1(11) . .
C16 N1 VO1 124.7(9) . .
C19 N1 VO1 127.1(10) . .
C19 N1 C16 108.0(10) . .
C17 C18 Br1 122.8(12) . .
C19 C18 Br1 128.9(12) . .
C19 C18 C17 107.8(11) . .
C58 N7 VO2 125.2(7) . .
C55 N7 VO2 120.3(7) . .
C55 N7 C58 106.2(9) . .
C50 N8 VO2 127.6(7) . .
C53 N8 VO2 124.7(7) . .
C53 N8 C50 107.3(9) . .
C19 C20 C21 122.1(13) . .
C1 C20 C21 111.5(13) . .
C1 C20 C19 126.4(12) . .
C72 C73 C74 119.7(14) . .
C24 C25 C26 119.2(16) . .
C52 C51 Br01 123.2(9) . .
C50 C51 Br01 129.2(9) . .
C50 C51 C52 107.4(10) . .
C62 C61 Br07 123.6(8) . .
C60 C61 Br07 129.8(9) . .
C60 C61 C62 106.3(10) . .
C4 C3 C2 108.3(12) . .
C8 C7 Br4 123.2(12) . .
C6 C7 Br4 129.2(12) . .
C6 C7 C8 107.4(10) . .
C7 C8 Br3 124.1(11) . .
C9 C8 Br3 128.1(12) . .
C9 C8 C7 107.4(11) . .
C45 N6 VO2 122.2(7) . .
C48 N6 VO2 123.9(7) . .
C48 N6 C45 107.1(9) . .
N5 C63 C62 108.7(9) . .
C64 C63 C62 127.3(10) . .
C64 C63 N5 123.9(10) . .
C1 N2 VO1 126.3(10) . .
C4 N2 VO1 120.5(10) . .
C4 N2 C1 106.3(10) . .
C51 C52 Br02 123.1(9) . .
C53 C52 Br02 129.2(9) . .
C53 C52 C51 107.4(10) . .
C45 C46 C47 108.4(12) . .
C1 C2 C3 107.3(11) . .
C67 C66 C65 120.4(13) . .
C67 C68 C69 124.7(17) . .
C11 N3 VO1 126.1(10) . .
C14 N3 VO1 120.5(9) . .
C14 N3 C11 105.1(10) . .
C63 N5 VO2 125.6(7) . .
C60 N5 VO2 127.8(7) . .
C60 N5 C63 106.1(8) . .
C46 C45 N6 108.5(10) . .
C64 C45 N6 125.8(10) . .
C64 C45 C46 125.5(11) . .
C51 C50 N8 109.0(10) . .
C49 C50 N8 123.7(11) . .
C49 C50 C51 127.2(11) . .
C75 C74 C73 122.2(14) . .
N1 C16 C17 108.4(11) . .
C15 C16 C17 127.4(14) . .
C15 C16 N1 124.2(13) . .
C8 C9 N4 108.2(11) . .
C10 C9 N4 123.7(12) . .
C10 C9 C8 127.9(13) . .
C26 C21 C20 122.4(12) . .
C22 C21 C20 118.9(12) . .
C22 C21 C26 118.7(13) . .
C52 C53 N8 108.5(10) . .
C54 C53 N8 124.5(11) . .
C54 C53 C52 127.0(11) . .
C12 C11 N3 111.2(11) . .
C10 C11 N3 123.7(13) . .
C10 C11 C12 125.1(14) . .
C18 C19 N1 108.4(11) . .
C20 C19 N1 124.9(14) . .
C20 C19 C18 126.1(15) . .
C37 C36 C35 124.7(17) . .
C090 C049 C39 120.3(13) . .
C21 C26 C25 120.8(13) . .
C40 C39 C049 117.3(11) . .
C15 C39 C049 124.4(11) . .
C15 C39 C40 118.2(11) . .
C45 C64 C63 123.1(11) . .
C88 C64 C63 119.9(10) . .
C88 C64 C45 116.9(10) . .
C7 C6 N4 109.7(11) . .
C5 C6 N4 123.0(12) . .
C5 C6 C7 127.3(14) . .
C59 C77 C78 119.6(12) . .
C82 C77 C78 120.1(12) . .
C82 C77 C59 120.2(12) . .
C32 C5 C6 119.6(12) . .
C4 C5 C6 123.4(12) . .
C4 C5 C32 117.0(12) . .
C31 C32 C5 118.6(11) . .
C27 C32 C5 122.7(12) . .
C27 C32 C31 118.7(12) . .
C49 C65 C66 120.8(11) . .
C70 C65 C66 121.8(12) . .
C70 C65 C49 117.3(11) . .
C65 C49 C50 119.1(10) . .
C48 C49 C50 124.1(11) . .
C48 C49 C65 116.6(10) . .
N2 C1 C20 122.6(13) . .
C2 C1 C20 128.4(14) . .
C2 C1 N2 108.9(12) . .
C56 C57 C58 106.6(11) . .
C13 C12 C11 107.6(12) . .
C33 C34 C35 120.2(14) . .
C57 C58 N7 110.0(10) . .
C59 C58 N7 124.2(10) . .
C59 C58 C57 125.7(11) . .
C34 C35 C36 116.1(16) . .
N6 C48 C47 108.8(10) . .
C49 C48 C47 124.1(11) . .
C49 C48 N6 127.1(10) . .
C082 C066 C40 117.8(13) . .
C79 C78 C77 118.7(14) . .
C80 C79 C78 119.1(15) . .
C83 C88 C64 119.5(10) . .
C87 C88 C64 122.3(12) . .
C87 C88 C83 118.0(12) . .
C70 C69 C68 118.5(15) . .
C82 C81 C80 118.4(15) . .
N2 C4 C3 109.1(11) . .
C5 C4 C3 124.9(14) . .
C5 C4 N2 125.7(13) . .
C86 C85 C87 120.1(14) . .
C11 C10 C9 124.8(11) . .
C33 C10 C9 120.3(12) . .
C33 C10 C11 114.9(12) . .
C066 C40 C39 122.1(12) . .
C68 C67 C66 117.2(15) . .
C30 C31 C32 121.8(13) . .
C69 C70 C65 117.3(13) . .
C29 C30 C31 119.9(15) . .
N5 C60 C61 110.3(10) . .
C59 C60 C61 127.0(11) . .
C59 C60 N5 122.6(10) . .
C14 C13 C12 106.8(11) . .
C090 C082 C066 122.0(14) . .
C84 C83 C88 121.6(12) . .
C81 C80 C79 123.2(15) . .
C55 C56 C57 107.1(11) . .
C85 C87 C88 119.3(14) . .
C37 C38 C33 119.3(15) . .
C71 C72 C73 119.8(13) . .
C54 C71 C72 118.1(11) . .
C76 C71 C72 118.3(11) . .
C76 C71 C54 123.6(11) . .
C082 C090 C049 120.5(14) . .
C27 C28 C29 121.2(14) . .
C71 C54 C53 118.0(10) . .
C55 C54 C53 123.4(11) . .
C55 C54 C71 118.5(10) . .
C84 C86 C85 122.5(15) . .
C56 C55 N7 110.0(10) . .
C54 C55 N7 125.8(10) . .
C54 C55 C56 123.7(11) . .
C10 C33 C34 119.8(13) . .
C38 C33 C34 119.9(13) . .
C38 C33 C10 120.3(13) . .
C28 C29 C30 119.9(15) . .
C75 C76 C71 120.7(12) . .
C13 C14 N3 109.2(12) . .
C15 C14 N3 125.6(13) . .
C15 C14 C13 125.1(15) . .
C39 C15 C16 119.1(13) . .
C14 C15 C16 122.7(12) . .
C14 C15 C39 118.2(13) . .
C58 C59 C77 115.1(10) . .
C60 C59 C77 119.6(10) . .
C60 C59 C58 125.0(10) . .
C28 C27 C32 118.4(14) . .
C24 C23 C22 117.9(15) . .
C23 C22 C21 120.5(14) . .
C86 C84 C83 118.5(15) . .
C81 C82 C77 120.4(13) . .
C23 C24 C25 122.8(17) . .
C76 C75 C74 119.3(14) . .
C38 C37 C36 119.7(17) . .
loop_
_geom_bond_atom_site_label_1
_geom_bond_atom_site_label_2
_geom_bond_distance
_geom_bond_site_symmetry_2
Br01 C51 1.876(11) .
Br02 C52 1.879(12) .
Br2 C17 1.875(12) .
Br4 C7 1.879(12) .
Br1 C18 1.881(12) .
Br06 C62 1.878(11) .
Br07 C61 1.867(11) .
Br3 C8 1.888(12) .
VO1 O011 1.771(2) .
VO1 N4 2.125(9) .
VO1 N1 2.113(10) .
VO1 N2 2.056(9) .
VO1 N3 2.037(9) .
VO2 O012 1.7686(19) 2_656
VO2 N7 2.051(9) .
VO2 N8 2.106(9) .
VO2 N6 2.056(8) .
VO2 N5 2.117(8) .
C47 C46 1.328(15) .
C47 C48 1.461(15) .
C62 C61 1.354(13) .
C62 C63 1.436(14) .
N4 C9 1.373(13) .
N4 C6 1.368(14) .
C17 C18 1.331(14) .
C17 C16 1.466(16) .
N1 C16 1.373(14) .
N1 C19 1.358(15) .
C18 C19 1.465(17) .
N7 C58 1.382(13) .
N7 C55 1.368(13) .
N8 C50 1.382(13) .
N8 C53 1.380(13) .
C20 C21 1.502(16) .
C20 C19 1.371(16) .
C20 C1 1.421(17) .
C73 C74 1.352(17) .
C73 C72 1.395(15) .
C25 C26 1.393(17) .
C25 C24 1.356(18) .
C51 C52 1.358(13) .
C51 C50 1.442(15) .
C61 C60 1.427(14) .
C3 C2 1.340(16) .
C3 C4 1.417(15) .
C7 C8 1.351(15) .
C7 C6 1.415(15) .
C8 C9 1.442(15) .
N6 C45 1.379(13) .
N6 C48 1.375(13) .
C63 N5 1.381(13) .
C63 C64 1.408(14) .
N2 C1 1.386(14) .
N2 C4 1.377(14) .
C52 C53 1.453(15) .
C46 C45 1.449(14) .
C2 C1 1.429(16) .
C66 C65 1.372(15) .
C66 C67 1.398(17) .
C68 C69 1.357(18) .
C68 C67 1.354(18) .
N3 C11 1.372(14) .
N3 C14 1.377(14) .
N5 C60 1.383(13) .
C45 C64 1.393(14) .
C50 C49 1.413(14) .
C74 C75 1.352(16) .
C16 C15 1.403(16) .
C9 C10 1.395(15) .
C21 C26 1.387(16) .
C21 C22 1.375(16) .
C53 C54 1.385(15) .
C11 C12 1.418(16) .
C11 C10 1.422(16) .
C36 C35 1.372(19) .
C36 C37 1.308(18) .
C049 C39 1.415(15) .
C049 C090 1.370(15) .
C39 C40 1.380(15) .
C39 C15 1.489(15) .
C64 C88 1.483(15) .
C6 C5 1.413(16) .
C77 C78 1.407(16) .
C77 C59 1.521(15) .
C77 C82 1.380(16) .
C5 C32 1.500(16) .
C5 C4 1.402(15) .
C32 C31 1.387(16) .
C32 C27 1.402(15) .
C65 C49 1.516(15) .
C65 C70 1.390(15) .
C49 C48 1.390(15) .
C57 C58 1.453(14) .
C57 C56 1.356(14) .
C12 C13 1.328(15) .
C34 C35 1.450(17) .
C34 C33 1.370(16) .
C58 C59 1.409(14) .
C066 C40 1.399(15) .
C066 C082 1.369(16) .
C78 C79 1.409(16) .
C79 C80 1.349(18) .
C88 C83 1.394(15) .
C88 C87 1.413(15) .
C69 C70 1.424(17) .
C81 C80 1.373(17) .
C81 C82 1.391(15) .
C85 C87 1.407(16) .
C85 C86 1.348(17) .
C10 C33 1.516(15) .
C31 C30 1.359(16) .
C30 C29 1.370(16) .
C60 C59 1.413(14) .
C13 C14 1.465(16) .
C082 C090 1.352(16) .
C83 C84 1.394(16) .
C56 C55 1.456(14) .
C38 C33 1.387(17) .
C38 C37 1.415(17) .
C72 C71 1.405(15) .
C71 C54 1.500(15) .
C71 C76 1.389(15) .
C28 C29 1.374(17) .
C28 C27 1.393(16) .
C54 C55 1.411(15) .
C86 C84 1.365(16) .
C76 C75 1.392(15) .
C14 C15 1.413(16) .
C23 C22 1.433(17) .
C23 C24 1.351(18) .
