#------------------------------------------------------------------------------
#$Date: 2019-11-24 02:49:55 +0200 (Sun, 24 Nov 2019) $
#$Revision: 236337 $
#$URL: file:///home/coder/svn-repositories/cod/cif/7/23/65/7236594.cif $
#------------------------------------------------------------------------------
#
# This file is available in the Crystallography Open Database (COD),
# http://www.crystallography.net/
#
# All data on this site have been placed in the public domain by the
# contributors.
#
data_7236594
loop_
_publ_author_name
'Wu, Hao'
'Yang, Fan'
'Lv, Xiu-Liang'
'Wang, Bin'
'Zhang, Yong-Zheng'
'Zhao, Min-Jian'
'Li, Jian-Rong'
_publ_section_title
;
 A stable porphyrinic metal--organic framework pore-functionalized by
 high-density carboxylic groups for proton conduction
;
_journal_issue                   28
_journal_name_full               'Journal of Materials Chemistry A'
_journal_page_first              14525
_journal_paper_doi               10.1039/C7TA03917D
_journal_volume                  5
_journal_year                    2017
_chemical_formula_moiety         '0.11(C396 H216 Co9 N54 O36)'
_chemical_formula_sum            'C44 H24 Co N6 O4'
_chemical_formula_weight         759.62
_chemical_name_systematic        BUT-83
_space_group_crystal_system      trigonal
_space_group_IT_number           148
_space_group_name_Hall           '-R 3'
_space_group_name_H-M_alt        'R -3 :H'
_atom_sites_solution_hydrogens   geom
_atom_sites_solution_primary     dual
_audit_creation_date             2016-12-20
_audit_creation_method
;
Olex2 1.2
(compiled 2016.09.09 svn.r3337 for OlexSys, GUI svn.r5227)
;
_audit_update_record
;
2016-12-22 deposited with the CCDC.
2017-06-22 downloaded from the CCDC.
;
_cell_angle_alpha                90
_cell_angle_beta                 90
_cell_angle_gamma                120
_cell_formula_units_Z            9
_cell_length_a                   33.0267(5)
_cell_length_b                   33.0267(5)
_cell_length_c                   9.1815(3)
_cell_measurement_reflns_used    3429
_cell_measurement_temperature    100.00(10)
_cell_measurement_theta_max      73.7660
_cell_measurement_theta_min      4.6180
_cell_volume                     8673.1(3)
_computing_cell_refinement
;
CrysAlisPro, Agilent Technologies,
Version 1.171.37.35 (release 13-08-2014 CrysAlis171 .NET)
(compiled Aug 13 2014,18:06:01)
;
_computing_data_collection
;
CrysAlisPro, Agilent Technologies,
Version 1.171.37.35 (release 13-08-2014 CrysAlis171 .NET)
(compiled Aug 13 2014,18:06:01)
;
_computing_data_reduction
;
CrysAlisPro, Agilent Technologies,
Version 1.171.37.35 (release 13-08-2014 CrysAlis171 .NET)
(compiled Aug 13 2014,18:06:01)
;
_computing_molecular_graphics    'Olex2 (Dolomanov et al., 2009)'
_computing_publication_material  'Olex2 (Dolomanov et al., 2009)'
_computing_structure_refinement  'ShelXL (Sheldrick, 2015)'
_computing_structure_solution    'ShelXT (Sheldrick, 2015)'
_diffrn_ambient_environment      N~2~
_diffrn_ambient_temperature      100.00(10)
_diffrn_detector                 'CCD plate'
_diffrn_detector_area_resol_mean 10.3376
_diffrn_detector_type            AtlasS2
_diffrn_measured_fraction_theta_full 0.997
_diffrn_measured_fraction_theta_max 0.973
_diffrn_measurement_details
;
#__ type_ start__ end____ width___ exp.time_
  1 omega  -74.00   35.00   1.0000   10.0000
omega____ theta____ kappa____ phi______ frames
    -      -41.5605   77.0000   60.0000 109

#__ type_ start__ end____ width___ exp.time_
  2 omega   30.00   90.00   1.0000   30.0000
omega____ theta____ kappa____ phi______ frames
    -      105.8759  -30.0000  -60.0000 60

#__ type_ start__ end____ width___ exp.time_
  3 omega   94.00  178.00   1.0000   30.0000
omega____ theta____ kappa____ phi______ frames
    -      105.8759  125.0000   60.0000 84

#__ type_ start__ end____ width___ exp.time_
  4 omega   30.00   90.00   1.0000   30.0000
omega____ theta____ kappa____ phi______ frames
    -      105.8759  -30.0000   30.0000 60

#__ type_ start__ end____ width___ exp.time_
  5 omega   99.00  178.00   1.0000   30.0000
omega____ theta____ kappa____ phi______ frames
    -      105.8759  116.0000   35.0000 79

#__ type_ start__ end____ width___ exp.time_
  6 omega   94.00  178.00   1.0000   30.0000
omega____ theta____ kappa____ phi______ frames
    -      105.8759  125.0000 -150.0000 84

#__ type_ start__ end____ width___ exp.time_
  7 omega -114.00  -75.00   1.0000   10.0000
omega____ theta____ kappa____ phi______ frames
    -      -41.5605  -57.0000  150.0000 39

#__ type_ start__ end____ width___ exp.time_
  8 omega -116.00  -17.00   1.0000   10.0000
omega____ theta____ kappa____ phi______ frames
    -      -41.5605  -37.0000   30.0000 99
;
_diffrn_measurement_device       'four-circle diffractometer'
_diffrn_measurement_device_type  'SuperNova, Dual, Cu at zero, AtlasS2'
_diffrn_measurement_method       '\w scans'
_diffrn_orient_matrix_UB_11      -0.0340341000
_diffrn_orient_matrix_UB_12      0.0186665000
_diffrn_orient_matrix_UB_13      0.0211989000
_diffrn_orient_matrix_UB_21      -0.0415994000
_diffrn_orient_matrix_UB_22      -0.0491584000
_diffrn_orient_matrix_UB_23      -0.0307424000
_diffrn_orient_matrix_UB_31      -0.0034218000
_diffrn_orient_matrix_UB_32      -0.0116609000
_diffrn_orient_matrix_UB_33      0.1635757000
_diffrn_radiation_monochromator  mirror
_diffrn_radiation_probe          x-ray
_diffrn_radiation_type           CuK\a
_diffrn_radiation_wavelength     1.54178
_diffrn_reflns_av_R_equivalents  0.0870
_diffrn_reflns_av_unetI/netI     0.0839
_diffrn_reflns_Laue_measured_fraction_full 0.997
_diffrn_reflns_Laue_measured_fraction_max 0.973
_diffrn_reflns_limit_h_max       29
_diffrn_reflns_limit_h_min       -39
_diffrn_reflns_limit_k_max       38
_diffrn_reflns_limit_k_min       -36
_diffrn_reflns_limit_l_max       11
_diffrn_reflns_limit_l_min       -5
_diffrn_reflns_number            10519
_diffrn_reflns_point_group_measured_fraction_full 0.997
_diffrn_reflns_point_group_measured_fraction_max 0.973
_diffrn_reflns_theta_full        67.679
_diffrn_reflns_theta_max         73.813
_diffrn_reflns_theta_min         4.638
_diffrn_source                   'sealed X-ray tube'
_diffrn_source_type              'SuperNova (Cu) X-ray Source'
_exptl_absorpt_coefficient_mu    3.904
_exptl_absorpt_correction_T_max  1.00000
_exptl_absorpt_correction_T_min  0.23827
_exptl_absorpt_correction_type   multi-scan
_exptl_absorpt_process_details
;
CrysAlisPro, Agilent Technologies,
Version 1.171.37.35 (release 13-08-2014 CrysAlis171 .NET)
(compiled Aug 13 2014,18:06:01)
Empirical absorption correction using spherical harmonics,
 implemented in SCALE3 ABSPACK scaling algorithm.
;
_exptl_crystal_colour            Purple
_exptl_crystal_density_diffrn    1.309
_exptl_crystal_F_000             3501
_refine_diff_density_max         1.827
_refine_diff_density_min         -0.658
_refine_diff_density_rms         0.093
_refine_ls_extinction_method     none
_refine_ls_goodness_of_fit_ref   1.064
_refine_ls_hydrogen_treatment    constr
_refine_ls_matrix_type           full
_refine_ls_number_parameters     250
_refine_ls_number_reflns         3792
_refine_ls_number_restraints     0
_refine_ls_restrained_S_all      1.064
_refine_ls_R_factor_all          0.1240
_refine_ls_R_factor_gt           0.0792
_refine_ls_shift/su_max          0.000
_refine_ls_shift/su_mean         0.000
_refine_ls_structure_factor_coef Fsqd
_refine_ls_weighting_details
'w=1/[\s^2^(Fo^2^)+(0.1428P)^2^+21.4878P] where P=(Fo^2^+2Fc^2^)/3'
_refine_ls_weighting_scheme      calc
_refine_ls_wR_factor_gt          0.2131
_refine_ls_wR_factor_ref         0.2607
_reflns_Friedel_coverage         0.000
_reflns_number_gt                2417
_reflns_number_total             3792
_reflns_threshold_expression     'I > 2\s(I)'
_cod_data_source_file            c7ta03917d2.cif
_cod_data_source_block           1
_cod_original_cell_volume        8673.1(4)
_cod_original_sg_symbol_H-M      'R -3'
_cod_database_code               7236594
_shelxl_version_number           2014-1
_chemical_oxdiff_formula         CHONCo
_shelx_space_group_comment
;
The symmetry employed for this shelxl refinement is uniquely defined
by the following loop, which should always be used as a source of
symmetry information in preference to the above space-group names.
They are only intended as comments.
;
_reflns_odcompleteness_completeness 99.77
_reflns_odcompleteness_iscentric 1
_reflns_odcompleteness_theta     66.97
_olex2_refinement_description
;
1. Fixed Uiso
 At 1.2 times of:
  All C(H) groups
2.a Aromatic/amide H refined with riding coordinates:
 C8(H8), C9(H9), C14(H14), C13(H13), C2(H2), C5(H5), C21(H21), C1(H1),
 C18(H18), C4(H4), C17(H17), C20(H20)
;
_shelx_res_file
;
TITL 1 in R-3
REM 1 in R-3
REM 108 parameters refined using 0 restraints
REM Highest difference peak 6.708, deepest hole -1.197, 1-sigma level 0.235
CELL 1.54178 33.0267 33.0267 9.1815 90 90 120
ZERR 9 0.0005 0.0005 0.0003 0 0 0
LATT 3
SYMM -Y,+X-Y,+Z
SYMM +Y-X,-X,+Z
SFAC C H Co N O
UNIT 396 216 9 54 36

L.S. 20
PLAN  20
TEMP -100
GRID
BOND
ABIN
fmap 2
acta
MERG 2
REM <olex2.extras>
REM <HklSrc "%.\\1.hkl">
REM </olex2.extras>

WGHT    0.142800   21.487799
FVAR       0.05121
CO1   3    0.333333    0.166667    0.166667    10.50000    0.02231    0.01893 =
         0.03192   -0.00121   -0.00326    0.01552
N3    4    0.534486    0.533657    0.689078    11.00000    0.02933    0.02826 =
         0.05625    0.00311    0.00124    0.01202
N2    4    0.498847    0.440766    0.574780    11.00000    0.02676    0.02607 =
         0.05492   -0.00674   -0.00298    0.01006
N1    4    0.377009    0.242637    0.257955    11.00000    0.04307    0.02576 =
         0.05923   -0.00584   -0.00383    0.01568
C10   1    0.515505    0.434447    0.702423    11.00000    0.03120    0.02679 =
         0.05035   -0.00044   -0.00330    0.01362
C7    1    0.474488    0.397198    0.510265    11.00000    0.03157    0.02288 =
         0.05036   -0.00311    0.00033    0.01013
C8    1    0.477113    0.363302    0.601432    11.00000    0.04235    0.02628 =
         0.06278    0.00143   -0.00256    0.01515
AFIX  43
H8    2    0.463462    0.330815    0.582032    11.00000   -1.20000
AFIX   0
C11   1    0.540711    0.469961    0.806780    11.00000    0.03281    0.02828 =
         0.05400   -0.00149    0.00140    0.01287
C9    1    0.502571    0.386095    0.719922    11.00000    0.03836    0.03051 =
         0.05753    0.00439   -0.00246    0.01429
AFIX  43
H9    2    0.510413    0.372844    0.799256    11.00000   -1.20000
AFIX   0
C3    1    0.423960    0.336733    0.332358    11.00000    0.04425    0.02401 =
         0.05588   -0.00335   -0.00438    0.01651
C12   1    0.549988    0.516005    0.797233    11.00000    0.03117    0.03264 =
         0.05242    0.00015   -0.00094    0.01173
C16   1    0.559254    0.456745    0.933203    11.00000    0.04028    0.03291 =
         0.05701   -0.00417   -0.00531    0.01475
C15   1    0.554777    0.580901    0.713627    11.00000    0.03007    0.02361 =
         0.05153   -0.00581   -0.00245    0.00930
C14   1    0.583539    0.593414    0.842862    11.00000    0.04245    0.02589 =
         0.06552   -0.00836   -0.00822    0.01123
AFIX  43
H14   2    0.601161    0.623705    0.884361    11.00000   -1.20000
AFIX   0
C6    1    0.449865    0.387683    0.378140    11.00000    0.03437    0.02460 =
         0.05194   -0.00298    0.00051    0.00985
C13   1    0.580387    0.553515    0.892866    11.00000    0.04571    0.03228 =
         0.06009   -0.00667   -0.01368    0.01463
AFIX  43
H13   2    0.595620    0.550682    0.976777    11.00000   -1.20000
AFIX   0
C2    1    0.441288    0.320291    0.225737    11.00000    0.04433    0.03184 =
         0.06518   -0.00454    0.00488    0.01122
AFIX  43
H2    2    0.469503    0.340889    0.176386    11.00000   -1.20000
AFIX   0
C5    1    0.360376    0.258946    0.360341    11.00000    0.05090    0.02442 =
         0.05865   -0.00517    0.00379    0.01088
AFIX  43
H5    2    0.331976    0.237720    0.407674    11.00000   -1.20000
AFIX   0
C21   1    0.544002    0.457246    1.073366    11.00000    0.05595    0.04079 =
         0.05935   -0.00245   -0.00167    0.02206
AFIX  43
H21   2    0.521634    0.466871    1.089119    11.00000   -1.20000
AFIX   0
C19   1    0.593918    0.430059    1.171503    11.00000    0.05826    0.04760 =
         0.08485    0.00777   -0.01453    0.02516
C1    1    0.416877    0.273246    0.191778    11.00000    0.04901    0.03052 =
         0.06752   -0.00995    0.00071    0.01827
AFIX  43
H1    2    0.428954    0.262068    0.117918    11.00000   -1.20000
AFIX   0
C18   1    0.609927    0.430324    1.031508    11.00000    0.06334    0.05890 =
         0.10107    0.00274   -0.01310    0.03918
AFIX  43
H18   2    0.632796    0.421309    1.016674    11.00000   -1.20000
AFIX   0
O2    5    0.597920    0.419174    1.427363    11.00000    0.19914    0.11529 =
         0.07972    0.00429   -0.02545    0.08719
C4    1    0.382590    0.305213    0.400382    11.00000    0.04841    0.03519 =
         0.05738   -0.00855    0.00387    0.01527
AFIX  43
H4    2    0.369667    0.315514    0.474204    11.00000   -1.20000
AFIX   0
C17   1    0.593289    0.443399    0.913858    11.00000    0.05437    0.05746 =
         0.07220    0.00059   -0.00350    0.03375
AFIX  43
H17   2    0.604815    0.443430    0.819035    11.00000   -1.20000
AFIX   0
C20   1    0.561143    0.443742    1.192161    11.00000    0.05760    0.04958 =
         0.06278    0.00233   -0.00824    0.01885
AFIX  43
H20   2    0.550123    0.444011    1.287530    11.00000   -1.20000
AFIX   0
O1    5    0.640727    0.402396    1.277918    11.00000    0.11260    0.20555 =
         0.19626    0.10491    0.00846    0.09984
C22   1    0.613202    0.417524    1.299081    11.00000    0.07540    0.08124 =
         0.14970    0.03652   -0.02613    0.03054
HKLF 4

REM  1 in R-3
REM R1 =  0.0792 for    2417 Fo > 4sig(Fo)  and  0.1240 for all    3792 data
REM    250 parameters refined using      0 restraints

END

WGHT      0.1429     21.4340

REM Highest difference peak  1.827,  deepest hole -0.658,  1-sigma level  0.093
Q1    1   0.4896  0.4700  0.6264  11.00000  0.05    0.57
Q2    1   0.5171  0.4978  0.6433  11.00000  0.05    0.46
Q3    1   0.4930  0.5150  0.6453  11.00000  0.05    0.40
Q4    1   0.3374  0.2135  0.1708  11.00000  0.05    0.38
Q5    1   0.6218  0.4219  1.5191  11.00000  0.05    0.36
Q6    1   0.6483  0.3719  1.3848  11.00000  0.05    0.34
Q7    1   0.5026  0.5062  0.8483  11.00000  0.05    0.34
Q8    1   0.5427  0.5314  0.5739  11.00000  0.05    0.34
Q9    1   0.2935  0.1370  0.0758  11.00000  0.05    0.33
Q10   1   0.4898  0.4551  0.4864  11.00000  0.05    0.31
Q11   1   0.3619  0.3232  0.3012  11.00000  0.05    0.30
Q12   1   0.5101  0.5496  0.7295  11.00000  0.05    0.30
Q13   1   0.5202  0.4782  0.5944  11.00000  0.05    0.29
Q14   1   0.3892  0.2475  0.3986  11.00000  0.05    0.28
Q15   1   0.2883  0.1313  0.1659  11.00000  0.05    0.28
Q16   1   0.3731  0.2088  0.3789  11.00000  0.05    0.27
Q17   1   0.4505  0.3346  0.4674  11.00000  0.05    0.26
Q18   1   0.6447  0.3554  1.3531  11.00000  0.05    0.26
Q19   1   0.5621  0.4005  1.3214  11.00000  0.05    0.25
Q20   1   0.5193  0.3773  0.9226  11.00000  0.05    0.25
;
_shelx_res_checksum              5376
_shelx_fab_checksum              55965
_shelx_fab_file
;
0 0 3 33.3819 0.0000
0 0 6 16.0697 0.0000
0 0 9 -8.1839 0.0000
0 1 -10 1.9019 0.0000
0 1 -7 -2.4037 0.0000
0 1 -4 31.2148 0.0000
0 1 -1 -111.9943 0.0000
0 1 2 -17.6910 0.0000
0 1 5 -53.1943 0.0000
0 1 8 4.2024 0.0000
0 2 -8 3.9610 0.0000
0 2 -5 -42.3644 0.0000
0 2 -2 -9.5915 0.0000
0 2 1 -81.1805 0.0000
0 2 4 23.3411 0.0000
0 2 7 -3.3255 0.0000
0 2 10 0.3755 0.0000
0 3 -9 -5.6709 0.0000
0 3 -6 4.7556 0.0000
0 3 -3 -14.3662 0.0000
0 3 0 210.0641 0.0000
0 3 3 -5.2907 0.0000
0 3 6 8.3271 0.0000
0 3 9 -5.0509 0.0000
0 4 -10 1.1062 0.0000
0 4 -7 -7.2807 0.0000
0 4 -4 36.0522 0.0000
0 4 -1 10.9763 0.0000
0 4 2 67.1041 0.0000
0 4 5 -16.7899 0.0000
0 4 8 7.4657 0.0000
0 5 -8 4.9309 0.0000
0 5 -5 -14.0526 0.0000
0 5 -2 14.4949 0.0000
0 5 1 -45.4792 0.0000
0 5 4 -7.8575 0.0000
0 5 7 -13.0335 0.0000
0 5 10 2.0741 0.0000
0 6 -9 -5.3092 0.0000
0 6 -6 -8.3785 0.0000
0 6 -3 -44.5384 0.0000
0 6 0 31.1185 0.0000
0 6 3 -6.5561 0.0000
0 6 6 6.7460 0.0000
0 6 9 -4.0844 0.0000
0 7 -10 3.0510 0.0000
0 7 -7 -4.3937 0.0000
0 7 -4 32.2369 0.0000
0 7 -1 85.5534 0.0000
0 7 2 78.5275 0.0000
0 7 5 0.5101 0.0000
0 7 8 1.9074 0.0000
0 7 11 -3.9582 0.0000
0 8 -8 -0.2652 0.0000
0 8 -5 -6.2000 0.0000
0 8 -2 14.7667 0.0000
0 8 1 -41.8560 0.0000
0 8 4 -13.6893 0.0000
0 8 7 -7.4715 0.0000
0 8 10 6.6850 0.0000
0 9 -9 -5.7802 0.0000
0 9 -6 1.5046 0.0000
0 9 -3 -20.0592 0.0000
0 9 0 18.9527 0.0000
0 9 3 11.7295 0.0000
0 9 6 11.5093 0.0000
0 9 9 -5.2558 0.0000
0 10 -10 2.0295 0.0000
0 10 -7 -10.0496 0.0000
0 10 -4 9.9263 0.0000
0 10 -1 31.1361 0.0000
0 10 2 26.5791 0.0000
0 10 5 -10.9397 0.0000
0 10 8 -1.5148 0.0000
0 11 -8 -1.5300 0.0000
0 11 -5 -2.7613 0.0000
0 11 -2 34.2009 0.0000
0 11 1 -5.6682 0.0000
0 11 4 10.5744 0.0000
0 11 7 -0.4534 0.0000
0 11 10 3.3688 0.0000
0 12 -9 -7.0499 0.0000
0 12 -6 10.0988 0.0000
0 12 -3 -0.6029 0.0000
0 12 0 28.5906 0.0000
0 12 3 0.5950 0.0000
0 12 6 5.7848 0.0000
0 12 9 -5.7818 0.0000
0 13 -10 3.4264 0.0000
0 13 -7 -10.4697 0.0000
0 13 -4 5.4048 0.0000
0 13 -1 -8.6856 0.0000
0 13 2 13.8453 0.0000
0 13 5 -5.8321 0.0000
0 13 8 5.7601 0.0000
0 14 -8 0.4056 0.0000
0 14 -5 0.0632 0.0000
0 14 -2 35.0124 0.0000
0 14 1 0.1062 0.0000
0 14 4 15.1402 0.0000
0 14 7 -4.5796 0.0000
0 14 10 0.9538 0.0000
0 15 -9 -10.2123 0.0000
0 15 -6 2.1461 0.0000
0 15 -3 -2.0932 0.0000
0 15 0 19.4271 0.0000
0 15 3 -12.5274 0.0000
0 15 6 1.0296 0.0000
0 15 9 -1.6815 0.0000
0 16 -7 -1.1382 0.0000
0 16 -4 15.1153 0.0000
0 16 -1 -3.6807 0.0000
0 16 2 23.0396 0.0000
0 16 5 1.3121 0.0000
0 16 8 3.3556 0.0000
0 17 -8 -5.0023 0.0000
0 17 -5 -8.5262 0.0000
0 17 -2 20.9338 0.0000
0 17 1 -8.0618 0.0000
0 17 4 9.0208 0.0000
0 17 7 -9.3941 0.0000
0 17 10 0.4605 0.0000
0 18 -9 -2.3555 0.0000
0 18 -6 8.7357 0.0000
0 18 -3 -1.4128 0.0000
0 18 0 17.4053 0.0000
0 18 3 -6.3476 0.0000
0 18 6 9.5977 0.0000
0 18 9 2.5625 0.0000
0 19 -7 -6.3238 0.0000
0 19 -4 12.5506 0.0000
0 19 -1 0.8344 0.0000
0 19 2 14.2163 0.0000
0 19 5 -5.3993 0.0000
0 19 8 -1.1457 0.0000
0 20 -8 -2.5935 0.0000
0 20 -5 -4.7881 0.0000
0 20 -2 10.0939 0.0000
0 20 1 -4.7348 0.0000
0 20 4 7.8435 0.0000
0 20 7 -4.3570 0.0000
0 21 -6 5.4690 0.0000
0 21 -3 -0.0816 0.0000
0 21 0 14.2518 0.0000
0 21 3 -1.4753 0.0000
0 21 6 7.0642 0.0000
0 21 9 -1.0205 0.0000
0 22 -7 -5.7366 0.0000
0 22 -4 9.9497 0.0000
0 22 -1 -3.4837 0.0000
0 22 2 10.7948 0.0000
0 22 5 -6.2560 0.0000
0 22 8 0.2401 0.0000
0 23 -8 -3.3770 0.0000
0 23 -5 -5.6888 0.0000
0 23 -2 9.9930 0.0000
0 23 1 -0.8425 0.0000
0 23 4 3.2932 0.0000
0 23 7 0.8276 0.0000
0 24 -6 4.4408 0.0000
0 24 -3 1.3604 0.0000
0 24 0 5.9657 0.0000
0 24 3 1.1272 0.0000
0 24 6 -1.6996 0.0000
0 25 -7 -2.7640 0.0000
0 25 -4 6.5645 0.0000
0 25 -1 0.1895 0.0000
0 25 2 7.2853 0.0000
0 25 5 -1.7273 0.0000
0 25 8 2.7949 0.0000
0 26 -5 -4.3547 0.0000
0 26 -2 8.0948 0.0000
0 26 1 2.4310 0.0000
0 26 4 7.9476 0.0000
0 26 7 -4.2256 0.0000
0 27 -6 3.5422 0.0000
0 27 -3 2.3974 0.0000
0 27 0 1.7729 0.0000
0 27 3 -2.4072 0.0000
0 27 6 -2.9330 0.0000
0 28 -4 4.0174 0.0000
0 28 -1 2.8128 0.0000
0 28 2 6.3370 0.0000
0 28 5 -0.6940 0.0000
0 29 -5 -3.9964 0.0000
0 29 -2 4.5193 0.0000
0 29 1 3.0472 0.0000
0 29 4 4.5291 0.0000
0 30 -6 1.2378 0.0000
0 30 -3 3.6977 0.0000
0 30 0 3.2629 0.0000
0 30 3 1.6150 0.0000
0 30 6 1.1746 0.0000
0 31 -4 3.9261 0.0000
0 31 -1 -6.9929 0.0000
0 31 2 -1.2324 0.0000
0 31 5 -1.6189 0.0000
0 32 -5 -1.6955 0.0000
0 32 -2 5.6943 0.0000
0 32 1 8.3892 0.0000
0 32 4 4.7006 0.0000
0 33 -3 1.4278 0.0000
0 33 3 -0.0893 0.0000
0 34 -1 -3.9159 0.0000
0 34 2 -5.2646 0.0000
0 35 1 5.2414 0.0000
1 1 -9 -5.1450 0.0000
1 1 -6 7.3062 0.0000
1 1 -3 26.1459 0.0000
1 1 3 19.7861 0.0000
1 1 6 8.8335 0.0000
1 1 9 -3.8466 0.0000
1 2 -10 -0.0627 0.0000
1 2 -7 -3.5196 0.0000
1 2 -4 30.6618 0.0000
1 2 -1 -30.5784 0.0000
1 2 2 27.5218 0.0000
1 2 5 -32.2024 0.0000
1 2 8 4.2569 0.0000
1 3 -8 7.6675 0.0000
1 3 -5 -26.5807 0.0000
1 3 -2 10.6025 0.0000
1 3 1 -76.7609 0.0000
1 3 4 8.2603 0.0000
1 3 7 -10.6577 0.0000
1 3 10 2.1414 0.0000
1 4 -9 -5.6939 0.0000
1 4 -6 -5.2227 0.0000
1 4 -3 -40.3084 0.0000
1 4 0 87.3628 0.0000
1 4 3 -15.9668 0.0000
1 4 6 8.0074 0.0000
1 4 9 -2.7203 0.0000
1 5 -10 -0.8896 0.0000
1 5 -7 -3.4284 0.0000
1 5 -4 37.2189 0.0000
1 5 -1 106.9524 0.0000
1 5 2 93.1753 0.0000
1 5 5 1.0342 0.0000
1 5 8 2.5631 0.0000
1 5 11 -2.2484 0.0000
1 6 -8 3.6760 0.0000
1 6 -5 -5.3927 0.0000
1 6 -2 3.1451 0.0000
1 6 1 -60.3963 0.0000
1 6 4 -20.0887 0.0000
1 6 7 -11.2548 0.0000
1 6 10 4.7401 0.0000
1 7 -9 -6.8396 0.0000
1 7 -6 -7.2659 0.0000
1 7 -3 -38.9172 0.0000
1 7 0 13.7876 0.0000
1 7 3 1.0667 0.0000
1 7 6 10.7706 0.0000
1 7 9 -6.7525 0.0000
1 8 -10 2.9098 0.0000
1 8 -7 -5.4229 0.0000
1 8 -4 21.8626 0.0000
1 8 -1 82.7389 0.0000
1 8 2 60.7734 0.0000
1 8 5 -3.2752 0.0000
1 8 8 -1.4496 0.0000
1 8 11 -4.0312 0.0000
1 9 -8 -3.0150 0.0000
1 9 -5 -0.7714 0.0000
1 9 -2 26.5258 0.0000
1 9 1 -21.9922 0.0000
1 9 4 -0.7220 0.0000
1 9 7 -1.7197 0.0000
1 9 10 4.1236 0.0000
1 10 -9 -5.6002 0.0000
1 10 -6 7.1788 0.0000
1 10 -3 -11.3719 0.0000
1 10 0 13.3629 0.0000
1 10 3 0.4672 0.0000
1 10 6 7.6015 0.0000
1 10 9 -5.4865 0.0000
1 11 -10 1.2478 0.0000
1 11 -7 -14.7316 0.0000
1 11 -4 0.5274 0.0000
1 11 -1 10.4374 0.0000
1 11 2 17.6229 0.0000
1 11 5 -8.3574 0.0000
1 11 8 1.6732 0.0000
1 12 -8 -0.7129 0.0000
1 12 -5 2.8426 0.0000
1 12 -2 43.2759 0.0000
1 12 1 6.7125 0.0000
1 12 4 18.9085 0.0000
1 12 7 -0.7020 0.0000
1 12 10 1.7364 0.0000
1 13 -9 -11.6475 0.0000
1 13 -6 3.4353 0.0000
1 13 -3 -4.1885 0.0000
1 13 0 17.9012 0.0000
1 13 3 -15.7032 0.0000
1 13 6 1.0258 0.0000
1 13 9 -4.5190 0.0000
1 14 -10 6.9164 0.0000
1 14 -7 -3.9506 0.0000
1 14 -4 8.7474 0.0000
1 14 -1 -8.5744 0.0000
1 14 2 19.7258 0.0000
1 14 5 3.5251 0.0000
1 14 8 6.6203 0.0000
1 15 -8 -5.1593 0.0000
1 15 -5 -6.1168 0.0000
1 15 -2 30.0135 0.0000
1 15 1 2.4004 0.0000
1 15 4 11.4381 0.0000
1 15 7 -4.4448 0.0000
1 15 10 0.9774 0.0000
1 16 -9 -7.9162 0.0000
1 16 -6 6.5263 0.0000
1 16 -3 -1.2579 0.0000
1 16 0 14.5930 0.0000
1 16 3 -15.3477 0.0000
1 16 6 4.3514 0.0000
1 16 9 0.1769 0.0000
1 17 -7 -3.7081 0.0000
1 17 -4 13.6199 0.0000
1 17 -1 -3.6192 0.0000
1 17 2 19.5326 0.0000
1 17 5 -2.8006 0.0000
1 17 8 2.8299 0.0000
1 18 -8 -3.0911 0.0000
1 18 -5 -8.4924 0.0000
1 18 -2 13.2725 0.0000
1 18 1 -3.1075 0.0000
1 18 4 9.6989 0.0000
1 18 7 -6.9840 0.0000
1 19 -9 -3.4473 0.0000
1 19 -6 7.7932 0.0000
1 19 -3 2.2698 0.0000
1 19 0 16.1050 0.0000
1 19 3 -5.5355 0.0000
1 19 6 6.2639 0.0000
1 19 9 1.8459 0.0000
1 20 -7 -6.2335 0.0000
1 20 -4 9.6335 0.0000
1 20 -1 -3.0792 0.0000
1 20 2 10.4590 0.0000
1 20 5 -7.5757 0.0000
1 20 8 0.8364 0.0000
1 21 -8 1.4994 0.0000
1 21 -5 -2.9300 0.0000
1 21 -2 10.4066 0.0000
1 21 1 0.8472 0.0000
1 21 4 7.7559 0.0000
1 21 7 -3.0546 0.0000
1 22 -6 2.9206 0.0000
1 22 -3 0.5601 0.0000
1 22 0 10.5172 0.0000
1 22 3 0.3527 0.0000
1 22 6 1.0706 0.0000
1 23 -7 -2.1765 0.0000
1 23 -4 7.9133 0.0000
1 23 -1 -2.5112 0.0000
1 23 2 8.9021 0.0000
1 23 5 -4.2343 0.0000
1 23 8 1.4349 0.0000
1 24 -8 -3.0160 0.0000
1 24 -5 -4.2460 0.0000
1 24 -2 7.8111 0.0000
1 24 1 2.5857 0.0000
1 24 4 7.6380 0.0000
1 24 7 -2.0048 0.0000
1 25 -6 3.5399 0.0000
1 25 -3 -0.5693 0.0000
1 25 0 4.9062 0.0000
1 25 3 -3.6090 0.0000
1 25 6 -1.7930 0.0000
1 26 -7 -2.8237 0.0000
1 26 -4 6.0037 0.0000
1 26 -1 0.8445 0.0000
1 26 2 7.5876 0.0000
1 26 5 -0.9488 0.0000
1 27 -5 -1.8100 0.0000
1 27 -2 2.4752 0.0000
1 27 1 1.8382 0.0000
1 27 4 7.6788 0.0000
1 27 7 -4.0832 0.0000
1 28 -6 1.2992 0.0000
1 28 -3 3.4780 0.0000
1 28 0 3.6178 0.0000
1 28 3 -0.4797 0.0000
1 28 6 3.4604 0.0000
1 29 -4 4.7079 0.0000
1 29 -1 -2.7263 0.0000
1 29 2 1.6423 0.0000
1 29 5 -6.4531 0.0000
1 30 -5 -2.6651 0.0000
1 30 -2 5.4925 0.0000
1 30 1 5.8623 0.0000
1 30 4 3.9120 0.0000
1 31 -3 3.6292 0.0000
1 31 0 4.3606 0.0000
1 31 3 3.2439 0.0000
1 32 -4 2.9253 0.0000
1 32 -1 -6.5683 0.0000
1 32 2 -7.0956 0.0000
1 33 1 11.4163 0.0000
1 34 0 1.1809 0.0000
2 1 -8 5.1990 0.0000
2 1 -5 -32.3683 0.0000
2 1 -2 -0.9831 0.0000
2 1 1 -61.7473 0.0000
2 1 4 24.0252 0.0000
2 1 7 -4.4841 0.0000
2 1 10 -0.3187 0.0000
2 2 -9 -3.9508 0.0000
2 2 -6 -0.5402 0.0000
2 2 -3 -17.8560 0.0000
2 2 0 153.5815 0.0000
2 2 3 -7.6072 0.0000
2 2 6 4.8253 0.0000
2 2 9 -2.6255 0.0000
2 3 -10 -1.6952 0.0000
2 3 -7 -6.6654 0.0000
2 3 -4 33.6395 0.0000
2 3 -1 53.4219 0.0000
2 3 2 69.0568 0.0000
2 3 5 -10.3592 0.0000
2 3 8 3.0146 0.0000
2 4 -8 7.1086 0.0000
2 4 -5 -8.3651 0.0000
2 4 -2 0.9256 0.0000
2 4 1 -51.6475 0.0000
2 4 4 -10.6259 0.0000
2 4 7 -10.0706 0.0000
2 4 10 1.6012 0.0000
2 5 -9 -5.7211 0.0000
2 5 -6 -12.8539 0.0000
2 5 -3 -41.1667 0.0000
2 5 0 8.8732 0.0000
2 5 3 -10.5901 0.0000
2 5 6 7.8151 0.0000
2 5 9 -3.2623 0.0000
2 6 -10 0.3638 0.0000
2 6 -7 -2.7122 0.0000
2 6 -4 29.8410 0.0000
2 6 -1 113.8027 0.0000
2 6 2 84.2257 0.0000
2 6 5 2.6117 0.0000
2 6 8 1.2896 0.0000
2 6 11 -3.5625 0.0000
2 7 -8 -1.6008 0.0000
2 7 -5 -0.4347 0.0000
2 7 -2 12.8243 0.0000
2 7 1 -36.9356 0.0000
2 7 4 -14.3132 0.0000
2 7 7 -5.4434 0.0000
2 7 10 5.3564 0.0000
2 8 -9 -2.8157 0.0000
2 8 -6 -1.2239 0.0000
2 8 -3 -21.6454 0.0000
2 8 0 -7.8983 0.0000
2 8 3 2.5883 0.0000
2 8 6 9.2164 0.0000
2 8 9 -5.1117 0.0000
2 9 -10 0.3042 0.0000
2 9 -7 -11.0311 0.0000
2 9 -4 5.1230 0.0000
2 9 -1 51.0615 0.0000
2 9 2 36.2994 0.0000
2 9 5 -6.6879 0.0000
2 9 8 -1.6747 0.0000
2 10 -8 -1.6430 0.0000
2 10 -5 6.9797 0.0000
2 10 -2 41.0713 0.0000
2 10 1 4.0008 0.0000
2 10 4 13.2189 0.0000
2 10 7 1.6478 0.0000
2 10 10 2.4997 0.0000
2 11 -9 -5.9400 0.0000
2 11 -6 5.8069 0.0000
2 11 -3 -2.8243 0.0000
2 11 0 5.0900 0.0000
2 11 3 -10.5701 0.0000
2 11 6 2.6505 0.0000
2 11 9 -4.8651 0.0000
2 12 -10 2.6817 0.0000
2 12 -7 -8.2574 0.0000
2 12 -4 1.5774 0.0000
2 12 -1 -4.2787 0.0000
2 12 2 14.4612 0.0000
2 12 5 -3.3266 0.0000
2 12 8 4.2976 0.0000
2 13 -8 -3.5801 0.0000
2 13 -5 1.8640 0.0000
2 13 -2 42.3838 0.0000
2 13 1 13.5541 0.0000
2 13 4 16.2602 0.0000
2 13 7 -0.8761 0.0000
2 13 10 0.5587 0.0000
2 14 -9 -9.8791 0.0000
2 14 -6 4.0311 0.0000
2 14 -3 0.1235 0.0000
2 14 0 7.6794 0.0000
2 14 3 -16.9467 0.0000
2 14 6 -2.7854 0.0000
2 14 9 -3.0518 0.0000
2 15 -7 0.4203 0.0000
2 15 -4 10.9080 0.0000
2 15 -1 -5.9165 0.0000
2 15 2 20.3348 0.0000
2 15 5 2.8074 0.0000
2 15 8 5.6896 0.0000
2 16 -8 -6.6794 0.0000
2 16 -5 -8.9574 0.0000
2 16 -2 22.4238 0.0000
2 16 1 1.9306 0.0000
2 16 4 11.8261 0.0000
2 16 7 -5.5582 0.0000
2 16 10 0.0328 0.0000
2 17 -9 -5.9800 0.0000
2 17 -6 9.8815 0.0000
2 17 -3 2.7900 0.0000
2 17 0 13.4486 0.0000
2 17 3 -8.4415 0.0000
2 17 6 3.8046 0.0000
2 17 9 2.8695 0.0000
2 18 -7 -5.3919 0.0000
2 18 -4 10.3573 0.0000
2 18 -1 -2.8618 0.0000
2 18 2 10.3535 0.0000
2 18 5 -3.0575 0.0000
2 18 8 -0.0308 0.0000
2 19 -8 -1.0669 0.0000
2 19 -5 -2.9577 0.0000
2 19 -2 6.6580 0.0000
2 19 1 2.7824 0.0000
2 19 4 9.9898 0.0000
2 19 7 -3.4476 0.0000
2 20 -9 -4.9126 0.0000
2 20 -6 1.5125 0.0000
2 20 -3 3.3862 0.0000
2 20 0 11.2040 0.0000
2 20 3 -0.4076 0.0000
2 20 6 3.0348 0.0000
2 20 9 -0.1160 0.0000
2 21 -7 -2.2269 0.0000
2 21 -4 9.0552 0.0000
2 21 -1 -3.8529 0.0000
2 21 2 5.6744 0.0000
2 21 5 -6.4352 0.0000
2 21 8 1.4618 0.0000
2 22 -8 -2.2898 0.0000
2 22 -5 -2.3397 0.0000
2 22 -2 6.2633 0.0000
2 22 1 3.6740 0.0000
2 22 4 7.0695 0.0000
2 22 7 1.9537 0.0000
2 23 -6 1.5269 0.0000
2 23 -3 4.9925 0.0000
2 23 0 5.1176 0.0000
2 23 3 1.9243 0.0000
2 23 6 -4.2328 0.0000
2 24 -7 -1.3278 0.0000
2 24 -4 5.5531 0.0000
2 24 -1 -0.0731 0.0000
2 24 2 5.6571 0.0000
2 24 5 -1.6786 0.0000
2 24 8 2.3963 0.0000
2 25 -5 -1.8469 0.0000
2 25 -2 4.5093 0.0000
2 25 1 1.9514 0.0000
2 25 4 8.7349 0.0000
2 25 7 -4.6507 0.0000
2 26 -6 0.8870 0.0000
2 26 -3 4.8000 0.0000
2 26 0 5.1374 0.0000
2 26 3 -2.4050 0.0000
2 26 6 1.6604 0.0000
2 27 -4 1.5056 0.0000
2 27 -1 2.9330 0.0000
2 27 2 2.7911 0.0000
2 27 5 -4.4066 0.0000
2 28 -5 -0.5073 0.0000
2 28 -2 2.4955 0.0000
2 28 1 1.5003 0.0000
2 28 4 5.7375 0.0000
2 29 -6 -0.3637 0.0000
2 29 -3 3.3772 0.0000
2 29 0 6.2922 0.0000
2 29 3 4.5262 0.0000
2 29 6 3.8858 0.0000
2 30 -4 0.8553 0.0000
2 30 -1 -3.3124 0.0000
2 30 2 -6.3233 0.0000
2 30 5 -4.8747 0.0000
2 31 -2 3.7967 0.0000
2 31 1 10.7562 0.0000
2 32 -3 1.2369 0.0000
2 32 0 2.9918 0.0000
2 32 3 0.5181 0.0000
2 33 -1 -2.3186 0.0000
2 33 2 -3.5197 0.0000
2 34 -2 -1.9565 0.0000
2 34 1 5.1345 0.0000
3 1 -10 0.4095 0.0000
3 1 -7 -9.5571 0.0000
3 1 -4 18.9995 0.0000
3 1 -1 -30.4549 0.0000
3 1 2 30.6821 0.0000
3 1 5 -23.7241 0.0000
3 1 8 4.8355 0.0000
3 2 -8 7.2129 0.0000
3 2 -5 -12.4274 0.0000
3 2 -2 26.5603 0.0000
3 2 1 -14.7574 0.0000
3 2 4 8.7590 0.0000
3 2 7 -5.8997 0.0000
3 2 10 0.3331 0.0000
3 3 -9 -5.6830 0.0000
3 3 -6 -4.8650 0.0000
3 3 -3 -39.3367 0.0000
3 3 0 49.6706 0.0000
3 3 3 -23.3227 0.0000
3 3 6 4.1594 0.0000
3 3 9 -2.9965 0.0000
3 4 -10 0.9328 0.0000
3 4 -7 -7.8421 0.0000
3 4 -4 28.7533 0.0000
3 4 -1 87.5228 0.0000
3 4 2 89.8859 0.0000
3 4 5 -2.1870 0.0000
3 4 8 2.4453 0.0000
3 5 -8 2.9340 0.0000
3 5 -5 -2.4595 0.0000
3 5 -2 9.5458 0.0000
3 5 1 -34.5825 0.0000
3 5 4 -15.5431 0.0000
3 5 7 -9.2506 0.0000
3 5 10 4.0471 0.0000
3 6 -9 -3.1222 0.0000
3 6 -6 -6.1886 0.0000
3 6 -3 -30.6486 0.0000
3 6 0 -7.7109 0.0000
3 6 3 0.1597 0.0000
3 6 6 11.0212 0.0000
3 6 9 -6.8402 0.0000
3 7 -10 0.5106 0.0000
3 7 -7 -9.5753 0.0000
3 7 -4 16.0480 0.0000
3 7 -1 76.6431 0.0000
3 7 2 56.9588 0.0000
3 7 5 -5.8560 0.0000
3 7 8 0.2322 0.0000
3 7 11 -3.0310 0.0000
3 8 -8 -2.3215 0.0000
3 8 -5 1.9999 0.0000
3 8 -2 27.4276 0.0000
3 8 1 -11.6656 0.0000
3 8 4 1.7853 0.0000
3 8 7 -1.2980 0.0000
3 8 10 3.5535 0.0000
3 9 -9 -3.3168 0.0000
3 9 -6 4.8678 0.0000
3 9 -3 -6.6862 0.0000
3 9 0 -1.0136 0.0000
3 9 3 -2.8021 0.0000
3 9 6 8.5478 0.0000
3 9 9 -4.9460 0.0000
3 10 -10 0.2013 0.0000
3 10 -7 -15.1929 0.0000
3 10 -4 -2.6422 0.0000
3 10 -1 8.3534 0.0000
3 10 2 17.0650 0.0000
3 10 5 -11.1461 0.0000
3 10 8 2.1702 0.0000
3 11 -8 -1.7604 0.0000
3 11 -5 5.5091 0.0000
3 11 -2 47.4777 0.0000
3 11 1 20.0297 0.0000
3 11 4 23.0688 0.0000
3 11 7 0.9996 0.0000
3 11 10 1.3691 0.0000
3 12 -9 -8.8158 0.0000
3 12 -6 3.5293 0.0000
3 12 -3 -1.0496 0.0000
3 12 0 3.6820 0.0000
3 12 3 -18.0416 0.0000
3 12 6 -0.2583 0.0000
3 12 9 -3.7779 0.0000
3 13 -7 -3.1152 0.0000
3 13 -4 8.3245 0.0000
3 13 -1 -12.2987 0.0000
3 13 2 18.3537 0.0000
3 13 5 0.5182 0.0000
3 13 8 7.5217 0.0000
3 14 -8 -6.8135 0.0000
3 14 -5 -6.9911 0.0000
3 14 -2 35.0234 0.0000
3 14 1 8.0136 0.0000
3 14 4 14.6150 0.0000
3 14 7 -5.4767 0.0000
3 14 10 1.4327 0.0000
3 15 -9 -6.7934 0.0000
3 15 -6 10.3505 0.0000
3 15 -3 0.6124 0.0000
3 15 0 8.9722 0.0000
3 15 3 -15.4216 0.0000
3 15 6 1.9591 0.0000
3 15 9 -0.9585 0.0000
3 16 -7 -3.6651 0.0000
3 16 -4 14.1327 0.0000
3 16 -1 -6.6051 0.0000
3 16 2 16.9003 0.0000
3 16 5 -1.5566 0.0000
3 16 8 1.2664 0.0000
3 17 -8 -2.0730 0.0000
3 17 -5 -9.7381 0.0000
3 17 -2 14.2753 0.0000
3 17 1 0.7634 0.0000
3 17 4 10.7873 0.0000
3 17 7 -4.0950 0.0000
3 18 -9 -4.4580 0.0000
3 18 -6 7.5775 0.0000
3 18 -3 4.2937 0.0000
3 18 0 15.2419 0.0000
3 18 3 -4.5620 0.0000
3 18 6 5.1740 0.0000
3 18 9 -0.0750 0.0000
3 19 -7 -2.7117 0.0000
3 19 -4 11.8959 0.0000
3 19 -1 -4.4656 0.0000
3 19 2 6.8375 0.0000
3 19 5 -7.8642 0.0000
3 19 8 0.4415 0.0000
3 20 -8 -0.8672 0.0000
3 20 -5 -4.5653 0.0000
3 20 -2 7.5913 0.0000
3 20 1 3.9325 0.0000
3 20 4 9.8896 0.0000
3 20 7 2.3450 0.0000
3 21 -6 1.6918 0.0000
3 21 -3 2.3669 0.0000
3 21 0 9.5023 0.0000
3 21 3 3.3203 0.0000
3 21 6 -3.2113 0.0000
3 22 -7 -0.5546 0.0000
3 22 -4 6.4463 0.0000
3 22 -1 -2.0819 0.0000
3 22 2 3.1004 0.0000
3 22 5 -5.5611 0.0000
3 22 8 3.9009 0.0000
3 23 -8 -3.8553 0.0000
3 23 -5 -3.2833 0.0000
3 23 -2 5.8145 0.0000
3 23 1 4.3249 0.0000
3 23 4 8.1782 0.0000
3 23 7 0.4630 0.0000
3 24 -6 2.6059 0.0000
3 24 -3 0.9443 0.0000
3 24 0 6.6179 0.0000
3 24 3 -1.0620 0.0000
3 24 6 -2.0204 0.0000
3 25 -7 -1.5553 0.0000
3 25 -4 4.7665 0.0000
3 25 -1 1.6721 0.0000
3 25 2 5.8933 0.0000
3 25 5 -2.5795 0.0000
3 26 -5 -1.1983 0.0000
3 26 -2 0.1201 0.0000
3 26 1 1.3439 0.0000
3 26 4 5.3832 0.0000
3 26 7 -3.5788 0.0000
3 27 -6 0.9697 0.0000
3 27 -3 2.7315 0.0000
3 27 0 7.4414 0.0000
3 27 3 4.1381 0.0000
3 27 6 3.4396 0.0000
3 28 -4 2.7100 0.0000
3 28 -1 1.0349 0.0000
3 28 2 -1.5969 0.0000
3 28 5 -6.7258 0.0000
3 29 -5 -0.6416 0.0000
3 29 -2 1.9478 0.0000
3 29 1 4.8573 0.0000
3 29 4 4.1304 0.0000
3 30 -3 1.2754 0.0000
3 30 0 3.8498 0.0000
3 30 3 5.4645 0.0000
3 31 -4 2.9174 0.0000
3 31 -1 -2.5149 0.0000
3 31 2 -4.6415 0.0000
3 32 -2 0.4323 0.0000
3 32 1 6.4800 0.0000
3 33 0 3.6369 0.0000
4 1 -9 -3.9248 0.0000
4 1 -6 3.6900 0.0000
4 1 -3 -18.4351 0.0000
4 1 0 85.2311 0.0000
4 1 3 -32.1749 0.0000
4 1 6 -1.5211 0.0000
4 1 9 -3.2028 0.0000
4 2 -10 0.7854 0.0000
4 2 -7 -11.3315 0.0000
4 2 -4 11.1773 0.0000
4 2 -1 24.8171 0.0000
4 2 2 52.8335 0.0000
4 2 5 -7.4118 0.0000
4 2 8 1.8381 0.0000
4 3 -8 7.5243 0.0000
4 3 -5 -5.5823 0.0000
4 3 -2 35.1266 0.0000
4 3 1 -14.7921 0.0000
4 3 4 4.9183 0.0000
4 3 7 -8.9409 0.0000
4 3 10 3.5426 0.0000
4 4 -9 -6.4341 0.0000
4 4 -6 -1.4470 0.0000
4 4 -3 -27.6302 0.0000
4 4 0 17.8007 0.0000
4 4 3 -16.6678 0.0000
4 4 6 10.1960 0.0000
4 4 9 -5.9430 0.0000
4 5 -10 0.8345 0.0000
4 5 -7 -7.4943 0.0000
4 5 -4 17.6615 0.0000
4 5 -1 77.1796 0.0000
4 5 2 61.2371 0.0000
4 5 5 -5.1427 0.0000
4 5 8 1.3432 0.0000
4 6 -8 -0.5847 0.0000
4 6 -5 -3.8559 0.0000
4 6 -2 18.1022 0.0000
4 6 1 -21.4335 0.0000
4 6 4 -4.1457 0.0000
4 6 7 -6.5013 0.0000
4 6 10 3.5968 0.0000
4 7 -9 -2.9529 0.0000
4 7 -6 6.1661 0.0000
4 7 -3 -8.4985 0.0000
4 7 0 12.3054 0.0000
4 7 3 2.7284 0.0000
4 7 6 13.9779 0.0000
4 7 9 -6.8394 0.0000
4 8 -10 0.7250 0.0000
4 8 -7 -15.4617 0.0000
4 8 -4 3.0446 0.0000
4 8 -1 30.1587 0.0000
4 8 2 23.4786 0.0000
4 8 5 -14.0232 0.0000
4 8 8 -0.2640 0.0000
4 9 -8 -0.6263 0.0000
4 9 -5 4.8306 0.0000
4 9 -2 39.8679 0.0000
4 9 1 10.0154 0.0000
4 9 4 20.1896 0.0000
4 9 7 -0.5283 0.0000
4 9 10 2.3617 0.0000
4 10 -9 -6.7431 0.0000
4 10 -6 5.6049 0.0000
4 10 -3 0.4241 0.0000
4 10 0 10.1495 0.0000
4 10 3 -14.5532 0.0000
4 10 6 5.8523 0.0000
4 10 9 -4.9576 0.0000
4 11 -10 3.1014 0.0000
4 11 -7 -10.0794 0.0000
4 11 -4 4.1102 0.0000
4 11 -1 -9.8665 0.0000
4 11 2 10.7378 0.0000
4 11 5 -6.4810 0.0000
4 11 8 4.8349 0.0000
4 12 -8 -4.7221 0.0000
4 12 -5 -3.6133 0.0000
4 12 -2 41.4347 0.0000
4 12 1 16.9510 0.0000
4 12 4 20.7618 0.0000
4 12 7 -3.3243 0.0000
4 12 10 2.0306 0.0000
4 13 -9 -8.7996 0.0000
4 13 -6 7.9088 0.0000
4 13 -3 -2.2375 0.0000
4 13 0 11.6451 0.0000
4 13 3 -19.7636 0.0000
4 13 6 4.0554 0.0000
4 13 9 -5.1487 0.0000
4 14 -7 -4.6983 0.0000
4 14 -4 13.9130 0.0000
4 14 -1 -10.3085 0.0000
4 14 2 20.1913 0.0000
4 14 5 -0.6031 0.0000
4 14 8 8.5186 0.0000
4 15 -8 -4.3432 0.0000
4 15 -5 -12.5368 0.0000
4 15 -2 21.8270 0.0000
4 15 1 1.7436 0.0000
4 15 4 12.0417 0.0000
4 15 7 -4.9139 0.0000
4 16 -9 -6.9565 0.0000
4 16 -6 12.8316 0.0000
4 16 -3 0.9709 0.0000
4 16 0 17.7638 0.0000
4 16 3 -11.4903 0.0000
4 16 6 5.4071 0.0000
4 16 9 -0.8478 0.0000
4 17 -7 -6.0619 0.0000
4 17 -4 13.8152 0.0000
4 17 -1 -10.1992 0.0000
4 17 2 12.2242 0.0000
4 17 5 -7.3386 0.0000
4 17 8 3.2754 0.0000
4 18 -8 0.0001 0.0000
4 18 -5 -7.7027 0.0000
4 18 -2 9.1037 0.0000
4 18 1 2.4033 0.0000
4 18 4 12.2036 0.0000
4 18 7 -3.1504 0.0000
4 19 -9 -3.4837 0.0000
4 19 -6 3.6940 0.0000
4 19 -3 1.4408 0.0000
4 19 0 14.5804 0.0000
4 19 3 -3.3629 0.0000
4 19 6 0.8924 0.0000
4 19 9 -0.7828 0.0000
4 20 -7 0.0360 0.0000
4 20 -4 11.0075 0.0000
4 20 -1 -5.7027 0.0000
4 20 2 5.6976 0.0000
4 20 5 -8.9716 0.0000
4 20 8 3.3192 0.0000
4 21 -8 -2.4256 0.0000
4 21 -5 -3.1587 0.0000
4 21 -2 8.7621 0.0000
4 21 1 4.2079 0.0000
4 21 4 12.2182 0.0000
4 21 7 -0.8504 0.0000
4 22 -6 1.9959 0.0000
4 22 -3 -1.3518 0.0000
4 22 0 9.0365 0.0000
4 22 3 -0.7798 0.0000
4 22 6 -2.1776 0.0000
4 23 -7 0.0068 0.0000
4 23 -4 8.0630 0.0000
4 23 -1 -1.9803 0.0000
4 23 2 7.7973 0.0000
4 23 5 -3.3183 0.0000
4 23 8 -0.4554 0.0000
4 24 -5 -3.5742 0.0000
4 24 -2 4.4075 0.0000
4 24 1 0.4885 0.0000
4 24 4 5.4847 0.0000
4 24 7 -3.2623 0.0000
4 25 -6 2.4423 0.0000
4 25 -3 0.0624 0.0000
4 25 0 9.1304 0.0000
4 25 3 0.1962 0.0000
4 25 6 6.5939 0.0000
4 26 -4 5.3479 0.0000
4 26 -1 0.5877 0.0000
4 26 2 3.7455 0.0000
4 26 5 -5.6196 0.0000
4 27 -5 -2.0519 0.0000
4 27 -2 1.4789 0.0000
4 27 1 -0.3683 0.0000
4 27 4 3.6510 0.0000
4 28 -6 1.0657 0.0000
4 28 -3 -0.0116 0.0000
4 28 0 6.9004 0.0000
4 28 3 5.0012 0.0000
4 29 -4 4.0737 0.0000
4 29 -1 0.5010 0.0000
4 29 2 -3.9190 0.0000
4 29 5 -3.9666 0.0000
4 30 -2 3.5604 0.0000
4 30 1 6.4331 0.0000
4 30 4 -0.5239 0.0000
4 31 -3 0.1124 0.0000
4 31 0 2.8385 0.0000
4 31 3 0.3894 0.0000
4 32 -1 -0.6196 0.0000
4 32 2 1.2261 0.0000
4 33 1 2.0872 0.0000
5 1 -11 -0.8544 0.0000
5 1 -8 4.6656 0.0000
5 1 -5 -0.5164 0.0000
5 1 -2 54.3694 0.0000
5 1 1 55.2722 0.0000
5 1 4 25.6322 0.0000
5 1 7 -3.9313 0.0000
5 1 10 -0.5464 0.0000
5 2 -9 -4.8635 0.0000
5 2 -6 1.6804 0.0000
5 2 -3 -13.2731 0.0000
5 2 0 27.5856 0.0000
5 2 3 -31.1498 0.0000
5 2 6 -0.7535 0.0000
5 2 9 -3.9076 0.0000
5 3 -10 3.3155 0.0000
5 3 -7 -9.1597 0.0000
5 3 -4 7.4135 0.0000
5 3 -1 32.3509 0.0000
5 3 2 50.9221 0.0000
5 3 5 -7.2422 0.0000
5 3 8 1.7669 0.0000
5 4 -8 -0.3609 0.0000
5 4 -5 -7.1005 0.0000
5 4 -2 16.7975 0.0000
5 4 1 -2.0089 0.0000
5 4 4 2.2259 0.0000
5 4 7 -8.0583 0.0000
5 4 10 2.3391 0.0000
5 5 -9 -2.3926 0.0000
5 5 -6 3.3768 0.0000
5 5 -3 -0.3392 0.0000
5 5 0 16.4810 0.0000
5 5 3 2.9528 0.0000
5 5 6 13.2493 0.0000
5 5 9 -5.4978 0.0000
5 6 -10 0.0928 0.0000
5 6 -7 -10.2577 0.0000
5 6 -4 7.3322 0.0000
5 6 -1 40.3543 0.0000
5 6 2 28.9259 0.0000
5 6 5 -12.8669 0.0000
5 6 8 1.0028 0.0000
5 7 -8 -1.9348 0.0000
5 7 -5 -3.3181 0.0000
5 7 -2 17.1631 0.0000
5 7 1 -6.6362 0.0000
5 7 4 9.5468 0.0000
5 7 7 -3.2974 0.0000
5 7 10 2.1582 0.0000
5 8 -9 -2.4863 0.0000
5 8 -6 6.1345 0.0000
5 8 -3 7.4170 0.0000
5 8 0 21.9578 0.0000
5 8 3 2.0841 0.0000
5 8 6 12.2752 0.0000
5 8 9 -4.2827 0.0000
5 9 -10 0.7359 0.0000
5 9 -7 -11.2257 0.0000
5 9 -4 1.5135 0.0000
5 9 -1 -0.5478 0.0000
5 9 2 5.7666 0.0000
5 9 5 -13.5446 0.0000
5 9 8 1.9152 0.0000
5 10 -8 -2.1166 0.0000
5 10 -5 1.4478 0.0000
5 10 -2 35.6133 0.0000
5 10 1 17.9113 0.0000
5 10 4 22.1615 0.0000
5 10 7 -0.5793 0.0000
5 10 10 1.2298 0.0000
5 11 -9 -5.9014 0.0000
5 11 -6 5.2344 0.0000
5 11 -3 3.4974 0.0000
5 11 0 11.9600 0.0000
5 11 3 -14.4849 0.0000
5 11 6 2.9688 0.0000
5 11 9 -4.3486 0.0000
5 12 -7 -3.4494 0.0000
5 12 -4 12.7084 0.0000
5 12 -1 -11.4791 0.0000
5 12 2 13.4954 0.0000
5 12 5 -4.2568 0.0000
5 12 8 9.5447 0.0000
5 13 -8 -4.6481 0.0000
5 13 -5 -7.6278 0.0000
5 13 -2 29.2341 0.0000
5 13 1 4.4939 0.0000
5 13 4 13.3125 0.0000
5 13 7 -8.7662 0.0000
5 13 10 0.4561 0.0000
5 14 -9 -7.1421 0.0000
5 14 -6 12.0089 0.0000
5 14 -3 0.0103 0.0000
5 14 0 15.5479 0.0000
5 14 3 -10.9190 0.0000
5 14 6 3.0148 0.0000
5 14 9 -2.0849 0.0000
5 15 -7 -5.9490 0.0000
5 15 -4 14.0987 0.0000
5 15 -1 -6.8685 0.0000
5 15 2 15.6773 0.0000
5 15 5 -1.3767 0.0000
5 15 8 4.7620 0.0000
5 16 -8 -1.2758 0.0000
5 16 -5 -7.8812 0.0000
5 16 -2 13.2169 0.0000
5 16 1 0.6408 0.0000
5 16 4 10.9184 0.0000
5 16 7 -5.9344 0.0000
5 17 -9 -5.9358 0.0000
5 17 -6 7.1509 0.0000
5 17 -3 2.7629 0.0000
5 17 0 18.0042 0.0000
5 17 3 -5.5946 0.0000
5 17 6 5.8007 0.0000
5 17 9 -1.6041 0.0000
5 18 -7 -1.5388 0.0000
5 18 -4 11.3969 0.0000
5 18 -1 -6.5542 0.0000
5 18 2 8.9140 0.0000
5 18 5 -7.1439 0.0000
5 18 8 2.1501 0.0000
5 19 -8 -2.9939 0.0000
5 19 -5 -3.1246 0.0000
5 19 -2 4.4819 0.0000
5 19 1 3.0736 0.0000
5 19 4 13.0863 0.0000
5 19 7 -0.0376 0.0000
5 20 -6 -0.7516 0.0000
5 20 -3 1.8153 0.0000
5 20 0 10.9658 0.0000
5 20 3 -1.7462 0.0000
5 20 6 -0.4936 0.0000
5 21 -7 2.0190 0.0000
5 21 -4 6.9952 0.0000
5 21 -1 -4.0321 0.0000
5 21 2 6.7589 0.0000
5 21 5 -7.6915 0.0000
5 21 8 4.5240 0.0000
5 22 -8 -4.4165 0.0000
5 22 -5 -1.2070 0.0000
5 22 -2 6.4519 0.0000
5 22 1 -0.1961 0.0000
5 22 4 9.3877 0.0000
5 22 7 -1.8237 0.0000
5 23 -6 0.4779 0.0000
5 23 -3 1.5753 0.0000
5 23 0 9.3648 0.0000
5 23 3 -0.4889 0.0000
5 23 6 3.5206 0.0000
5 24 -7 0.3284 0.0000
5 24 -4 4.0572 0.0000
5 24 -1 -1.6989 0.0000
5 24 2 7.7995 0.0000
5 24 5 -5.8475 0.0000
5 25 -5 -1.6575 0.0000
5 25 -2 4.9671 0.0000
5 25 1 -3.0674 0.0000
5 25 4 3.8294 0.0000
5 25 7 -3.3817 0.0000
5 26 -6 0.4409 0.0000
5 26 -3 0.9755 0.0000
5 26 0 10.4927 0.0000
5 26 3 2.2911 0.0000
5 26 6 5.9311 0.0000
5 27 -4 1.4145 0.0000
5 27 -1 2.0470 0.0000
5 27 2 0.2483 0.0000
5 27 5 -5.3355 0.0000
5 28 -5 -0.1583 0.0000
5 28 -2 3.9522 0.0000
5 28 1 2.0870 0.0000
5 28 4 4.4941 0.0000
5 29 -3 -3.1470 0.0000
5 29 0 4.3287 0.0000
5 29 3 -0.1329 0.0000
5 30 -4 2.9061 0.0000
5 30 -1 0.9841 0.0000
5 30 2 2.1462 0.0000
5 31 -2 1.6449 0.0000
5 31 1 2.3587 0.0000
5 32 0 3.4497 0.0000
6 1 -10 3.7778 0.0000
6 1 -7 -9.6139 0.0000
6 1 -4 -11.7535 0.0000
6 1 -1 -17.5884 0.0000
6 1 2 20.3363 0.0000
6 1 5 -5.7434 0.0000
6 1 8 1.5033 0.0000
6 2 -11 -1.4290 0.0000
6 2 -8 -1.1932 0.0000
6 2 -5 -2.0107 0.0000
6 2 -2 39.7341 0.0000
6 2 1 47.8881 0.0000
6 2 4 14.5185 0.0000
6 2 7 -4.4670 0.0000
6 2 10 2.0761 0.0000
6 3 -9 -3.4060 0.0000
6 3 -6 6.4401 0.0000
6 3 -3 3.5613 0.0000
6 3 0 26.7242 0.0000
6 3 3 -9.3823 0.0000
6 3 6 6.9168 0.0000
6 3 9 -6.1791 0.0000
6 4 -10 1.8585 0.0000
6 4 -7 -6.0492 0.0000
6 4 -4 6.3017 0.0000
6 4 -1 29.1784 0.0000
6 4 2 27.2345 0.0000
6 4 5 -12.7474 0.0000
6 4 8 1.4569 0.0000
6 5 -8 -4.1615 0.0000
6 5 -5 -9.4462 0.0000
6 5 -2 -0.2142 0.0000
6 5 1 -5.8579 0.0000
6 5 4 3.3719 0.0000
6 5 7 -6.5624 0.0000
6 5 10 -0.0511 0.0000
6 6 -9 -1.8278 0.0000
6 6 -6 6.3000 0.0000
6 6 -3 17.8999 0.0000
6 6 0 42.0242 0.0000
6 6 3 17.4376 0.0000
6 6 6 15.1867 0.0000
6 6 9 -5.7225 0.0000
6 7 -10 -0.5012 0.0000
6 7 -7 -9.5798 0.0000
6 7 -4 4.6175 0.0000
6 7 -1 9.9519 0.0000
6 7 2 1.4194 0.0000
6 7 5 -19.3917 0.0000
6 7 8 1.4119 0.0000
6 8 -8 -3.3463 0.0000
6 8 -5 -0.8400 0.0000
6 8 -2 17.3664 0.0000
6 8 1 6.9228 0.0000
6 8 4 19.6115 0.0000
6 8 7 -1.0089 0.0000
6 8 10 0.4171 0.0000
6 9 -9 -4.2396 0.0000
6 9 -6 0.5371 0.0000
6 9 -3 9.8888 0.0000
6 9 0 24.6853 0.0000
6 9 3 -2.5006 0.0000
6 9 6 5.4465 0.0000
6 9 9 -3.4312 0.0000
6 10 -10 0.3662 0.0000
6 10 -7 -4.8577 0.0000
6 10 -4 8.1669 0.0000
6 10 -1 -7.9143 0.0000
6 10 2 4.5164 0.0000
6 10 5 -7.0708 0.0000
6 10 8 6.7961 0.0000
6 11 -8 -6.1425 0.0000
6 11 -5 -4.9249 0.0000
6 11 -2 27.1965 0.0000
6 11 1 10.1951 0.0000
6 11 4 18.0873 0.0000
6 11 7 -6.8278 0.0000
6 11 10 0.3961 0.0000
6 12 -9 -4.4770 0.0000
6 12 -6 4.9485 0.0000
6 12 -3 -1.6496 0.0000
6 12 0 16.4127 0.0000
6 12 3 -10.3931 0.0000
6 12 6 5.4070 0.0000
6 12 9 -2.4616 0.0000
6 13 -7 -5.1914 0.0000
6 13 -4 15.5879 0.0000
6 13 -1 -6.0013 0.0000
6 13 2 15.8727 0.0000
6 13 5 0.6180 0.0000
6 13 8 8.2298 0.0000
6 14 -8 -2.1387 0.0000
6 14 -5 -7.4488 0.0000
6 14 -2 16.1193 0.0000
6 14 1 -3.5711 0.0000
6 14 4 5.2426 0.0000
6 14 7 -7.2552 0.0000
6 15 -9 -4.4486 0.0000
6 15 -6 8.8289 0.0000
6 15 -3 1.2442 0.0000
6 15 0 17.4999 0.0000
6 15 3 -5.3851 0.0000
6 15 6 5.0810 0.0000
6 15 9 -2.8049 0.0000
6 16 -7 -3.9788 0.0000
6 16 -4 11.7349 0.0000
6 16 -1 -6.5424 0.0000
6 16 2 11.5822 0.0000
6 16 5 -4.9918 0.0000
6 16 8 3.1580 0.0000
6 17 -8 -1.2573 0.0000
6 17 -5 -5.5301 0.0000
6 17 -2 7.2071 0.0000
6 17 1 0.4257 0.0000
6 17 4 8.0279 0.0000
6 17 7 -1.3290 0.0000
6 18 -9 -1.2159 0.0000
6 18 -6 2.5760 0.0000
6 18 -3 6.3593 0.0000
6 18 0 14.0512 0.0000
6 18 3 -1.6449 0.0000
6 18 6 0.0145 0.0000
6 19 -7 2.3381 0.0000
6 19 -4 5.2579 0.0000
6 19 -1 -0.6120 0.0000
6 19 2 6.0766 0.0000
6 19 5 -7.4493 0.0000
6 19 8 4.2766 0.0000
6 20 -8 -3.7180 0.0000
6 20 -5 0.1406 0.0000
6 20 -2 5.0894 0.0000
6 20 1 1.9405 0.0000
6 20 4 12.4731 0.0000
6 20 7 -1.8553 0.0000
6 21 -6 -1.5803 0.0000
6 21 -3 0.6854 0.0000
6 21 0 10.7203 0.0000
6 21 3 -1.1241 0.0000
6 21 6 0.3032 0.0000
6 22 -7 2.0739 0.0000
6 22 -4 2.5456 0.0000
6 22 -1 0.7257 0.0000
6 22 2 7.7821 0.0000
6 22 5 -5.6265 0.0000
6 23 -5 -0.4690 0.0000
6 23 -2 3.8738 0.0000
6 23 1 -0.6744 0.0000
6 23 4 3.3477 0.0000
6 23 7 -1.6245 0.0000
6 24 -6 0.2998 0.0000
6 24 -3 0.6124 0.0000
6 24 0 10.4091 0.0000
6 24 3 1.6569 0.0000
6 24 6 6.1189 0.0000
6 25 -4 0.7040 0.0000
6 25 -1 0.2020 0.0000
6 25 2 6.6898 0.0000
6 25 5 -4.7128 0.0000
6 26 -5 0.5618 0.0000
6 26 -2 1.3466 0.0000
6 26 1 -1.0067 0.0000
6 26 4 3.2951 0.0000
6 27 -3 -0.3165 0.0000
6 27 0 7.2394 0.0000
6 27 3 -0.2053 0.0000
6 28 -4 2.4374 0.0000
6 28 -1 1.9554 0.0000
6 28 2 3.9660 0.0000
6 28 5 -0.9820 0.0000
6 29 -2 2.3953 0.0000
6 29 1 0.3398 0.0000
6 29 4 2.8197 0.0000
6 30 -3 0.5658 0.0000
6 30 0 3.6551 0.0000
6 30 3 -3.3051 0.0000
6 31 -1 -1.7132 0.0000
6 31 2 5.4289 0.0000
7 1 -9 -4.3247 0.0000
7 1 -6 8.4089 0.0000
7 1 -3 8.0287 0.0000
7 1 0 24.0130 0.0000
7 1 3 -24.0861 0.0000
7 1 6 -3.0555 0.0000
7 1 9 -6.3884 0.0000
7 2 -10 3.8703 0.0000
7 2 -7 -5.3109 0.0000
7 2 -4 -4.6356 0.0000
7 2 -1 -4.9684 0.0000
7 2 2 15.8673 0.0000
7 2 5 -7.3882 0.0000
7 2 8 -0.4245 0.0000
7 3 -11 -1.2015 0.0000
7 3 -8 -3.4206 0.0000
7 3 -5 -13.4632 0.0000
7 3 -2 14.0775 0.0000
7 3 1 8.8540 0.0000
7 3 4 10.8789 0.0000
7 3 7 -6.9261 0.0000
7 3 10 1.8253 0.0000
7 4 -9 -5.0231 0.0000
7 4 -6 11.0812 0.0000
7 4 -3 22.2865 0.0000
7 4 0 55.7182 0.0000
7 4 3 14.0762 0.0000
7 4 6 14.6310 0.0000
7 4 9 -6.3176 0.0000
7 5 -10 0.8117 0.0000
7 5 -7 -4.5849 0.0000
7 5 -4 5.8859 0.0000
7 5 -1 12.6859 0.0000
7 5 2 0.1431 0.0000
7 5 5 -19.2475 0.0000
7 5 8 1.3270 0.0000
7 6 -8 -2.3690 0.0000
7 6 -5 -8.5100 0.0000
7 6 -2 -1.7927 0.0000
7 6 1 -9.8867 0.0000
7 6 4 13.7940 0.0000
7 6 7 -3.4152 0.0000
7 6 10 0.5977 0.0000
7 7 -9 -4.2470 0.0000
7 7 -6 3.5213 0.0000
7 7 -3 16.9220 0.0000
7 7 0 49.7235 0.0000
7 7 3 12.4480 0.0000
7 7 6 10.4460 0.0000
7 7 9 -5.8796 0.0000
7 8 -10 0.7507 0.0000
7 8 -7 -4.2327 0.0000
7 8 -4 9.4747 0.0000
7 8 -1 1.0656 0.0000
7 8 2 -3.8759 0.0000
7 8 5 -13.6740 0.0000
7 8 8 3.1519 0.0000
7 9 -8 -3.1871 0.0000
7 9 -5 -2.2564 0.0000
7 9 -2 18.0186 0.0000
7 9 1 5.1348 0.0000
7 9 4 18.8082 0.0000
7 9 7 -3.0558 0.0000
7 9 10 1.6311 0.0000
7 10 -9 -3.5181 0.0000
7 10 -6 1.4896 0.0000
7 10 -3 2.5345 0.0000
7 10 0 23.7185 0.0000
7 10 3 -7.3175 0.0000
7 10 6 5.0636 0.0000
7 10 9 -5.1461 0.0000
7 11 -7 -3.6402 0.0000
7 11 -4 16.4429 0.0000
7 11 -1 -0.6369 0.0000
7 11 2 12.1858 0.0000
7 11 5 -4.2808 0.0000
7 11 8 9.2685 0.0000
7 12 -8 -1.5440 0.0000
7 12 -5 -6.3974 0.0000
7 12 -2 18.4413 0.0000
7 12 1 -5.0569 0.0000
7 12 4 8.6226 0.0000
7 12 7 -8.4138 0.0000
7 12 10 0.1017 0.0000
7 13 -9 -6.0969 0.0000
7 13 -6 6.6913 0.0000
7 13 -3 -4.1530 0.0000
7 13 0 23.2943 0.0000
7 13 3 -3.3412 0.0000
7 13 6 5.5478 0.0000
7 13 9 -4.0671 0.0000
7 14 -7 -7.1419 0.0000
7 14 -4 13.2998 0.0000
7 14 -1 -2.5375 0.0000
7 14 2 15.1337 0.0000
7 14 5 -1.2356 0.0000
7 14 8 8.9020 0.0000
7 15 -8 -0.1238 0.0000
7 15 -5 -5.2799 0.0000
7 15 -2 10.2786 0.0000
7 15 1 -3.5818 0.0000
7 15 4 5.5853 0.0000
7 15 7 -4.2929 0.0000
7 16 -9 -3.7539 0.0000
7 16 -6 6.6072 0.0000
7 16 -3 1.3522 0.0000
7 16 0 17.7803 0.0000
7 16 3 -2.5887 0.0000
7 16 6 2.0980 0.0000
7 16 9 -2.7510 0.0000
7 17 -7 -2.6481 0.0000
7 17 -4 7.0422 0.0000
7 17 -1 -4.2608 0.0000
7 17 2 9.0484 0.0000
7 17 5 -4.7388 0.0000
7 17 8 4.8297 0.0000
7 18 -8 -2.4551 0.0000
7 18 -5 -1.4888 0.0000
7 18 -2 2.3021 0.0000
7 18 1 1.8330 0.0000
7 18 4 9.8779 0.0000
7 18 7 -3.3009 0.0000
7 19 -6 -0.8348 0.0000
7 19 -3 2.3472 0.0000
7 19 0 10.7907 0.0000
7 19 3 -3.2523 0.0000
7 19 6 -0.2215 0.0000
7 20 -7 2.4760 0.0000
7 20 -4 6.7537 0.0000
7 20 -1 0.4127 0.0000
7 20 2 8.0613 0.0000
7 20 5 -5.4290 0.0000
7 20 8 2.1617 0.0000
7 21 -8 -2.9896 0.0000
7 21 -5 -0.9844 0.0000
7 21 -2 3.7110 0.0000
7 21 1 0.3480 0.0000
7 21 4 6.6767 0.0000
7 21 7 -3.7661 0.0000
7 22 -6 0.0044 0.0000
7 22 -3 0.9794 0.0000
7 22 0 7.0515 0.0000
7 22 3 2.1237 0.0000
7 22 6 4.5815 0.0000
7 23 -7 0.3241 0.0000
7 23 -4 3.4339 0.0000
7 23 -1 0.7914 0.0000
7 23 2 7.7566 0.0000
7 23 5 -3.4339 0.0000
7 24 -5 -1.9283 0.0000
7 24 -2 5.0681 0.0000
7 24 1 -1.3326 0.0000
7 24 4 -0.5247 0.0000
7 25 -6 1.2499 0.0000
7 25 -3 1.5049 0.0000
7 25 0 6.8123 0.0000
7 25 3 1.2138 0.0000
7 25 6 5.1079 0.0000
7 26 -4 0.8402 0.0000
7 26 -1 2.8362 0.0000
7 26 2 4.1214 0.0000
7 26 5 -0.1331 0.0000
7 27 -5 -0.9895 0.0000
7 27 -2 2.5921 0.0000
7 27 1 0.7506 0.0000
7 27 4 2.4368 0.0000
7 28 -3 -0.5427 0.0000
7 28 0 3.9093 0.0000
7 28 3 -5.7540 0.0000
7 29 -4 2.0171 0.0000
7 29 -1 1.7197 0.0000
7 29 2 7.3146 0.0000
7 30 -2 3.9170 0.0000
7 30 1 -0.4755 0.0000
7 31 0 3.0450 0.0000
8 1 -11 -2.9096 0.0000
8 1 -8 -3.6013 0.0000
8 1 -5 -6.9208 0.0000
8 1 -2 32.9307 0.0000
8 1 1 52.0619 0.0000
8 1 4 16.3188 0.0000
8 1 7 -3.6013 0.0000
8 1 10 2.7027 0.0000
8 2 -9 -4.7671 0.0000
8 2 -6 12.0184 0.0000
8 2 -3 20.5145 0.0000
8 2 0 44.4568 0.0000
8 2 3 -1.4325 0.0000
8 2 6 5.6573 0.0000
8 2 9 -6.0368 0.0000
8 3 -10 4.3530 0.0000
8 3 -7 -3.7412 0.0000
8 3 -4 6.1678 0.0000
8 3 -1 -2.1895 0.0000
8 3 2 14.3532 0.0000
8 3 5 -15.7423 0.0000
8 3 8 0.3637 0.0000
8 4 -8 -2.7080 0.0000
8 4 -5 -17.9430 0.0000
8 4 -2 -10.7824 0.0000
8 4 1 -12.6094 0.0000
8 4 4 10.3244 0.0000
8 4 7 -6.0462 0.0000
8 4 10 0.0550 0.0000
8 5 -9 -5.7595 0.0000
8 5 -6 6.1926 0.0000
8 5 -3 26.0201 0.0000
8 5 0 65.8093 0.0000
8 5 3 23.5387 0.0000
8 5 6 13.0381 0.0000
8 5 9 -5.9843 0.0000
8 6 -10 0.5130 0.0000
8 6 -7 -2.6632 0.0000
8 6 -4 11.5353 0.0000
8 6 -1 2.9642 0.0000
8 6 2 -5.4616 0.0000
8 6 5 -17.8347 0.0000
8 6 8 2.5788 0.0000
8 7 -8 -0.1394 0.0000
8 7 -5 -8.1436 0.0000
8 7 -2 -0.0186 0.0000
8 7 1 -6.3753 0.0000
8 7 4 16.2240 0.0000
8 7 7 0.0222 0.0000
8 7 10 1.6005 0.0000
8 8 -9 -3.9632 0.0000
8 8 -6 -0.9939 0.0000
8 8 -3 7.7356 0.0000
8 8 0 34.5560 0.0000
8 8 3 5.0824 0.0000
8 8 6 4.7088 0.0000
8 8 9 -5.3311 0.0000
8 9 -10 -1.2734 0.0000
8 9 -7 -1.9237 0.0000
8 9 -4 14.6691 0.0000
8 9 -1 2.7186 0.0000
8 9 2 6.6207 0.0000
8 9 5 -7.9499 0.0000
8 9 8 7.4681 0.0000
8 10 -8 0.0621 0.0000
8 10 -5 -5.0500 0.0000
8 10 -2 15.1916 0.0000
8 10 1 -3.0840 0.0000
8 10 4 11.8553 0.0000
8 10 7 -6.2095 0.0000
8 10 10 0.3878 0.0000
8 11 -9 -4.4199 0.0000
8 11 -6 3.0085 0.0000
8 11 -3 -3.8370 0.0000
8 11 0 19.0193 0.0000
8 11 3 -3.1011 0.0000
8 11 6 4.1360 0.0000
8 11 9 -2.3522 0.0000
8 12 -7 -6.1472 0.0000
8 12 -4 16.9496 0.0000
8 12 -1 1.9544 0.0000
8 12 2 15.5529 0.0000
8 12 5 -2.5853 0.0000
8 12 8 8.4933 0.0000
8 13 -8 3.4583 0.0000
8 13 -5 -2.3468 0.0000
8 13 -2 14.1644 0.0000
8 13 1 -9.4100 0.0000
8 13 4 2.0970 0.0000
8 13 7 -9.2027 0.0000
8 14 -9 -5.3883 0.0000
8 14 -6 5.7486 0.0000
8 14 -3 -2.1991 0.0000
8 14 0 17.2032 0.0000
8 14 3 -0.2756 0.0000
8 14 6 3.5139 0.0000
8 14 9 -3.9491 0.0000
8 15 -7 -6.7338 0.0000
8 15 -4 9.0937 0.0000
8 15 -1 -0.2742 0.0000
8 15 2 14.7740 0.0000
8 15 5 -1.9791 0.0000
8 15 8 4.4451 0.0000
8 16 -8 0.6874 0.0000
8 16 -5 -1.8400 0.0000
8 16 -2 7.6538 0.0000
8 16 1 -1.6594 0.0000
8 16 4 4.5914 0.0000
8 16 7 -3.0269 0.0000
8 17 -6 2.2339 0.0000
8 17 -3 4.8939 0.0000
8 17 0 12.7354 0.0000
8 17 3 -0.3780 0.0000
8 17 6 3.1061 0.0000
8 18 -7 -0.5106 0.0000
8 18 -4 4.2801 0.0000
8 18 -1 0.9702 0.0000
8 18 2 10.7262 0.0000
8 18 5 -4.8066 0.0000
8 18 8 3.2438 0.0000
8 19 -8 -2.2361 0.0000
8 19 -5 -0.4239 0.0000
8 19 -2 2.1676 0.0000
8 19 1 -1.2324 0.0000
8 19 4 8.3546 0.0000
8 19 7 -3.7097 0.0000
8 20 -6 -2.3977 0.0000
8 20 -3 1.0564 0.0000
8 20 0 8.8252 0.0000
8 20 3 0.5617 0.0000
8 20 6 4.7203 0.0000
8 21 -7 1.0342 0.0000
8 21 -4 4.2116 0.0000
8 21 -1 1.4721 0.0000
8 21 2 7.2139 0.0000
8 21 5 -6.2145 0.0000
8 22 -5 -1.3247 0.0000
8 22 -2 6.6435 0.0000
8 22 1 -0.4749 0.0000
8 22 4 0.8811 0.0000
8 22 7 -0.8939 0.0000
8 23 -6 -0.1192 0.0000
8 23 -3 -0.1964 0.0000
8 23 0 4.6842 0.0000
8 23 3 4.6215 0.0000
8 23 6 4.3847 0.0000
8 24 -4 -0.2285 0.0000
8 24 -1 1.5858 0.0000
8 24 2 4.9776 0.0000
8 24 5 -1.7899 0.0000
8 25 -5 0.1980 0.0000
8 25 -2 5.6849 0.0000
8 25 1 2.1810 0.0000
8 25 4 -0.3794 0.0000
8 26 -3 -0.3223 0.0000
8 26 0 3.4824 0.0000
8 26 3 -2.5161 0.0000
8 27 -4 1.2215 0.0000
8 27 -1 3.6701 0.0000
8 27 2 6.0919 0.0000
8 28 -2 2.3105 0.0000
8 28 1 1.0100 0.0000
8 28 4 4.5520 0.0000
8 29 -3 -0.4974 0.0000
8 29 0 2.0074 0.0000
8 29 3 -5.7718 0.0000
8 30 -1 0.0779 0.0000
9 1 -10 4.1606 0.0000
9 1 -7 -1.8743 0.0000
9 1 -4 0.4519 0.0000
9 1 -1 -9.3938 0.0000
9 1 2 21.2894 0.0000
9 1 5 -5.5863 0.0000
9 1 8 -3.1787 0.0000
9 2 -8 -4.1557 0.0000
9 2 -5 -15.5619 0.0000
9 2 -2 0.0872 0.0000
9 2 1 6.2202 0.0000
9 2 4 7.4740 0.0000
9 2 7 -6.3950 0.0000
9 2 10 0.5565 0.0000
9 3 -9 -6.8174 0.0000
9 3 -6 11.8207 0.0000
9 3 -3 24.7460 0.0000
9 3 0 64.3039 0.0000
9 3 3 14.8336 0.0000
9 3 6 13.5020 0.0000
9 3 9 -5.3456 0.0000
9 4 -10 2.0803 0.0000
9 4 -7 0.2905 0.0000
9 4 -4 13.9252 0.0000
9 4 -1 1.5644 0.0000
9 4 2 1.7785 0.0000
9 4 5 -19.6219 0.0000
9 4 8 0.6710 0.0000
9 5 -8 -0.2266 0.0000
9 5 -5 -12.9037 0.0000
9 5 -2 -12.0501 0.0000
9 5 1 -13.0271 0.0000
9 5 4 12.4573 0.0000
9 5 7 -1.8596 0.0000
9 5 10 -0.4039 0.0000
9 6 -9 -5.8085 0.0000
9 6 -6 -1.3075 0.0000
9 6 -3 15.4029 0.0000
9 6 0 52.4143 0.0000
9 6 3 16.8172 0.0000
9 6 6 4.9144 0.0000
9 6 9 -5.9396 0.0000
9 7 -10 -0.9320 0.0000
9 7 -7 0.0951 0.0000
9 7 -4 17.8602 0.0000
9 7 -1 6.6542 0.0000
9 7 2 -0.2510 0.0000
9 7 5 -11.5045 0.0000
9 7 8 3.6488 0.0000
9 8 -8 -0.5608 0.0000
9 8 -5 -6.0323 0.0000
9 8 -2 9.7427 0.0000
9 8 1 -2.3402 0.0000
9 8 4 14.4531 0.0000
9 8 7 -2.3223 0.0000
9 8 10 1.4244 0.0000
9 9 -9 -1.9649 0.0000
9 9 -6 -2.8815 0.0000
9 9 -3 -2.5199 0.0000
9 9 0 20.3962 0.0000
9 9 3 -0.3542 0.0000
9 9 6 2.9442 0.0000
9 9 9 -2.5263 0.0000
9 10 -7 -4.9741 0.0000
9 10 -4 16.8246 0.0000
9 10 -1 8.1782 0.0000
9 10 2 14.2277 0.0000
9 10 5 -1.7002 0.0000
9 10 8 4.5957 0.0000
9 11 -8 2.8829 0.0000
9 11 -5 -4.1830 0.0000
9 11 -2 14.1560 0.0000
9 11 1 -6.9508 0.0000
9 11 4 4.3443 0.0000
9 11 7 -5.6763 0.0000
9 12 -9 -4.2000 0.0000
9 12 -6 -0.0452 0.0000
9 12 -3 -6.8573 0.0000
9 12 0 17.3921 0.0000
9 12 3 1.2030 0.0000
9 12 6 6.0871 0.0000
9 12 9 -2.8292 0.0000
9 13 -7 -8.3466 0.0000
9 13 -4 11.4849 0.0000
9 13 -1 1.5263 0.0000
9 13 2 15.5725 0.0000
9 13 5 -0.3720 0.0000
9 13 8 6.3252 0.0000
9 14 -8 3.9054 0.0000
9 14 -5 -1.2531 0.0000
9 14 -2 10.2281 0.0000
9 14 1 -5.9124 0.0000
9 14 4 -1.9479 0.0000
9 14 7 -2.5378 0.0000
9 15 -9 -1.9169 0.0000
9 15 -6 4.0459 0.0000
9 15 -3 2.8921 0.0000
9 15 0 10.8145 0.0000
9 15 3 0.8703 0.0000
9 15 6 1.3837 0.0000
9 15 9 -2.9149 0.0000
9 16 -7 -5.8831 0.0000
9 16 -4 1.2187 0.0000
9 16 -1 -0.4069 0.0000
9 16 2 11.5784 0.0000
9 16 5 -3.3704 0.0000
9 16 8 3.2082 0.0000
9 17 -8 1.0035 0.0000
9 17 -5 1.4576 0.0000
9 17 -2 5.1492 0.0000
9 17 1 -1.5762 0.0000
9 17 4 3.1205 0.0000
9 17 7 -3.9809 0.0000
9 18 -6 -1.2055 0.0000
9 18 -3 5.8415 0.0000
9 18 0 10.8219 0.0000
9 18 3 -1.2535 0.0000
9 18 6 3.7513 0.0000
9 19 -7 -0.2546 0.0000
9 19 -4 2.3417 0.0000
9 19 -1 2.8944 0.0000
9 19 2 9.5375 0.0000
9 19 5 -5.2764 0.0000
9 19 8 0.7592 0.0000
9 20 -5 0.5684 0.0000
9 20 -2 5.1143 0.0000
9 20 1 0.2034 0.0000
9 20 4 4.2875 0.0000
9 20 7 -4.5775 0.0000
9 21 -6 -2.3403 0.0000
9 21 -3 0.0165 0.0000
9 21 0 6.1204 0.0000
9 21 3 2.4770 0.0000
9 21 6 4.9048 0.0000
9 22 -7 0.0061 0.0000
9 22 -4 -0.2759 0.0000
9 22 -1 3.1239 0.0000
9 22 2 7.7989 0.0000
9 22 5 -2.5180 0.0000
9 23 -5 2.0245 0.0000
9 23 -2 7.0666 0.0000
9 23 1 1.9286 0.0000
9 23 4 -3.0970 0.0000
9 24 -6 -1.5937 0.0000
9 24 -3 0.0878 0.0000
9 24 0 3.3032 0.0000
9 24 3 2.6420 0.0000
9 24 6 2.7315 0.0000
9 25 -4 -2.1954 0.0000
9 25 -1 1.3031 0.0000
9 25 2 5.9842 0.0000
9 25 5 2.7304 0.0000
9 26 -5 1.6915 0.0000
9 26 -2 1.8987 0.0000
9 26 1 2.5157 0.0000
9 26 4 0.2867 0.0000
9 27 -3 2.7777 0.0000
9 27 0 2.8830 0.0000
9 27 3 -5.4316 0.0000
9 28 -1 0.0813 0.0000
9 28 2 6.8191 0.0000
9 29 -2 3.8341 0.0000
9 29 1 -0.1284 0.0000
10 1 -9 -5.2819 0.0000
10 1 -6 9.7932 0.0000
10 1 -3 16.1557 0.0000
10 1 0 37.0760 0.0000
10 1 3 1.4366 0.0000
10 1 6 9.2947 0.0000
10 1 9 -4.1185 0.0000
10 2 -10 2.6688 0.0000
10 2 -7 1.2192 0.0000
10 2 -4 9.8233 0.0000
10 2 -1 -0.7763 0.0000
10 2 2 16.1633 0.0000
10 2 5 -10.4858 0.0000
10 2 8 -2.7231 0.0000
10 3 -8 -0.3473 0.0000
10 3 -5 -17.2521 0.0000
10 3 -2 -6.2922 0.0000
10 3 1 -12.7455 0.0000
10 3 4 12.5054 0.0000
10 3 7 -6.6092 0.0000
10 3 10 0.2561 0.0000
10 4 -9 -8.1537 0.0000
10 4 -6 3.2362 0.0000
10 4 -3 16.1156 0.0000
10 4 0 60.7346 0.0000
10 4 3 15.6083 0.0000
10 4 6 9.6158 0.0000
10 4 9 -5.7681 0.0000
10 5 -10 0.3401 0.0000
10 5 -7 3.7078 0.0000
10 5 -4 16.0492 0.0000
10 5 -1 3.8061 0.0000
10 5 2 -3.0679 0.0000
10 5 5 -12.0155 0.0000
10 5 8 1.9688 0.0000
10 6 -8 1.9615 0.0000
10 6 -5 -8.4850 0.0000
10 6 -2 -0.0864 0.0000
10 6 1 -6.0614 0.0000
10 6 4 13.7267 0.0000
10 6 7 -0.5953 0.0000
10 6 10 1.9551 0.0000
10 7 -9 -1.2323 0.0000
10 7 -6 -3.7088 0.0000
10 7 -3 -0.6452 0.0000
10 7 0 30.0469 0.0000
10 7 3 3.1283 0.0000
10 7 6 2.6113 0.0000
10 7 9 -5.3443 0.0000
10 8 -10 -3.4895 0.0000
10 8 -7 -1.5936 0.0000
10 8 -4 17.5883 0.0000
10 8 -1 10.3425 0.0000
10 8 2 9.8615 0.0000
10 8 5 -5.6273 0.0000
10 8 8 2.7710 0.0000
10 9 -8 3.9266 0.0000
10 9 -5 -2.6633 0.0000
10 9 -2 14.0071 0.0000
10 9 1 -4.5826 0.0000
10 9 4 6.4117 0.0000
10 9 7 -2.3612 0.0000
10 9 10 1.5558 0.0000
10 10 -9 -1.4247 0.0000
10 10 -6 -1.6715 0.0000
10 10 -3 -6.4390 0.0000
10 10 0 16.7249 0.0000
10 10 3 -0.4604 0.0000
10 10 6 3.0923 0.0000
10 10 9 -2.2813 0.0000
10 11 -7 -6.0613 0.0000
10 11 -4 14.8647 0.0000
10 11 -1 5.1671 0.0000
10 11 2 14.8986 0.0000
10 11 5 -3.2397 0.0000
10 11 8 4.5049 0.0000
10 12 -8 4.9290 0.0000
10 12 -5 -0.3827 0.0000
10 12 -2 14.6196 0.0000
10 12 1 -6.1205 0.0000
10 12 4 0.5895 0.0000
10 12 7 -4.6926 0.0000
10 13 -9 -3.5233 0.0000
10 13 -6 2.0370 0.0000
10 13 -3 -3.3215 0.0000
10 13 0 16.0739 0.0000
10 13 3 2.7173 0.0000
10 13 6 1.4996 0.0000
10 13 9 -2.3465 0.0000
10 14 -7 -10.0294 0.0000
10 14 -4 4.1578 0.0000
10 14 -1 1.5799 0.0000
10 14 2 14.1131 0.0000
10 14 5 1.5188 0.0000
10 14 8 3.7056 0.0000
10 15 -8 2.5953 0.0000
10 15 -5 2.2615 0.0000
10 15 -2 7.6243 0.0000
10 15 1 0.3075 0.0000
10 15 4 -0.1949 0.0000
10 15 7 -2.2325 0.0000
10 16 -6 1.9157 0.0000
10 16 -3 3.8624 0.0000
10 16 0 11.1011 0.0000
10 16 3 -0.1472 0.0000
10 16 6 3.3452 0.0000
10 17 -7 -5.7488 0.0000
10 17 -4 1.6562 0.0000
10 17 -1 -1.4909 0.0000
10 17 2 11.6707 0.0000
10 17 5 -1.9273 0.0000
10 17 8 -0.1795 0.0000
10 18 -8 0.7905 0.0000
10 18 -5 -0.1063 0.0000
10 18 -2 0.7568 0.0000
10 18 1 0.6283 0.0000
10 18 4 2.9644 0.0000
10 18 7 -4.7220 0.0000
10 19 -6 -0.7250 0.0000
10 19 -3 4.4200 0.0000
10 19 0 7.1727 0.0000
10 19 3 -1.7145 0.0000
10 19 6 5.1170 0.0000
10 20 -7 -2.3450 0.0000
10 20 -4 3.5542 0.0000
10 20 -1 0.7062 0.0000
10 20 2 9.6895 0.0000
10 20 5 -2.2921 0.0000
10 21 -5 -0.8262 0.0000
10 21 -2 5.6766 0.0000
10 21 1 0.6890 0.0000
10 21 4 -0.2431 0.0000
10 21 7 -3.5048 0.0000
10 22 -6 0.1566 0.0000
10 22 -3 2.3847 0.0000
10 22 0 0.9862 0.0000
10 22 3 3.2328 0.0000
10 22 6 3.1809 0.0000
10 23 -4 -2.3191 0.0000
10 23 -1 1.6870 0.0000
10 23 2 5.8236 0.0000
10 23 5 2.8186 0.0000
10 24 -5 2.2890 0.0000
10 24 -2 6.5550 0.0000
10 24 1 3.4252 0.0000
10 24 4 -4.7975 0.0000
10 25 -3 4.8176 0.0000
10 25 0 1.7006 0.0000
10 25 3 -2.1237 0.0000
10 26 -4 -3.1100 0.0000
10 26 -1 0.8158 0.0000
10 26 2 6.8080 0.0000
10 27 -2 3.1325 0.0000
10 27 1 1.2407 0.0000
10 28 -3 1.8722 0.0000
10 28 0 2.1306 0.0000
10 29 -1 0.9821 0.0000
11 1 -8 -0.5503 0.0000
11 1 -5 -10.8290 0.0000
11 1 -2 2.2335 0.0000
11 1 1 2.3618 0.0000
11 1 4 4.2992 0.0000
11 1 7 -9.5007 0.0000
11 1 10 0.4359 0.0000
11 2 -9 -6.3475 0.0000
11 2 -6 5.8437 0.0000
11 2 -3 12.6815 0.0000
11 2 0 49.7659 0.0000
11 2 3 8.5415 0.0000
11 2 6 8.8222 0.0000
11 2 9 -5.4845 0.0000
11 3 -10 2.5349 0.0000
11 3 -7 1.2966 0.0000
11 3 -4 15.5397 0.0000
11 3 -1 -4.1928 0.0000
11 3 2 10.2412 0.0000
11 3 5 -10.7563 0.0000
11 3 8 2.1540 0.0000
11 4 -8 3.7566 0.0000
11 4 -5 -11.4572 0.0000
11 4 -2 -3.0072 0.0000
11 4 1 -5.8019 0.0000
11 4 4 13.6823 0.0000
11 4 7 -4.7359 0.0000
11 4 10 0.4809 0.0000
11 5 -9 -4.8333 0.0000
11 5 -6 -4.2179 0.0000
11 5 -3 7.2239 0.0000
11 5 0 41.4722 0.0000
11 5 3 9.9891 0.0000
11 5 6 1.8752 0.0000
11 5 9 -5.5062 0.0000
11 6 -10 -2.5950 0.0000
11 6 -7 -0.2362 0.0000
11 6 -4 16.5401 0.0000
11 6 -1 5.5190 0.0000
11 6 2 3.4446 0.0000
11 6 5 -5.5789 0.0000
11 6 8 4.4668 0.0000
11 7 -8 5.4657 0.0000
11 7 -5 -5.2507 0.0000
11 7 -2 8.5510 0.0000
11 7 1 -0.0835 0.0000
11 7 4 11.8426 0.0000
11 7 7 -2.5615 0.0000
11 7 10 2.1114 0.0000
11 8 -9 -0.0101 0.0000
11 8 -6 -3.9317 0.0000
11 8 -3 -5.0658 0.0000
11 8 0 15.8285 0.0000
11 8 3 -0.7923 0.0000
11 8 6 1.5448 0.0000
11 8 9 -1.3811 0.0000
11 9 -7 -6.3042 0.0000
11 9 -4 12.8884 0.0000
11 9 -1 7.0239 0.0000
11 9 2 12.8188 0.0000
11 9 5 -1.9648 0.0000
11 9 8 1.7822 0.0000
11 10 -8 5.3740 0.0000
11 10 -5 -1.3332 0.0000
11 10 -2 13.2525 0.0000
11 10 1 -1.9166 0.0000
11 10 4 3.8931 0.0000
11 10 7 -4.5232 0.0000
11 11 -9 -1.6341 0.0000
11 11 -6 -1.3059 0.0000
11 11 -3 -4.9533 0.0000
11 11 0 13.1872 0.0000
11 11 3 -1.6890 0.0000
11 11 6 3.4165 0.0000
11 11 9 -1.2304 0.0000
11 12 -7 -9.2842 0.0000
11 12 -4 9.9228 0.0000
11 12 -1 0.7140 0.0000
11 12 2 14.4782 0.0000
11 12 5 -0.4148 0.0000
11 12 8 2.5782 0.0000
11 13 -8 4.9557 0.0000
11 13 -5 1.6201 0.0000
11 13 -2 10.4119 0.0000
11 13 1 -2.2023 0.0000
11 13 4 -3.7489 0.0000
11 13 7 -4.3669 0.0000
11 14 -6 2.4350 0.0000
11 14 -3 2.8919 0.0000
11 14 0 9.1428 0.0000
11 14 3 1.1773 0.0000
11 14 6 2.1222 0.0000
11 14 9 -1.0551 0.0000
11 15 -7 -9.8486 0.0000
11 15 -4 2.0426 0.0000
11 15 -1 0.6631 0.0000
11 15 2 13.6633 0.0000
11 15 5 -0.7837 0.0000
11 15 8 -1.4302 0.0000
11 16 -8 2.1609 0.0000
11 16 -5 0.2924 0.0000
11 16 -2 6.4016 0.0000
11 16 1 0.6045 0.0000
11 16 4 -0.1977 0.0000
11 16 7 -2.8676 0.0000
11 17 -6 1.6691 0.0000
11 17 -3 6.8550 0.0000
11 17 0 10.4094 0.0000
11 17 3 0.3847 0.0000
11 17 6 6.7895 0.0000
11 18 -7 -5.6737 0.0000
11 18 -4 2.7171 0.0000
11 18 -1 0.1419 0.0000
11 18 2 9.7858 0.0000
11 18 5 -2.8885 0.0000
11 19 -5 -3.6729 0.0000
11 19 -2 4.4354 0.0000
11 19 1 1.9649 0.0000
11 19 4 3.8124 0.0000
11 19 7 -3.4900 0.0000
11 20 -6 1.4752 0.0000
11 20 -3 1.9195 0.0000
11 20 0 4.0904 0.0000
11 20 3 -0.8911 0.0000
11 20 6 3.9376 0.0000
11 21 -7 -3.1987 0.0000
11 21 -4 0.9010 0.0000
11 21 -1 3.8243 0.0000
11 21 2 6.6382 0.0000
11 21 5 -0.0744 0.0000
11 22 -5 -0.5131 0.0000
11 22 -2 6.2407 0.0000
11 22 1 4.4422 0.0000
11 22 4 -2.7598 0.0000
11 23 -6 0.5721 0.0000
11 23 -3 1.3363 0.0000
11 23 0 -0.8172 0.0000
11 23 3 2.7628 0.0000
11 24 -4 -2.9523 0.0000
11 24 -1 1.9063 0.0000
11 24 2 4.3038 0.0000
11 24 5 2.8238 0.0000
11 25 -5 0.5362 0.0000
11 25 -2 2.6134 0.0000
11 25 1 5.4543 0.0000
11 25 4 -1.2188 0.0000
11 26 -3 4.2536 0.0000
11 26 0 0.2772 0.0000
11 26 3 -3.8487 0.0000
11 27 -1 1.4552 0.0000
11 27 2 6.1618 0.0000
11 28 -2 1.1878 0.0000
12 1 -10 1.7134 0.0000
12 1 -7 -0.2366 0.0000
12 1 -4 13.2653 0.0000
12 1 -1 -0.0608 0.0000
12 1 2 26.2277 0.0000
12 1 5 -1.7777 0.0000
12 1 8 -0.7395 0.0000
12 2 -8 3.3642 0.0000
12 2 -5 -7.4148 0.0000
12 2 -2 2.3279 0.0000
12 2 1 -6.3361 0.0000
12 2 4 7.6917 0.0000
12 2 7 -7.6791 0.0000
12 2 10 0.6246 0.0000
12 3 -9 -7.0428 0.0000
12 3 -6 1.6511 0.0000
12 3 -3 5.1501 0.0000
12 3 0 45.1303 0.0000
12 3 3 6.7195 0.0000
12 3 6 4.1827 0.0000
12 3 9 -6.1487 0.0000
12 4 -10 0.3992 0.0000
12 4 -7 0.8269 0.0000
12 4 -4 16.1775 0.0000
12 4 -1 -3.3620 0.0000
12 4 2 2.6151 0.0000
12 4 5 -6.3634 0.0000
12 4 8 4.2577 0.0000
12 5 -8 5.3925 0.0000
12 5 -5 -5.3976 0.0000
12 5 -2 5.9947 0.0000
12 5 1 2.6836 0.0000
12 5 4 12.7157 0.0000
12 5 7 -4.7513 0.0000
12 5 10 0.2234 0.0000
12 6 -9 -0.0242 0.0000
12 6 -6 -3.6108 0.0000
12 6 -3 -0.8197 0.0000
12 6 0 23.4563 0.0000
12 6 3 2.3875 0.0000
12 6 6 -1.5000 0.0000
12 6 9 -2.6513 0.0000
12 7 -7 -6.9666 0.0000
12 7 -4 14.9567 0.0000
12 7 -1 8.9090 0.0000
12 7 2 7.9881 0.0000
12 7 5 -2.0167 0.0000
12 7 8 0.8822 0.0000
12 8 -8 5.9846 0.0000
12 8 -5 -1.5566 0.0000
12 8 -2 12.9961 0.0000
12 8 1 2.7346 0.0000
12 8 4 8.0517 0.0000
12 8 7 -2.8312 0.0000
12 9 -9 1.3169 0.0000
12 9 -6 -2.8677 0.0000
12 9 -3 -4.5036 0.0000
12 9 0 12.3989 0.0000
12 9 3 -0.6801 0.0000
12 9 6 1.7220 0.0000
12 9 9 -1.3422 0.0000
12 10 -7 -9.2215 0.0000
12 10 -4 11.3156 0.0000
12 10 -1 5.1337 0.0000
12 10 2 12.2931 0.0000
12 10 5 -0.7938 0.0000
12 10 8 1.5156 0.0000
12 11 -8 4.0236 0.0000
12 11 -5 -1.8856 0.0000
12 11 -2 11.0686 0.0000
12 11 1 0.0805 0.0000
12 11 4 2.9055 0.0000
12 11 7 -3.5273 0.0000
12 12 -9 -0.9349 0.0000
12 12 -6 0.1142 0.0000
12 12 -3 -1.7200 0.0000
12 12 0 12.7608 0.0000
12 12 3 0.9611 0.0000
12 12 6 2.7648 0.0000
12 12 9 -0.3310 0.0000
12 13 -7 -11.5686 0.0000
12 13 -4 3.7439 0.0000
12 13 -1 1.1865 0.0000
12 13 2 10.9653 0.0000
12 13 5 1.3687 0.0000
12 13 8 1.3009 0.0000
12 14 -8 3.2078 0.0000
12 14 -5 2.1574 0.0000
12 14 -2 6.6858 0.0000
12 14 1 0.2751 0.0000
12 14 4 -1.8322 0.0000
12 14 7 -2.5836 0.0000
12 15 -6 2.0322 0.0000
12 15 -3 2.8520 0.0000
12 15 0 10.2803 0.0000
12 15 3 -0.3611 0.0000
12 15 6 4.7601 0.0000
12 16 -7 -8.5896 0.0000
12 16 -4 2.2119 0.0000
12 16 -1 -3.6263 0.0000
12 16 2 7.0972 0.0000
12 16 5 -4.1681 0.0000
12 16 8 -2.7461 0.0000
12 17 -8 1.7533 0.0000
12 17 -5 -1.6640 0.0000
12 17 -2 5.7557 0.0000
12 17 1 4.0284 0.0000
12 17 4 3.3798 0.0000
12 17 7 -3.8878 0.0000
12 18 -6 1.8024 0.0000
12 18 -3 4.4160 0.0000
12 18 0 8.1719 0.0000
12 18 3 -5.3441 0.0000
12 18 6 4.6675 0.0000
12 19 -7 -4.2400 0.0000
12 19 -4 3.8208 0.0000
12 19 -1 0.7108 0.0000
12 19 2 9.2817 0.0000
12 19 5 -1.6334 0.0000
12 20 -5 -3.1801 0.0000
12 20 -2 5.5092 0.0000
12 20 1 3.1160 0.0000
12 20 4 3.4585 0.0000
12 21 -6 0.8891 0.0000
12 21 -3 1.2190 0.0000
12 21 0 2.0976 0.0000
12 21 3 0.2867 0.0000
12 21 6 0.8874 0.0000
12 22 -4 -0.1205 0.0000
12 22 -1 3.6884 0.0000
12 22 2 3.5045 0.0000
12 22 5 2.2731 0.0000
12 23 -5 1.0091 0.0000
12 23 -2 4.4150 0.0000
12 23 1 7.2817 0.0000
12 23 4 -1.8467 0.0000
12 24 -3 4.5698 0.0000
12 24 0 -1.3612 0.0000
12 24 3 0.1304 0.0000
12 25 -4 -2.7537 0.0000
12 25 -1 0.4927 0.0000
12 25 2 3.9380 0.0000
12 26 -2 1.9096 0.0000
12 26 1 4.2724 0.0000
12 27 0 -0.8130 0.0000
13 1 -9 -5.1068 0.0000
13 1 -6 2.0474 0.0000
13 1 -3 -3.1369 0.0000
13 1 0 33.9983 0.0000
13 1 3 2.2087 0.0000
13 1 6 3.1987 0.0000
13 1 9 -7.8353 0.0000
13 2 -10 1.0958 0.0000
13 2 -7 -1.2494 0.0000
13 2 -4 12.1613 0.0000
13 2 -1 -4.0310 0.0000
13 2 2 15.7579 0.0000
13 2 5 -0.4657 0.0000
13 2 8 1.3581 0.0000
13 3 -8 4.9312 0.0000
13 3 -5 -7.4605 0.0000
13 3 -2 12.4626 0.0000
13 3 1 -1.4364 0.0000
13 3 4 15.3031 0.0000
13 3 7 -6.7997 0.0000
13 3 10 1.2321 0.0000
13 4 -9 -1.8197 0.0000
13 4 -6 0.3682 0.0000
13 4 -3 -2.9631 0.0000
13 4 0 33.8866 0.0000
13 4 3 0.2986 0.0000
13 4 6 -0.3881 0.0000
13 4 9 -4.3333 0.0000
13 5 -10 -3.2180 0.0000
13 5 -7 -4.4966 0.0000
13 5 -4 11.2836 0.0000
13 5 -1 -0.2382 0.0000
13 5 2 3.7185 0.0000
13 5 5 0.2533 0.0000
13 5 8 3.1388 0.0000
13 6 -8 7.3993 0.0000
13 6 -5 -2.7934 0.0000
13 6 -2 10.5886 0.0000
13 6 1 3.1633 0.0000
13 6 4 9.6567 0.0000
13 6 7 -3.0907 0.0000
13 6 10 0.7262 0.0000
13 7 -9 3.5487 0.0000
13 7 -6 -0.6499 0.0000
13 7 -3 -6.9060 0.0000
13 7 0 16.7127 0.0000
13 7 3 -2.0186 0.0000
13 7 6 -1.2405 0.0000
13 7 9 -1.6229 0.0000
13 8 -7 -8.6620 0.0000
13 8 -4 10.4860 0.0000
13 8 -1 4.7670 0.0000
13 8 2 9.0736 0.0000
13 8 5 -2.5380 0.0000
13 8 8 1.0435 0.0000
13 9 -8 3.6568 0.0000
13 9 -5 -0.6477 0.0000
13 9 -2 13.0017 0.0000
13 9 1 1.6066 0.0000
13 9 4 5.4558 0.0000
13 9 7 -2.8818 0.0000
13 10 -9 2.0327 0.0000
13 10 -6 1.6404 0.0000
13 10 -3 -4.6372 0.0000
13 10 0 14.3693 0.0000
13 10 3 -1.9663 0.0000
13 10 6 -0.5817 0.0000
13 10 9 -0.4835 0.0000
13 11 -7 -9.5925 0.0000
13 11 -4 8.5535 0.0000
13 11 -1 1.2050 0.0000
13 11 2 10.3420 0.0000
13 11 5 -1.1136 0.0000
13 11 8 0.8121 0.0000
13 12 -8 1.7543 0.0000
13 12 -5 2.6437 0.0000
13 12 -2 10.5854 0.0000
13 12 1 0.8140 0.0000
13 12 4 0.5539 0.0000
13 12 7 -4.5919 0.0000
13 13 -6 1.2679 0.0000
13 13 -3 -2.1341 0.0000
13 13 0 14.8438 0.0000
13 13 3 2.1601 0.0000
13 13 6 2.7235 0.0000
13 14 -7 -10.8346 0.0000
13 14 -4 4.5851 0.0000
13 14 -1 -1.1095 0.0000
13 14 2 8.9656 0.0000
13 14 5 -1.7183 0.0000
13 14 8 -2.8223 0.0000
13 15 -8 0.8330 0.0000
13 15 -5 0.3154 0.0000
13 15 -2 8.0372 0.0000
13 15 1 4.5164 0.0000
13 15 4 3.5861 0.0000
13 15 7 -1.4193 0.0000
13 16 -6 2.3972 0.0000
13 16 -3 1.0719 0.0000
13 16 0 12.4278 0.0000
13 16 3 -1.5279 0.0000
13 16 6 5.7524 0.0000
13 17 -7 -7.0678 0.0000
13 17 -4 4.4159 0.0000
13 17 -1 -6.2743 0.0000
13 17 2 7.9481 0.0000
13 17 5 -3.3567 0.0000
13 18 -5 -5.1372 0.0000
13 18 -2 5.0906 0.0000
13 18 1 1.7427 0.0000
13 18 4 7.5293 0.0000
13 18 7 -4.5002 0.0000
13 19 -6 3.3325 0.0000
13 19 -3 2.5239 0.0000
13 19 0 8.4846 0.0000
13 19 3 -5.8751 0.0000
13 19 6 2.9504 0.0000
13 20 -4 3.4394 0.0000
13 20 -1 -1.1850 0.0000
13 20 2 5.8580 0.0000
13 20 5 0.2914 0.0000
13 21 -5 -2.4593 0.0000
13 21 -2 4.3703 0.0000
13 21 1 2.7243 0.0000
13 21 4 2.7430 0.0000
13 22 -3 3.5568 0.0000
13 22 0 1.0285 0.0000
13 22 3 0.8611 0.0000
13 23 -4 -2.1392 0.0000
13 23 -1 -0.1216 0.0000
13 23 2 1.3609 0.0000
13 23 5 -0.6508 0.0000
13 24 -2 5.6694 0.0000
13 24 1 6.6476 0.0000
13 24 4 -0.4898 0.0000
13 25 -3 4.4315 0.0000
13 25 0 -2.4568 0.0000
13 25 3 -0.8559 0.0000
13 26 -1 2.3062 0.0000
13 26 2 3.7132 0.0000
14 1 -8 4.8274 0.0000
14 1 -5 0.5901 0.0000
14 1 -2 14.4321 0.0000
14 1 1 -4.2667 0.0000
14 1 4 10.0699 0.0000
14 1 7 -3.8841 0.0000
14 1 10 3.7817 0.0000
14 2 -9 -1.0911 0.0000
14 2 -6 3.0503 0.0000
14 2 -3 -4.6096 0.0000
14 2 0 30.3064 0.0000
14 2 3 -1.0839 0.0000
14 2 6 -2.4895 0.0000
14 2 9 -6.2760 0.0000
14 3 -10 -0.6868 0.0000
14 3 -7 -5.7767 0.0000
14 3 -4 10.7728 0.0000
14 3 -1 -9.6586 0.0000
14 3 2 11.5666 0.0000
14 3 5 -1.8812 0.0000
14 3 8 4.0475 0.0000
14 4 -8 5.9106 0.0000
14 4 -5 -3.8246 0.0000
14 4 -2 14.7039 0.0000
14 4 1 3.7879 0.0000
14 4 4 15.8047 0.0000
14 4 7 -6.3460 0.0000
14 4 10 0.5565 0.0000
14 5 -9 1.8652 0.0000
14 5 -6 0.6114 0.0000
14 5 -3 -0.3032 0.0000
14 5 0 23.3269 0.0000
14 5 3 -0.4981 0.0000
14 5 6 -4.5348 0.0000
14 5 9 -0.3767 0.0000
14 6 -7 -9.1612 0.0000
14 6 -4 7.5771 0.0000
14 6 -1 1.7193 0.0000
14 6 2 7.1475 0.0000
14 6 5 0.9140 0.0000
14 6 8 1.4124 0.0000
14 7 -8 3.9149 0.0000
14 7 -5 -1.7916 0.0000
14 7 -2 12.2401 0.0000
14 7 1 2.9108 0.0000
14 7 4 11.6078 0.0000
14 7 7 -3.3021 0.0000
14 8 -9 4.2606 0.0000
14 8 -6 1.3937 0.0000
14 8 -3 -4.1433 0.0000
14 8 0 14.3686 0.0000
14 8 3 -4.1545 0.0000
14 8 6 -1.8558 0.0000
14 8 9 -1.5607 0.0000
14 9 -7 -9.7259 0.0000
14 9 -4 6.0968 0.0000
14 9 -1 1.7607 0.0000
14 9 2 10.7098 0.0000
14 9 5 0.3251 0.0000
14 9 8 0.4037 0.0000
14 10 -8 -0.8772 0.0000
14 10 -5 -0.8015 0.0000
14 10 -2 10.1591 0.0000
14 10 1 1.0529 0.0000
14 10 4 3.7039 0.0000
14 10 7 -3.5581 0.0000
14 11 -6 1.0000 0.0000
14 11 -3 -2.7737 0.0000
14 11 0 13.8297 0.0000
14 11 3 -1.4425 0.0000
14 11 6 2.0887 0.0000
14 11 9 0.2595 0.0000
14 12 -7 -9.3002 0.0000
14 12 -4 4.7304 0.0000
14 12 -1 -2.1159 0.0000
14 12 2 9.7257 0.0000
14 12 5 -1.7237 0.0000
14 12 8 -2.0208 0.0000
14 13 -8 -0.1645 0.0000
14 13 -5 1.9434 0.0000
14 13 -2 9.1150 0.0000
14 13 1 -0.7482 0.0000
14 13 4 -1.4991 0.0000
14 13 7 -2.5430 0.0000
14 14 -6 2.1551 0.0000
14 14 -3 0.3261 0.0000
14 14 0 12.6008 0.0000
14 14 3 2.9030 0.0000
14 14 6 4.4866 0.0000
14 15 -7 -8.3096 0.0000
14 15 -4 3.6298 0.0000
14 15 -1 -5.6267 0.0000
14 15 2 4.5064 0.0000
14 15 5 -6.4784 0.0000
14 15 8 -4.5336 0.0000
14 16 -5 -3.6176 0.0000
14 16 -2 12.1878 0.0000
14 16 1 3.6504 0.0000
14 16 4 6.6057 0.0000
14 16 7 -1.1740 0.0000
14 17 -6 4.4996 0.0000
14 17 -3 2.1124 0.0000
14 17 0 12.2134 0.0000
14 17 3 -4.0539 0.0000
14 17 6 4.3449 0.0000
14 18 -7 -5.3588 0.0000
14 18 -4 3.8331 0.0000
14 18 -1 -2.7768 0.0000
14 18 2 8.1256 0.0000
14 18 5 -2.2684 0.0000
14 19 -5 -6.7927 0.0000
14 19 -2 6.1044 0.0000
14 19 1 -1.4213 0.0000
14 19 4 6.5338 0.0000
14 20 -6 3.4127 0.0000
14 20 -3 1.4044 0.0000
14 20 0 9.3568 0.0000
14 20 3 -0.7098 0.0000
14 20 6 0.8131 0.0000
14 21 -4 2.2658 0.0000
14 21 -1 1.6562 0.0000
14 21 2 1.6319 0.0000
14 21 5 -2.8487 0.0000
14 22 -5 -2.2307 0.0000
14 22 -2 4.2854 0.0000
14 22 1 4.0097 0.0000
14 22 4 4.1632 0.0000
14 23 -3 1.4481 0.0000
14 23 0 -0.5156 0.0000
14 23 3 1.6617 0.0000
14 24 -4 -1.1951 0.0000
14 24 -1 1.6915 0.0000
14 24 2 2.4441 0.0000
14 25 -2 1.9567 0.0000
14 25 1 2.4375 0.0000
14 26 0 -0.0781 0.0000
15 1 -10 -0.3411 0.0000
15 1 -7 -4.9604 0.0000
15 1 -4 6.7048 0.0000
15 1 -1 -3.9469 0.0000
15 1 2 19.7748 0.0000
15 1 5 -2.0496 0.0000
15 1 8 -2.7934 0.0000
15 2 -8 1.8966 0.0000
15 2 -5 -0.5317 0.0000
15 2 -2 17.5552 0.0000
15 2 1 3.0519 0.0000
15 2 4 14.8198 0.0000
15 2 7 -3.4314 0.0000
15 2 10 2.6427 0.0000
15 3 -9 1.4623 0.0000
15 3 -6 6.8631 0.0000
15 3 -3 -1.6948 0.0000
15 3 0 23.6324 0.0000
15 3 3 -4.3300 0.0000
15 3 6 -1.1496 0.0000
15 3 9 -1.5332 0.0000
15 4 -7 -7.2572 0.0000
15 4 -4 4.0762 0.0000
15 4 -1 -5.8991 0.0000
15 4 2 6.8845 0.0000
15 4 5 -2.1172 0.0000
15 4 8 -0.7518 0.0000
15 5 -8 3.1263 0.0000
15 5 -5 -1.7320 0.0000
15 5 -2 9.9434 0.0000
15 5 1 6.5181 0.0000
15 5 4 11.5939 0.0000
15 5 7 -2.7882 0.0000
15 6 -9 4.2713 0.0000
15 6 -6 3.8547 0.0000
15 6 -3 1.6667 0.0000
15 6 0 14.8678 0.0000
15 6 3 -2.5773 0.0000
15 6 6 -4.2867 0.0000
15 6 9 -1.4011 0.0000
15 7 -7 -9.5748 0.0000
15 7 -4 5.2890 0.0000
15 7 -1 5.3299 0.0000
15 7 2 10.8036 0.0000
15 7 5 -2.8012 0.0000
15 7 8 0.0304 0.0000
15 8 -8 -0.8782 0.0000
15 8 -5 -2.1922 0.0000
15 8 -2 8.7715 0.0000
15 8 1 2.0456 0.0000
15 8 4 9.3094 0.0000
15 8 7 -1.3120 0.0000
15 9 -6 4.0404 0.0000
15 9 -3 1.0313 0.0000
15 9 0 12.0807 0.0000
15 9 3 -0.8072 0.0000
15 9 6 -1.9622 0.0000
15 9 9 -0.7785 0.0000
15 10 -7 -8.3302 0.0000
15 10 -4 2.7922 0.0000
15 10 -1 3.9100 0.0000
15 10 2 10.4652 0.0000
15 10 5 -1.1454 0.0000
15 10 8 -1.3207 0.0000
15 11 -8 -2.7002 0.0000
15 11 -5 0.9707 0.0000
15 11 -2 7.6624 0.0000
15 11 1 -1.1188 0.0000
15 11 4 3.1454 0.0000
15 11 7 -2.8485 0.0000
15 12 -6 0.6004 0.0000
15 12 -3 -0.0602 0.0000
15 12 0 16.1183 0.0000
15 12 3 4.4899 0.0000
15 12 6 4.6719 0.0000
15 13 -7 -7.5069 0.0000
15 13 -4 0.8704 0.0000
15 13 -1 -2.3791 0.0000
15 13 2 2.5101 0.0000
15 13 5 -4.4607 0.0000
15 13 8 -3.2364 0.0000
15 14 -5 0.1895 0.0000
15 14 -2 8.7794 0.0000
15 14 1 5.1983 0.0000
15 14 4 4.6766 0.0000
15 14 7 0.3531 0.0000
15 15 -6 2.4906 0.0000
15 15 -3 -0.4060 0.0000
15 15 0 10.1614 0.0000
15 15 3 -1.8909 0.0000
15 15 6 3.5442 0.0000
15 16 -7 -4.8206 0.0000
15 16 -4 3.1646 0.0000
15 16 -1 -5.5448 0.0000
15 16 2 4.6109 0.0000
15 16 5 -4.7956 0.0000
15 17 -5 -5.7764 0.0000
15 17 -2 6.6822 0.0000
15 17 1 0.3024 0.0000
15 17 4 5.5811 0.0000
15 17 7 -1.9347 0.0000
15 18 -6 4.1645 0.0000
15 18 -3 3.2078 0.0000
15 18 0 12.3674 0.0000
15 18 3 -3.3168 0.0000
15 18 6 0.6086 0.0000
15 19 -4 4.6141 0.0000
15 19 -1 -1.2544 0.0000
15 19 2 4.5479 0.0000
15 19 5 -0.5233 0.0000
15 20 -5 -6.0190 0.0000
15 20 -2 2.1525 0.0000
15 20 1 -0.6475 0.0000
15 20 4 4.9929 0.0000
15 21 -3 2.8927 0.0000
15 21 0 4.6209 0.0000
15 21 3 1.9370 0.0000
15 22 -4 1.9131 0.0000
15 22 -1 2.2895 0.0000
15 22 2 1.0370 0.0000
15 23 -2 4.7343 0.0000
15 23 1 3.4707 0.0000
15 23 4 0.2711 0.0000
15 24 -3 1.9476 0.0000
15 24 0 -3.1517 0.0000
15 24 3 2.9541 0.0000
15 25 -1 2.6325 0.0000
16 1 -9 2.8851 0.0000
16 1 -6 5.8463 0.0000
16 1 -3 -5.9822 0.0000
16 1 0 19.2440 0.0000
16 1 3 -1.6119 0.0000
16 1 6 1.4864 0.0000
16 1 9 -3.1170 0.0000
16 2 -10 -0.5301 0.0000
16 2 -7 -6.8852 0.0000
16 2 -4 1.9986 0.0000
16 2 -1 -7.7654 0.0000
16 2 2 10.9845 0.0000
16 2 5 -2.5652 0.0000
16 2 8 -4.3901 0.0000
16 3 -8 0.8245 0.0000
16 3 -5 -5.8604 0.0000
16 3 -2 17.2633 0.0000
16 3 1 6.7652 0.0000
16 3 4 15.3264 0.0000
16 3 7 -4.9182 0.0000
16 4 -9 2.3239 0.0000
16 4 -6 6.7755 0.0000
16 4 -3 1.8343 0.0000
16 4 0 19.7185 0.0000
16 4 3 -3.3100 0.0000
16 4 6 0.0691 0.0000
16 4 9 2.8814 0.0000
16 5 -7 -5.2278 0.0000
16 5 -4 1.4330 0.0000
16 5 -1 -0.9191 0.0000
16 5 2 5.8003 0.0000
16 5 5 -0.9672 0.0000
16 5 8 -2.5447 0.0000
16 6 -8 -0.0636 0.0000
16 6 -5 -6.2255 0.0000
16 6 -2 6.2377 0.0000
16 6 1 4.3950 0.0000
16 6 4 10.1422 0.0000
16 6 7 -1.8282 0.0000
16 7 -9 4.0135 0.0000
16 7 -6 7.0760 0.0000
16 7 -3 -0.2914 0.0000
16 7 0 12.6893 0.0000
16 7 3 -5.0337 0.0000
16 7 6 -2.2034 0.0000
16 7 9 0.4429 0.0000
16 8 -7 -6.5962 0.0000
16 8 -4 3.3607 0.0000
16 8 -1 4.5777 0.0000
16 8 2 9.6956 0.0000
16 8 5 -2.7070 0.0000
16 8 8 -3.3714 0.0000
16 9 -8 -3.8730 0.0000
16 9 -5 -2.3677 0.0000
16 9 -2 5.7108 0.0000
16 9 1 1.8167 0.0000
16 9 4 3.0757 0.0000
16 9 7 -1.6305 0.0000
16 10 -6 3.8721 0.0000
16 10 -3 -0.0848 0.0000
16 10 0 13.8031 0.0000
16 10 3 0.0092 0.0000
16 10 6 2.5184 0.0000
16 11 -7 -5.3916 0.0000
16 11 -4 3.4992 0.0000
16 11 -1 -0.8334 0.0000
16 11 2 7.7261 0.0000
16 11 5 -5.8278 0.0000
16 11 8 -4.6375 0.0000
16 12 -8 -2.9951 0.0000
16 12 -5 0.8936 0.0000
16 12 -2 8.1464 0.0000
16 12 1 3.0477 0.0000
16 12 4 1.6457 0.0000
16 12 7 -1.6535 0.0000
16 13 -6 1.2897 0.0000
16 13 -3 0.8103 0.0000
16 13 0 12.3648 0.0000
16 13 3 3.8091 0.0000
16 13 6 4.0080 0.0000
16 14 -7 -4.9650 0.0000
16 14 -4 3.1879 0.0000
16 14 -1 -2.4163 0.0000
16 14 2 4.6029 0.0000
16 14 5 -6.2689 0.0000
16 15 -5 -4.6781 0.0000
16 15 -2 9.3509 0.0000
16 15 1 4.4914 0.0000
16 15 4 8.0751 0.0000
16 15 7 -0.1731 0.0000
16 16 -6 3.2284 0.0000
16 16 -3 1.1694 0.0000
16 16 0 11.7390 0.0000
16 16 3 -1.9147 0.0000
16 16 6 2.2187 0.0000
16 17 -4 3.6817 0.0000
16 17 -1 -3.6920 0.0000
16 17 2 6.0971 0.0000
16 17 5 0.2729 0.0000
16 18 -5 -7.3667 0.0000
16 18 -2 2.2439 0.0000
16 18 1 -3.5634 0.0000
16 18 4 3.8356 0.0000
16 19 -3 4.2448 0.0000
16 19 0 11.7525 0.0000
16 19 3 0.1037 0.0000
16 20 -4 2.8995 0.0000
16 20 -1 -0.7930 0.0000
16 20 2 1.3719 0.0000
16 20 5 -1.8907 0.0000
16 21 -2 3.4660 0.0000
16 21 1 0.8587 0.0000
16 21 4 3.1224 0.0000
16 22 -3 0.4651 0.0000
16 22 0 -2.4216 0.0000
16 22 3 2.6767 0.0000
16 23 -1 4.4547 0.0000
16 23 2 3.1281 0.0000
16 24 -2 3.5988 0.0000
16 24 1 0.0104 0.0000
17 1 -8 0.6532 0.0000
17 1 -5 -1.8878 0.0000
17 1 -2 18.1315 0.0000
17 1 1 3.0192 0.0000
17 1 4 12.2921 0.0000
17 1 7 -3.2181 0.0000
17 2 -9 2.3754 0.0000
17 2 -6 9.9857 0.0000
17 2 -3 0.1433 0.0000
17 2 0 18.5059 0.0000
17 2 3 -0.9769 0.0000
17 2 6 2.6634 0.0000
17 2 9 3.9432 0.0000
17 3 -7 -5.3243 0.0000
17 3 -4 4.9357 0.0000
17 3 -1 -11.6333 0.0000
17 3 2 9.2004 0.0000
17 3 5 -3.5439 0.0000
17 3 8 -4.2589 0.0000
17 4 -8 -1.0718 0.0000
17 4 -5 -8.3434 0.0000
17 4 -2 12.0534 0.0000
17 4 1 5.6929 0.0000
17 4 4 12.0270 0.0000
17 4 7 -6.1411 0.0000
17 5 -9 0.6675 0.0000
17 5 -6 6.1015 0.0000
17 5 -3 5.0378 0.0000
17 5 0 17.0054 0.0000
17 5 3 -1.9890 0.0000
17 5 6 -1.3976 0.0000
17 5 9 3.5108 0.0000
17 6 -7 -4.3995 0.0000
17 6 -4 6.4654 0.0000
17 6 -1 1.5318 0.0000
17 6 2 9.5997 0.0000
17 6 5 0.1888 0.0000
17 6 8 -3.9303 0.0000
17 7 -8 -3.6073 0.0000
17 7 -5 -8.2174 0.0000
17 7 -2 5.7076 0.0000
17 7 1 2.2983 0.0000
17 7 4 8.0136 0.0000
17 7 7 -2.1764 0.0000
17 8 -6 4.3790 0.0000
17 8 -3 0.3572 0.0000
17 8 0 12.9043 0.0000
17 8 3 -2.2333 0.0000
17 8 6 0.7885 0.0000
17 9 -7 -4.6901 0.0000
17 9 -4 5.0532 0.0000
17 9 -1 1.1068 0.0000
17 9 2 10.5544 0.0000
17 9 5 -0.9705 0.0000
17 9 8 -5.7340 0.0000
17 10 -8 -4.2521 0.0000
17 10 -5 -4.1042 0.0000
17 10 -2 6.0571 0.0000
17 10 1 -0.3234 0.0000
17 10 4 0.2755 0.0000
17 10 7 -2.3868 0.0000
17 11 -6 0.2976 0.0000
17 11 -3 0.5497 0.0000
17 11 0 15.0746 0.0000
17 11 3 3.2141 0.0000
17 11 6 6.4128 0.0000
17 12 -7 -3.3636 0.0000
17 12 -4 2.5935 0.0000
17 12 -1 -6.0183 0.0000
17 12 2 2.9395 0.0000
17 12 5 -6.6308 0.0000
17 12 8 -4.2312 0.0000
17 13 -5 -3.3899 0.0000
17 13 -2 9.6739 0.0000
17 13 1 4.4907 0.0000
17 13 4 4.9707 0.0000
17 13 7 -0.9444 0.0000
17 14 -6 2.5515 0.0000
17 14 -3 -0.4267 0.0000
17 14 0 8.1582 0.0000
17 14 3 -3.4991 0.0000
17 14 6 2.4196 0.0000
17 15 -4 5.7123 0.0000
17 15 -1 -2.9997 0.0000
17 15 2 6.0487 0.0000
17 15 5 -3.4712 0.0000
17 16 -5 -7.8949 0.0000
17 16 -2 8.3176 0.0000
17 16 1 -0.8883 0.0000
17 16 4 3.4755 0.0000
17 17 -6 3.5032 0.0000
17 17 -3 2.6519 0.0000
17 17 0 13.4720 0.0000
17 17 3 -0.2320 0.0000
17 17 6 0.3481 0.0000
17 18 -4 4.3987 0.0000
17 18 -1 -1.9177 0.0000
17 18 2 4.5167 0.0000
17 18 5 0.0505 0.0000
17 19 -5 -6.2819 0.0000
17 19 -2 4.3274 0.0000
17 19 1 -3.0714 0.0000
17 19 4 3.8044 0.0000
17 20 -3 0.6802 0.0000
17 20 0 5.8903 0.0000
17 20 3 1.6263 0.0000
17 21 -4 2.8851 0.0000
17 21 -1 4.7294 0.0000
17 21 2 3.0217 0.0000
17 22 -2 3.7041 0.0000
17 22 1 -1.1722 0.0000
17 23 0 -2.1272 0.0000
18 1 -7 -7.1591 0.0000
18 1 -4 3.8492 0.0000
18 1 -1 -7.2544 0.0000
18 1 2 10.5756 0.0000
18 1 5 -3.9422 0.0000
18 1 8 -7.5143 0.0000
18 2 -8 -2.2388 0.0000
18 2 -5 -8.0660 0.0000
18 2 -2 13.2731 0.0000
18 2 1 6.3317 0.0000
18 2 4 8.7417 0.0000
18 2 7 -6.0973 0.0000
18 3 -9 -0.3892 0.0000
18 3 -6 10.3476 0.0000
18 3 -3 2.1869 0.0000
18 3 0 18.4201 0.0000
18 3 3 -4.5223 0.0000
18 3 6 4.7430 0.0000
18 3 9 2.6787 0.0000
18 4 -7 -1.9545 0.0000
18 4 -4 4.8686 0.0000
18 4 -1 -5.5771 0.0000
18 4 2 10.1671 0.0000
18 4 5 -1.7232 0.0000
18 4 8 -4.0939 0.0000
18 5 -8 -2.0000 0.0000
18 5 -5 -9.4141 0.0000
18 5 -2 2.7900 0.0000
18 5 1 3.3234 0.0000
18 5 4 5.4888 0.0000
18 5 7 -3.7349 0.0000
18 6 -6 6.0398 0.0000
18 6 -3 3.0574 0.0000
18 6 0 13.3000 0.0000
18 6 3 -2.2986 0.0000
18 6 6 -1.6591 0.0000
18 7 -7 -3.9837 0.0000
18 7 -4 7.9229 0.0000
18 7 -1 5.0042 0.0000
18 7 2 12.8114 0.0000
18 7 5 -0.8598 0.0000
18 7 8 -5.1157 0.0000
18 8 -8 -2.4654 0.0000
18 8 -5 -5.4051 0.0000
18 8 -2 1.9074 0.0000
18 8 1 -1.5877 0.0000
18 8 4 1.9812 0.0000
18 8 7 -2.1160 0.0000
18 9 -6 1.2640 0.0000
18 9 -3 2.6150 0.0000
18 9 0 15.4081 0.0000
18 9 3 4.3931 0.0000
18 9 6 3.1452 0.0000
18 10 -7 -2.3322 0.0000
18 10 -4 3.5303 0.0000
18 10 -1 -1.0708 0.0000
18 10 2 4.8409 0.0000
18 10 5 -4.0601 0.0000
18 10 8 -4.7323 0.0000
18 11 -5 -0.8326 0.0000
18 11 -2 7.3245 0.0000
18 11 1 3.7769 0.0000
18 11 4 5.4520 0.0000
18 11 7 -2.3321 0.0000
18 12 -6 -1.7638 0.0000
18 12 -3 -0.0889 0.0000
18 12 0 12.2803 0.0000
18 12 3 -0.7026 0.0000
18 12 6 3.7020 0.0000
18 13 -7 -1.7303 0.0000
18 13 -4 4.1651 0.0000
18 13 -1 -0.2109 0.0000
18 13 2 4.1914 0.0000
18 13 5 -3.3726 0.0000
18 14 -5 -5.8353 0.0000
18 14 -2 4.9228 0.0000
18 14 1 4.0424 0.0000
18 14 4 7.7092 0.0000
18 14 7 0.9308 0.0000
18 15 -6 1.4538 0.0000
18 15 -3 -1.4861 0.0000
18 15 0 9.6479 0.0000
18 15 3 -3.9541 0.0000
18 15 6 -1.8172 0.0000
18 16 -4 6.7129 0.0000
18 16 -1 -2.1446 0.0000
18 16 2 3.0643 0.0000
18 16 5 2.0505 0.0000
18 17 -5 -7.4107 0.0000
18 17 -2 2.0602 0.0000
18 17 1 -1.3374 0.0000
18 17 4 1.2806 0.0000
18 18 -3 2.4843 0.0000
18 18 0 11.0159 0.0000
18 18 3 0.1619 0.0000
18 19 -4 4.1428 0.0000
18 19 -1 -1.5848 0.0000
18 19 2 1.8554 0.0000
18 19 5 2.2884 0.0000
18 20 -2 3.6626 0.0000
18 20 1 -0.5348 0.0000
18 20 4 1.5037 0.0000
18 21 -3 -0.3757 0.0000
18 21 0 -0.4552 0.0000
18 21 3 1.3618 0.0000
18 22 -1 3.4819 0.0000
18 22 2 4.0797 0.0000
19 1 -9 2.6862 0.0000
19 1 -6 8.4128 0.0000
19 1 -3 0.8779 0.0000
19 1 0 15.0457 0.0000
19 1 3 0.2230 0.0000
19 1 6 6.1644 0.0000
19 1 9 2.1427 0.0000
19 2 -7 -2.6260 0.0000
19 2 -4 4.2933 0.0000
19 2 -1 -5.0453 0.0000
19 2 2 8.6570 0.0000
19 2 5 -0.5375 0.0000
19 2 8 -4.4869 0.0000
19 3 -8 -2.6800 0.0000
19 3 -5 -11.6868 0.0000
19 3 -2 9.8609 0.0000
19 3 1 2.7372 0.0000
19 3 4 9.6611 0.0000
19 3 7 -8.8272 0.0000
19 4 -9 -2.1614 0.0000
19 4 -6 6.4919 0.0000
19 4 -3 2.7786 0.0000
19 4 0 16.3815 0.0000
19 4 3 -4.1124 0.0000
19 4 6 2.5734 0.0000
19 5 -7 -0.8568 0.0000
19 5 -4 6.2620 0.0000
19 5 -1 3.7904 0.0000
19 5 2 8.5541 0.0000
19 5 5 3.1586 0.0000
19 5 8 -6.2996 0.0000
19 6 -8 -0.6074 0.0000
19 6 -5 -9.8340 0.0000
19 6 -2 -1.7289 0.0000
19 6 1 0.5412 0.0000
19 6 4 3.5905 0.0000
19 6 7 -3.2173 0.0000
19 7 -6 4.2294 0.0000
19 7 -3 -0.1847 0.0000
19 7 0 13.4988 0.0000
19 7 3 -3.5087 0.0000
19 7 6 1.7979 0.0000
19 8 -7 -3.4899 0.0000
19 8 -4 6.3686 0.0000
19 8 -1 4.0538 0.0000
19 8 2 8.4578 0.0000
19 8 5 -1.3433 0.0000
19 8 8 -6.6448 0.0000
19 9 -5 -2.6160 0.0000
19 9 -2 0.5897 0.0000
19 9 1 2.5202 0.0000
19 9 4 -0.1394 0.0000
19 9 7 -2.3715 0.0000
19 10 -6 -1.1764 0.0000
19 10 -3 0.6977 0.0000
19 10 0 12.0829 0.0000
19 10 3 0.2759 0.0000
19 10 6 4.2915 0.0000
19 11 -7 -1.7443 0.0000
19 11 -4 3.9479 0.0000
19 11 -1 -0.7701 0.0000
19 11 2 5.5021 0.0000
19 11 5 -7.0089 0.0000
19 12 -5 -1.1558 0.0000
19 12 -2 4.5214 0.0000
19 12 1 4.7510 0.0000
19 12 4 9.0396 0.0000
19 12 7 -1.9298 0.0000
19 13 -6 -0.9547 0.0000
19 13 -3 -0.1863 0.0000
19 13 0 7.0905 0.0000
19 13 3 -4.9965 0.0000
19 13 6 -1.2551 0.0000
19 14 -4 7.3044 0.0000
19 14 -1 4.5121 0.0000
19 14 2 5.4741 0.0000
19 14 5 -0.2536 0.0000
19 15 -5 -6.6183 0.0000
19 15 -2 2.1704 0.0000
19 15 1 2.4484 0.0000
19 15 4 5.6591 0.0000
19 16 -3 1.4088 0.0000
19 16 0 9.9200 0.0000
19 16 3 1.3977 0.0000
19 17 -4 2.9266 0.0000
19 17 -1 -1.1080 0.0000
19 17 2 -0.7308 0.0000
19 17 5 3.2742 0.0000
19 18 -2 3.7050 0.0000
19 18 1 0.8610 0.0000
19 18 4 1.1831 0.0000
19 19 -3 0.1863 0.0000
19 19 0 3.9986 0.0000
19 19 3 1.8633 0.0000
19 20 -1 3.0743 0.0000
19 20 2 0.8093 0.0000
19 21 -2 3.1403 0.0000
19 21 1 -1.4329 0.0000
19 22 0 -1.2293 0.0000
20 1 -8 -3.1491 0.0000
20 1 -5 -5.7739 0.0000
20 1 -2 9.9982 0.0000
20 1 1 2.1042 0.0000
20 1 4 7.1196 0.0000
20 1 7 -7.5902 0.0000
20 2 -9 -1.2938 0.0000
20 2 -6 7.7903 0.0000
20 2 -3 0.1395 0.0000
20 2 0 14.0676 0.0000
20 2 3 -0.0402 0.0000
20 2 6 4.3847 0.0000
20 3 -7 0.3616 0.0000
20 3 -4 7.8987 0.0000
20 3 -1 -4.9423 0.0000
20 3 2 10.3521 0.0000
20 3 5 -0.5005 0.0000
20 3 8 -4.8299 0.0000
20 4 -8 -3.1324 0.0000
20 4 -5 -9.1843 0.0000
20 4 -2 6.2704 0.0000
20 4 1 1.5891 0.0000
20 4 4 6.1975 0.0000
20 4 7 -6.0884 0.0000
20 5 -6 4.4179 0.0000
20 5 -3 1.2335 0.0000
20 5 0 12.2058 0.0000
20 5 3 -0.9439 0.0000
20 5 6 -0.5535 0.0000
20 6 -7 -4.2318 0.0000
20 6 -4 11.3037 0.0000
20 6 -1 5.5968 0.0000
20 6 2 11.5516 0.0000
20 6 5 2.6056 0.0000
20 6 8 -6.5951 0.0000
20 7 -8 0.1594 0.0000
20 7 -5 -8.2673 0.0000
20 7 -2 0.6591 0.0000
20 7 1 -1.2101 0.0000
20 7 4 2.6872 0.0000
20 7 7 -3.1169 0.0000
20 8 -6 1.0027 0.0000
20 8 -3 0.1616 0.0000
20 8 0 12.4606 0.0000
20 8 3 3.6462 0.0000
20 8 6 3.1745 0.0000
20 9 -7 -3.9958 0.0000
20 9 -4 5.4987 0.0000
20 9 -1 0.3726 0.0000
20 9 2 3.6990 0.0000
20 9 5 -3.9924 0.0000
20 10 -5 -2.7041 0.0000
20 10 -2 6.5845 0.0000
20 10 1 3.3826 0.0000
20 10 4 9.5188 0.0000
20 10 7 -3.4043 0.0000
20 11 -6 -1.7742 0.0000
20 11 -3 -4.3958 0.0000
20 11 0 9.0367 0.0000
20 11 3 -6.2381 0.0000
20 11 6 2.9989 0.0000
20 12 -4 6.3761 0.0000
20 12 -1 1.6080 0.0000
20 12 2 5.4602 0.0000
20 12 5 -4.4346 0.0000
20 13 -5 -5.3808 0.0000
20 13 -2 3.0671 0.0000
20 13 1 2.6027 0.0000
20 13 4 9.7458 0.0000
20 14 -3 -3.2197 0.0000
20 14 0 5.2565 0.0000
20 14 3 -5.1795 0.0000
20 14 6 -2.6489 0.0000
20 15 -4 7.2352 0.0000
20 15 -1 2.0188 0.0000
20 15 2 0.4992 0.0000
20 15 5 -0.5690 0.0000
20 16 -5 -3.7972 0.0000
20 16 -2 5.2105 0.0000
20 16 1 2.9392 0.0000
20 16 4 2.1315 0.0000
20 17 -3 -0.4962 0.0000
20 17 0 5.4781 0.0000
20 17 3 3.8497 0.0000
20 18 -4 1.7853 0.0000
20 18 -1 1.8364 0.0000
20 18 2 -1.5870 0.0000
20 19 -2 3.9705 0.0000
20 19 1 -0.5772 0.0000
20 20 0 2.5629 0.0000
21 1 -7 -1.6546 0.0000
21 1 -4 2.8715 0.0000
21 1 -1 -1.3394 0.0000
21 1 2 8.4043 0.0000
21 1 5 -0.0241 0.0000
21 1 8 -3.7644 0.0000
21 2 -8 -3.2707 0.0000
21 2 -5 -7.7655 0.0000
21 2 -2 11.7955 0.0000
21 2 1 1.5471 0.0000
21 2 4 3.7224 0.0000
21 2 7 -6.6647 0.0000
21 3 -6 6.5518 0.0000
21 3 -3 -2.3472 0.0000
21 3 0 12.3090 0.0000
21 3 3 -1.6975 0.0000
21 3 6 3.1381 0.0000
21 4 -7 -1.0319 0.0000
21 4 -4 5.8261 0.0000
21 4 -1 -0.4165 0.0000
21 4 2 11.3123 0.0000
21 4 5 1.6742 0.0000
21 4 8 -5.9316 0.0000
21 5 -8 0.4230 0.0000
21 5 -5 -8.1786 0.0000
21 5 -2 1.7414 0.0000
21 5 1 -0.9240 0.0000
21 5 4 -0.7079 0.0000
21 5 7 -3.4918 0.0000
21 6 -6 4.2631 0.0000
21 6 -3 0.8985 0.0000
21 6 0 11.2002 0.0000
21 6 3 4.1462 0.0000
21 6 6 0.4515 0.0000
21 7 -7 -4.0201 0.0000
21 7 -4 6.5128 0.0000
21 7 -1 1.6656 0.0000
21 7 2 5.7855 0.0000
21 7 5 -2.6973 0.0000
21 8 -5 -2.8823 0.0000
21 8 -2 5.8537 0.0000
21 8 1 2.2375 0.0000
21 8 4 4.6543 0.0000
21 8 7 -3.0802 0.0000
21 9 -6 -0.6115 0.0000
21 9 -3 -3.5466 0.0000
21 9 0 9.8401 0.0000
21 9 3 1.9210 0.0000
21 9 6 2.5535 0.0000
21 10 -4 6.0679 0.0000
21 10 -1 0.1475 0.0000
21 10 2 4.7196 0.0000
21 10 5 -7.3318 0.0000
21 11 -5 -1.4676 0.0000
21 11 -2 9.2870 0.0000
21 11 1 1.6642 0.0000
21 11 4 13.7905 0.0000
21 12 -6 -0.9043 0.0000
21 12 -3 -7.4271 0.0000
21 12 0 8.8358 0.0000
21 12 3 -5.6736 0.0000
21 12 6 -1.5711 0.0000
21 13 -4 8.9653 0.0000
21 13 -1 4.2426 0.0000
21 13 2 3.8486 0.0000
21 13 5 -1.9488 0.0000
21 14 -5 -6.7595 0.0000
21 14 -2 4.1032 0.0000
21 14 1 2.8365 0.0000
21 14 4 7.8218 0.0000
21 15 -3 -5.3650 0.0000
21 15 0 6.2987 0.0000
21 15 3 1.5647 0.0000
21 16 -4 3.8844 0.0000
21 16 -1 -0.8214 0.0000
21 16 2 -4.5427 0.0000
21 17 -2 5.4080 0.0000
21 17 1 2.8835 0.0000
21 17 4 -0.6391 0.0000
21 18 -3 -1.4918 0.0000
21 18 0 4.8056 0.0000
21 18 3 4.5902 0.0000
21 19 -1 -0.9719 0.0000
21 19 2 -2.6647 0.0000
22 1 -6 4.6088 0.0000
22 1 -3 1.3533 0.0000
22 1 0 8.1274 0.0000
22 1 3 2.5807 0.0000
22 1 6 2.5638 0.0000
22 2 -7 -0.7561 0.0000
22 2 -4 2.4967 0.0000
22 2 -1 -1.1524 0.0000
22 2 2 8.9416 0.0000
22 2 5 0.7701 0.0000
22 2 8 -4.5742 0.0000
22 3 -8 -0.9128 0.0000
22 3 -5 -8.3395 0.0000
22 3 -2 10.9002 0.0000
22 3 1 -1.1459 0.0000
22 3 4 5.5875 0.0000
22 3 7 -6.1523 0.0000
22 4 -6 4.4864 0.0000
22 4 -3 3.6697 0.0000
22 4 0 10.5941 0.0000
22 4 3 0.1870 0.0000
22 4 6 1.7141 0.0000
22 5 -7 -2.8310 0.0000
22 5 -4 2.2139 0.0000
22 5 -1 2.0069 0.0000
22 5 2 6.9374 0.0000
22 5 5 3.1699 0.0000
22 6 -5 -6.8003 0.0000
22 6 -2 0.6981 0.0000
22 6 1 1.6966 0.0000
22 6 4 0.2305 0.0000
22 6 7 -3.8090 0.0000
22 7 -6 2.1249 0.0000
22 7 -3 2.8430 0.0000
22 7 0 9.3551 0.0000
22 7 3 2.9813 0.0000
22 7 6 2.7858 0.0000
22 8 -7 -2.3196 0.0000
22 8 -4 1.3429 0.0000
22 8 -1 -0.7948 0.0000
22 8 2 3.4644 0.0000
22 8 5 -6.2158 0.0000
22 9 -5 0.3566 0.0000
22 9 -2 6.4681 0.0000
22 9 1 2.8205 0.0000
22 9 4 8.0361 0.0000
22 10 -6 -3.1284 0.0000
22 10 -3 -5.2188 0.0000
22 10 0 8.6601 0.0000
22 10 3 -3.4746 0.0000
22 10 6 1.0383 0.0000
22 11 -4 5.7008 0.0000
22 11 -1 -1.0197 0.0000
22 11 2 7.2043 0.0000
22 11 5 -6.1025 0.0000
22 12 -5 -2.2561 0.0000
22 12 -2 6.0689 0.0000
22 12 1 -0.2884 0.0000
22 12 4 8.5903 0.0000
22 13 -3 -3.3092 0.0000
22 13 0 5.9303 0.0000
22 13 3 -0.7223 0.0000
22 14 -4 4.2763 0.0000
22 14 -1 1.2389 0.0000
22 14 2 0.8346 0.0000
22 14 5 -1.2920 0.0000
22 15 -2 8.5182 0.0000
22 15 1 3.5773 0.0000
22 15 4 0.6437 0.0000
22 16 -3 -3.3830 0.0000
22 16 0 3.4612 0.0000
22 16 3 8.6527 0.0000
22 17 -1 -0.3217 0.0000
22 17 2 -4.3849 0.0000
22 18 -2 5.5946 0.0000
22 18 1 -0.8778 0.0000
22 19 0 4.7798 0.0000
23 1 -8 -2.0869 0.0000
23 1 -5 -3.2298 0.0000
23 1 -2 10.5505 0.0000
23 1 1 1.0729 0.0000
23 1 4 6.0135 0.0000
23 1 7 -2.8374 0.0000
23 2 -6 4.2186 0.0000
23 2 -3 1.1850 0.0000
23 2 0 6.4591 0.0000
23 2 3 0.8198 0.0000
23 2 6 2.7475 0.0000
23 3 -7 -1.8755 0.0000
23 3 -4 4.0492 0.0000
23 3 -1 -4.2944 0.0000
23 3 2 12.8310 0.0000
23 3 5 -1.9533 0.0000
23 4 -8 0.1352 0.0000
23 4 -5 -6.6565 0.0000
23 4 -2 3.5662 0.0000
23 4 1 0.4028 0.0000
23 4 4 1.2252 0.0000
23 4 7 -3.9297 0.0000
23 5 -6 3.1930 0.0000
23 5 -3 11.4674 0.0000
23 5 0 7.6075 0.0000
23 5 3 6.9551 0.0000
23 5 6 0.6712 0.0000
23 6 -7 -4.5391 0.0000
23 6 -4 1.4644 0.0000
23 6 -1 -0.6681 0.0000
23 6 2 5.7126 0.0000
23 6 5 -3.7900 0.0000
23 7 -5 -4.0746 0.0000
23 7 -2 3.0655 0.0000
23 7 1 1.5090 0.0000
23 7 4 8.3238 0.0000
23 7 7 -3.7241 0.0000
23 8 -6 -1.8637 0.0000
23 8 -3 3.0432 0.0000
23 8 0 8.6243 0.0000
23 8 3 2.2369 0.0000
23 8 6 1.7627 0.0000
23 9 -4 2.3574 0.0000
23 9 -1 -1.6480 0.0000
23 9 2 4.7436 0.0000
23 9 5 -6.1078 0.0000
23 10 -5 -0.6915 0.0000
23 10 -2 7.0172 0.0000
23 10 1 -1.2840 0.0000
23 10 4 10.9405 0.0000
23 11 -3 -3.9114 0.0000
23 11 0 9.4671 0.0000
23 11 3 -4.5589 0.0000
23 11 6 0.0886 0.0000
23 12 -4 2.2277 0.0000
23 12 -1 -1.0376 0.0000
23 12 2 6.4874 0.0000
23 12 5 -2.2652 0.0000
23 13 -2 5.0142 0.0000
23 13 1 0.1825 0.0000
23 13 4 2.2302 0.0000
23 14 -3 -2.6600 0.0000
23 14 0 1.7509 0.0000
23 14 3 2.7765 0.0000
23 15 -1 0.9413 0.0000
23 15 2 -0.8020 0.0000
23 16 -2 5.2558 0.0000
23 16 1 0.3857 0.0000
23 17 0 5.0801 0.0000
24 1 -7 -0.9790 0.0000
24 1 -4 2.7375 0.0000
24 1 -1 -0.1714 0.0000
24 1 2 8.1760 0.0000
24 1 5 -2.9006 0.0000
24 1 8 -6.2938 0.0000
24 2 -8 0.3748 0.0000
24 2 -5 -5.7311 0.0000
24 2 -2 8.9189 0.0000
24 2 1 1.4603 0.0000
24 2 4 1.1177 0.0000
24 2 7 -3.3123 0.0000
24 3 -6 1.4662 0.0000
24 3 -3 6.4249 0.0000
24 3 0 7.2256 0.0000
24 3 3 3.6796 0.0000
24 3 6 4.1930 0.0000
24 4 -7 -1.4397 0.0000
24 4 -4 -0.2168 0.0000
24 4 -1 -3.8657 0.0000
24 4 2 6.5150 0.0000
24 4 5 -2.5095 0.0000
24 5 -5 -6.0608 0.0000
24 5 -2 -0.6606 0.0000
24 5 1 2.8308 0.0000
24 5 4 1.1196 0.0000
24 5 7 -2.7690 0.0000
24 6 -6 2.1753 0.0000
24 6 -3 8.9322 0.0000
24 6 0 7.0359 0.0000
24 6 3 4.7618 0.0000
24 6 6 1.8338 0.0000
24 7 -4 2.0059 0.0000
24 7 -1 -1.7863 0.0000
24 7 2 4.1864 0.0000
24 7 5 -8.1664 0.0000
24 8 -5 -0.7961 0.0000
24 8 -2 3.6157 0.0000
24 8 1 0.4250 0.0000
24 8 4 8.7863 0.0000
24 9 -3 -2.0882 0.0000
24 9 0 9.8788 0.0000
24 9 3 -0.3878 0.0000
24 9 6 -0.7171 0.0000
24 10 -4 6.1269 0.0000
24 10 -1 -2.5392 0.0000
24 10 2 8.4167 0.0000
24 10 5 -4.5377 0.0000
24 11 -2 6.5721 0.0000
24 11 1 -3.4717 0.0000
24 11 4 6.0613 0.0000
24 12 -3 -1.9738 0.0000
24 12 0 7.1408 0.0000
24 12 3 -0.7596 0.0000
24 13 -4 0.8386 0.0000
24 13 -1 2.1065 0.0000
24 13 2 5.9089 0.0000
24 14 -2 3.6145 0.0000
24 14 1 0.1789 0.0000
24 14 4 -2.1436 0.0000
24 15 -3 -1.0318 0.0000
24 15 0 3.5054 0.0000
24 15 3 5.5121 0.0000
24 16 -1 -1.1279 0.0000
24 16 2 -2.0365 0.0000
25 1 -6 -2.0183 0.0000
25 1 -3 2.4026 0.0000
25 1 0 2.0197 0.0000
25 1 3 5.1380 0.0000
25 1 6 3.5097 0.0000
25 2 -7 -2.2634 0.0000
25 2 -4 4.3199 0.0000
25 2 -1 -1.0430 0.0000
25 2 2 6.0477 0.0000
25 2 5 -0.6972 0.0000
25 3 -5 -4.5735 0.0000
25 3 -2 3.7170 0.0000
25 3 1 2.5941 0.0000
25 3 4 1.3373 0.0000
25 3 7 -5.0380 0.0000
25 4 -6 -0.2907 0.0000
25 4 -3 11.4802 0.0000
25 4 0 5.7893 0.0000
25 4 3 5.5835 0.0000
25 4 6 3.1546 0.0000
25 5 -7 -2.7759 0.0000
25 5 -4 -0.5533 0.0000
25 5 -1 0.4495 0.0000
25 5 2 3.0625 0.0000
25 5 5 -3.6495 0.0000
25 6 -5 -2.2870 0.0000
25 6 -2 -3.0113 0.0000
25 6 1 2.3529 0.0000
25 6 4 6.0065 0.0000
25 7 -6 -2.9232 0.0000
25 7 -3 3.4402 0.0000
25 7 0 8.6621 0.0000
25 7 3 1.7521 0.0000
25 7 6 0.8878 0.0000
25 8 -4 5.2026 0.0000
25 8 -1 -2.3021 0.0000
25 8 2 4.2280 0.0000
25 8 5 -4.9642 0.0000
25 9 -5 -1.0428 0.0000
25 9 -2 2.3665 0.0000
25 9 1 -0.7798 0.0000
25 9 4 4.8402 0.0000
25 10 -3 -3.1308 0.0000
25 10 0 8.7887 0.0000
25 10 3 -1.7002 0.0000
25 11 -4 2.5400 0.0000
25 11 -1 -3.8079 0.0000
25 11 2 9.4686 0.0000
25 11 5 -0.9362 0.0000
25 12 -2 4.7928 0.0000
25 12 1 -1.7952 0.0000
25 12 4 -1.2719 0.0000
25 13 -3 -1.2391 0.0000
25 13 0 0.6109 0.0000
25 13 3 1.5213 0.0000
25 14 -1 2.3967 0.0000
25 14 2 4.5258 0.0000
25 15 -2 2.5205 0.0000
25 15 1 0.2011 0.0000
26 1 -5 0.1259 0.0000
26 1 -2 4.3690 0.0000
26 1 1 4.4214 0.0000
26 1 4 0.8570 0.0000
26 1 7 -3.2092 0.0000
26 2 -6 -0.9548 0.0000
26 2 -3 3.2147 0.0000
26 2 0 1.6846 0.0000
26 2 3 5.1491 0.0000
26 2 6 3.6710 0.0000
26 3 -7 -3.3961 0.0000
26 3 -4 2.7780 0.0000
26 3 -1 -1.6638 0.0000
26 3 2 8.1454 0.0000
26 3 5 -5.4378 0.0000
26 4 -5 0.4769 0.0000
26 4 -2 -1.4639 0.0000
26 4 1 1.1252 0.0000
26 4 4 5.0374 0.0000
26 5 -6 -2.3444 0.0000
26 5 -3 9.5586 0.0000
26 5 0 4.7817 0.0000
26 5 3 5.5353 0.0000
26 5 6 0.5882 0.0000
26 6 -4 2.5148 0.0000
26 6 -1 1.9130 0.0000
26 6 2 3.6780 0.0000
26 6 5 -6.1008 0.0000
26 7 -5 0.7611 0.0000
26 7 -2 -1.0101 0.0000
26 7 1 -0.2094 0.0000
26 7 4 9.0650 0.0000
26 8 -3 -0.2182 0.0000
26 8 0 8.0288 0.0000
26 8 3 1.2098 0.0000
26 9 -4 3.5733 0.0000
26 9 -1 -1.6611 0.0000
26 9 2 5.6224 0.0000
26 9 5 -1.1449 0.0000
26 10 -2 5.2191 0.0000
26 10 1 -1.4315 0.0000
26 10 4 2.1875 0.0000
26 11 -3 -3.9432 0.0000
26 11 0 3.4541 0.0000
26 11 3 -1.5947 0.0000
26 12 -1 3.0816 0.0000
26 12 2 8.3093 0.0000
26 13 -2 -0.5603 0.0000
26 13 1 -1.4296 0.0000
26 14 0 1.1804 0.0000
27 1 -7 -3.4772 0.0000
27 1 -4 4.9133 0.0000
27 1 -1 1.3545 0.0000
27 1 2 4.4679 0.0000
27 1 5 -2.7244 0.0000
27 2 -5 -1.0210 0.0000
27 2 -2 6.8446 0.0000
27 2 1 1.5634 0.0000
27 2 4 3.5768 0.0000
27 3 -6 -0.7907 0.0000
27 3 -3 2.2641 0.0000
27 3 0 3.7912 0.0000
27 3 3 2.5688 0.0000
27 3 6 3.4813 0.0000
27 4 -4 -1.5890 0.0000
27 4 -1 0.9733 0.0000
27 4 2 4.9782 0.0000
27 4 5 -6.3116 0.0000
27 5 -5 3.1340 0.0000
27 5 -2 -1.4182 0.0000
27 5 1 -0.5012 0.0000
27 5 4 7.2736 0.0000
27 6 -3 0.5412 0.0000
27 6 0 5.9171 0.0000
27 6 3 0.9200 0.0000
27 7 -4 4.1044 0.0000
27 7 -1 -0.2825 0.0000
27 7 2 4.4878 0.0000
27 7 5 -4.5701 0.0000
27 8 -2 3.2941 0.0000
27 8 1 0.2684 0.0000
27 8 4 3.6072 0.0000
27 9 -3 -4.3144 0.0000
27 9 0 3.4387 0.0000
27 9 3 0.8032 0.0000
27 10 -1 0.7223 0.0000
27 10 2 8.2450 0.0000
27 11 -2 4.1223 0.0000
27 11 1 -2.6185 0.0000
27 12 0 1.0668 0.0000
27 13 -1 4.8192 0.0000
28 1 -6 0.7491 0.0000
28 1 -3 -1.7106 0.0000
28 1 0 0.5748 0.0000
28 1 3 6.3377 0.0000
28 1 6 1.8458 0.0000
28 2 -4 2.1384 0.0000
28 2 -1 0.7972 0.0000
28 2 2 4.5118 0.0000
28 2 5 -4.3853 0.0000
28 3 -5 2.9343 0.0000
28 3 1 -2.4656 0.0000
28 3 4 6.7721 0.0000
28 4 -3 1.1436 0.0000
28 4 0 6.3460 0.0000
28 4 3 3.6328 0.0000
28 4 6 -0.0574 0.0000
28 5 -4 0.9473 0.0000
28 5 2 3.1807 0.0000
28 5 5 -3.6472 0.0000
28 6 -5 0.4582 0.0000
28 6 -2 2.0791 0.0000
28 6 1 0.0987 0.0000
28 6 4 5.8365 0.0000
28 7 -3 -2.8055 0.0000
28 7 0 4.8596 0.0000
28 7 3 1.6008 0.0000
28 8 -4 1.0024 0.0000
28 8 -1 -3.3879 0.0000
28 8 2 3.7580 0.0000
28 9 -2 7.9394 0.0000
28 9 1 1.7686 0.0000
28 10 -3 -7.2339 0.0000
28 10 0 -0.3262 0.0000
28 11 -1 1.2461 0.0000
29 1 -5 -0.3817 0.0000
29 1 1 -1.3420 0.0000
29 1 4 2.6124 0.0000
29 2 -6 0.7315 0.0000
29 2 -3 -0.6998 0.0000
29 2 0 3.7413 0.0000
29 2 3 6.1391 0.0000
29 2 6 0.9668 0.0000
29 3 -4 0.0940 0.0000
29 3 -1 -0.5758 0.0000
29 3 2 6.2434 0.0000
29 3 5 -5.5533 0.0000
29 4 -5 2.3815 0.0000
29 4 -2 3.1979 0.0000
29 4 1 -4.6409 0.0000
29 4 4 5.9383 0.0000
29 5 -3 2.2033 0.0000
29 5 0 5.3670 0.0000
29 5 3 3.7687 0.0000
29 6 -4 -0.4189 0.0000
29 6 -1 -2.8199 0.0000
29 6 2 3.4504 0.0000
29 7 -2 8.6198 0.0000
29 7 1 1.7965 0.0000
29 7 4 1.8381 0.0000
29 8 -3 -5.2360 0.0000
29 8 0 -0.4510 0.0000
29 9 -1 -0.5336 0.0000
30 1 -4 0.8100 0.0000
30 1 -1 3.7377 0.0000
30 1 2 5.7122 0.0000
30 1 5 -3.5193 0.0000
30 2 -5 -0.4709 0.0000
30 2 -2 4.1244 0.0000
30 2 1 -7.8170 0.0000
30 2 4 4.9545 0.0000
30 3 -3 0.3045 0.0000
30 3 0 7.7890 0.0000
30 3 3 1.0764 0.0000
30 4 -4 -1.6009 0.0000
30 4 -1 -1.8361 0.0000
30 4 2 6.8982 0.0000
30 5 -2 2.6655 0.0000
30 5 1 -2.2827 0.0000
30 5 4 1.6116 0.0000
30 6 -3 1.0037 0.0000
30 6 0 1.3299 0.0000
30 6 3 1.3132 0.0000
30 7 -1 -3.3154 0.0000
30 8 -2 7.6661 0.0000
30 8 1 1.0366 0.0000
31 1 -3 -0.1363 0.0000
31 1 0 6.1863 0.0000
31 1 3 4.0347 0.0000
31 2 -4 4.0306 0.0000
31 2 -1 1.8187 0.0000
31 2 2 7.8236 0.0000
31 3 -2 0.9353 0.0000
31 3 4 3.6278 0.0000
31 4 -3 4.6334 0.0000
31 4 0 6.4383 0.0000
31 4 3 0.5752 0.0000
31 5 -1 -2.8428 0.0000
31 5 2 6.2480 0.0000
31 6 -2 5.1377 0.0000
31 6 1 0.8637 0.0000
31 7 0 -0.8310 0.0000
32 1 -2 -3.1183 0.0000
32 1 1 -7.9133 0.0000
32 1 4 1.6718 0.0000
32 2 -3 1.4773 0.0000
32 2 0 5.9796 0.0000
32 2 3 1.7642 0.0000
32 3 -1 -0.5873 0.0000
32 3 2 7.1852 0.0000
32 4 -2 1.3459 0.0000
32 4 1 -2.9561 0.0000
32 5 0 -0.2977 0.0000
32 6 -1 -0.5901 0.0000
33 1 -1 7.5139 0.0000
33 2 -2 -2.9327 0.0000
33 2 1 -4.3699 0.0000
33 3 0 2.0041 0.0000
33 4 -1 1.1583 0.0000
34 1 0 1.3300 0.0000
34 2 -1 3.7614 0.0000
;
_olex2_submission_special_instructions 'No special instructions were received'
loop_
_space_group_symop_operation_xyz
'x, y, z'
'-y, x-y, z'
'-x+y, -x, z'
'x+2/3, y+1/3, z+1/3'
'-y+2/3, x-y+1/3, z+1/3'
'-x+y+2/3, -x+1/3, z+1/3'
'x+1/3, y+2/3, z+2/3'
'-y+1/3, x-y+2/3, z+2/3'
'-x+y+1/3, -x+2/3, z+2/3'
'-x, -y, -z'
'y, -x+y, -z'
'x-y, x, -z'
'-x+2/3, -y+1/3, -z+1/3'
'y+2/3, -x+y+1/3, -z+1/3'
'x-y+2/3, x+1/3, -z+1/3'
'-x+1/3, -y+2/3, -z+2/3'
'y+1/3, -x+y+2/3, -z+2/3'
'x-y+1/3, x+2/3, -z+2/3'
loop_
_atom_site_label
_atom_site_type_symbol
_atom_site_fract_x
_atom_site_fract_y
_atom_site_fract_z
_atom_site_U_iso_or_equiv
_atom_site_adp_type
_atom_site_occupancy
_atom_site_site_symmetry_order
_atom_site_calc_flag
_atom_site_refinement_flags_posn
_atom_site_refinement_flags_adp
_atom_site_refinement_flags_occupancy
Co1 Co 0.3333 0.1667 0.1667 0.0221(3) Uani 1 2 d S T P
N3 N 0.53449(15) 0.53366(14) 0.6891(5) 0.0390(10) Uani 1 1 d . . .
N2 N 0.49885(14) 0.44077(14) 0.5748(5) 0.0373(10) Uani 1 1 d . . .
N1 N 0.37701(17) 0.24264(15) 0.2580(6) 0.0434(11) Uani 1 1 d . . .
C10 C 0.51550(17) 0.43445(17) 0.7024(6) 0.0365(11) Uani 1 1 d . . .
C7 C 0.47449(18) 0.39720(17) 0.5103(6) 0.0365(11) Uani 1 1 d . . .
C8 C 0.4771(2) 0.36330(19) 0.6014(7) 0.0447(13) Uani 1 1 d . . .
H8 H 0.4635 0.3308 0.5820 0.054 Uiso 1 1 calc R . .
C11 C 0.54071(18) 0.46996(18) 0.8068(6) 0.0394(12) Uani 1 1 d . . .
C9 C 0.50257(19) 0.38609(18) 0.7199(7) 0.0434(13) Uani 1 1 d . . .
H9 H 0.5104 0.3728 0.7993 0.052 Uiso 1 1 calc R . .
C3 C 0.42396(19) 0.33673(17) 0.3324(6) 0.0416(13) Uani 1 1 d . . .
C12 C 0.54999(18) 0.51601(18) 0.7972(6) 0.0406(12) Uani 1 1 d . . .
C16 C 0.5593(2) 0.45674(19) 0.9332(7) 0.0450(13) Uani 1 1 d . . .
C15 C 0.55478(17) 0.58090(17) 0.7136(6) 0.0369(12) Uani 1 1 d . . .
C14 C 0.5835(2) 0.59341(19) 0.8429(7) 0.0472(14) Uani 1 1 d . . .
H14 H 0.6012 0.6237 0.8844 0.057 Uiso 1 1 calc R . .
C6 C 0.44987(18) 0.38768(17) 0.3781(6) 0.0391(12) Uani 1 1 d . . .
C13 C 0.5804(2) 0.55352(19) 0.8929(7) 0.0482(14) Uani 1 1 d . . .
H13 H 0.5956 0.5507 0.9768 0.058 Uiso 1 1 calc R . .
C2 C 0.4413(2) 0.32029(19) 0.2257(7) 0.0506(15) Uani 1 1 d . . .
H2 H 0.4695 0.3409 0.1764 0.061 Uiso 1 1 calc R . .
C5 C 0.3604(2) 0.25895(18) 0.3603(7) 0.0482(14) Uani 1 1 d . . .
H5 H 0.3320 0.2377 0.4077 0.058 Uiso 1 1 calc R . .
C21 C 0.5440(2) 0.4572(2) 1.0734(7) 0.0530(15) Uani 1 1 d . . .
H21 H 0.5216 0.4669 1.0891 0.064 Uiso 1 1 calc R . .
C19 C 0.5939(3) 0.4301(2) 1.1715(9) 0.0641(19) Uani 1 1 d . . .
C1 C 0.4169(2) 0.27325(19) 0.1918(7) 0.0497(15) Uani 1 1 d . . .
H1 H 0.4290 0.2621 0.1179 0.060 Uiso 1 1 calc R . .
C18 C 0.6099(3) 0.4303(3) 1.0315(10) 0.071(2) Uani 1 1 d . . .
H18 H 0.6328 0.4213 1.0167 0.085 Uiso 1 1 calc R . .
O2 O 0.5979(4) 0.4192(3) 1.4274(9) 0.128(3) Uani 1 1 d . . .
C4 C 0.3826(2) 0.3052(2) 0.4004(7) 0.0495(15) Uani 1 1 d . . .
H4 H 0.3697 0.3155 0.4742 0.059 Uiso 1 1 calc R . .
C17 C 0.5933(2) 0.4434(2) 0.9139(8) 0.0588(17) Uani 1 1 d . . .
H17 H 0.6048 0.4434 0.8190 0.071 Uiso 1 1 calc R . .
C20 C 0.5611(2) 0.4437(2) 1.1922(8) 0.0602(17) Uani 1 1 d . . .
H20 H 0.5501 0.4440 1.2875 0.072 Uiso 1 1 calc R . .
O1 O 0.6407(3) 0.4024(4) 1.2779(12) 0.162(4) Uani 1 1 d . . .
C22 C 0.6132(4) 0.4175(4) 1.2991(15) 0.106(4) Uani 1 1 d . . .
loop_
_atom_site_aniso_label
_atom_site_aniso_U_11
_atom_site_aniso_U_22
_atom_site_aniso_U_33
_atom_site_aniso_U_23
_atom_site_aniso_U_13
_atom_site_aniso_U_12
Co1 0.0223(5) 0.0189(5) 0.0319(5) -0.0012(4) -0.0033(4) 0.0155(4)
N3 0.029(2) 0.028(2) 0.056(3) 0.0031(19) 0.0012(19) 0.0120(18)
N2 0.027(2) 0.026(2) 0.055(3) -0.0067(19) -0.0030(19) 0.0101(17)
N1 0.043(3) 0.026(2) 0.059(3) -0.006(2) -0.004(2) 0.016(2)
C10 0.031(3) 0.027(2) 0.050(3) 0.000(2) -0.003(2) 0.014(2)
C7 0.032(3) 0.023(2) 0.050(3) -0.003(2) 0.000(2) 0.010(2)
C8 0.042(3) 0.026(3) 0.063(4) 0.001(2) -0.003(3) 0.015(2)
C11 0.033(3) 0.028(3) 0.054(3) -0.001(2) 0.001(2) 0.013(2)
C9 0.038(3) 0.031(3) 0.058(4) 0.004(2) -0.002(2) 0.014(2)
C3 0.044(3) 0.024(3) 0.056(3) -0.003(2) -0.004(3) 0.017(2)
C12 0.031(3) 0.033(3) 0.052(3) 0.000(2) -0.001(2) 0.012(2)
C16 0.040(3) 0.033(3) 0.057(4) -0.004(2) -0.005(3) 0.015(2)
C15 0.030(3) 0.024(2) 0.052(3) -0.006(2) -0.002(2) 0.009(2)
C14 0.042(3) 0.026(3) 0.066(4) -0.008(2) -0.008(3) 0.011(2)
C6 0.034(3) 0.025(2) 0.052(3) -0.003(2) 0.001(2) 0.010(2)
C13 0.046(3) 0.032(3) 0.060(4) -0.007(2) -0.014(3) 0.015(3)
C2 0.044(3) 0.032(3) 0.065(4) -0.005(3) 0.005(3) 0.011(3)
C5 0.051(3) 0.024(3) 0.059(4) -0.005(2) 0.004(3) 0.011(2)
C21 0.056(4) 0.041(3) 0.059(4) -0.002(3) -0.002(3) 0.022(3)
C19 0.058(4) 0.048(4) 0.085(6) 0.008(3) -0.015(4) 0.025(3)
C1 0.049(3) 0.031(3) 0.068(4) -0.010(3) 0.001(3) 0.018(3)
C18 0.063(4) 0.059(4) 0.101(6) 0.003(4) -0.013(4) 0.039(4)
O2 0.199(9) 0.115(6) 0.080(5) 0.004(4) -0.025(5) 0.087(6)
C4 0.048(3) 0.035(3) 0.057(4) -0.009(3) 0.004(3) 0.015(3)
C17 0.054(4) 0.057(4) 0.072(5) 0.001(3) -0.004(3) 0.034(3)
C20 0.058(4) 0.050(4) 0.063(4) 0.002(3) -0.008(3) 0.019(3)
O1 0.113(6) 0.206(10) 0.196(10) 0.105(8) 0.008(6) 0.100(7)
C22 0.075(6) 0.081(7) 0.150(11) 0.037(7) -0.026(7) 0.031(5)
loop_
_atom_type_symbol
_atom_type_description
_atom_type_scat_dispersion_real
_atom_type_scat_dispersion_imag
_atom_type_scat_source
C C 0.0181 0.0091 'International Tables Vol C Tables 4.2.6.8 and 6.1.1.4'
H H 0.0000 0.0000 'International Tables Vol C Tables 4.2.6.8 and 6.1.1.4'
Co Co -2.3653 3.6143 'International Tables Vol C Tables 4.2.6.8 and 6.1.1.4'
N N 0.0311 0.0180 'International Tables Vol C Tables 4.2.6.8 and 6.1.1.4'
O O 0.0492 0.0322 'International Tables Vol C Tables 4.2.6.8 and 6.1.1.4'
loop_
_geom_angle_atom_site_label_1
_geom_angle_atom_site_label_2
_geom_angle_atom_site_label_3
_geom_angle
_geom_angle_site_symmetry_1
_geom_angle_site_symmetry_3
N3 Co1 N3 180.0 18_545 9_554
N3 Co1 N1 83.03(17) 9_554 13
N3 Co1 N1 96.97(17) 9_554 .
N3 Co1 N1 96.97(17) 18_545 13
N3 Co1 N1 83.03(17) 18_545 .
N2 Co1 N3 88.53(17) 18_545 18_545
N2 Co1 N3 88.53(17) 9_554 9_554
N2 Co1 N3 91.48(17) 9_554 18_545
N2 Co1 N3 91.47(17) 18_545 9_554
N2 Co1 N2 180.0 9_554 18_545
N2 Co1 N1 86.62(17) 9_554 .
N2 Co1 N1 93.38(17) 18_545 .
N2 Co1 N1 93.38(17) 9_554 13
N2 Co1 N1 86.62(17) 18_545 13
N1 Co1 N1 180.0 . 13
C12 N3 Co1 126.9(4) . 5
C12 N3 C15 106.8(5) . .
C15 N3 Co1 124.9(4) . 5
C10 N2 Co1 128.3(3) . 5
C10 N2 C7 106.3(4) . .
C7 N2 Co1 124.9(4) . 5
C5 N1 Co1 122.0(4) . .
C5 N1 C1 117.6(5) . .
C1 N1 Co1 119.6(4) . .
N2 C10 C11 125.0(5) . .
N2 C10 C9 110.4(5) . .
C11 C10 C9 124.6(5) . .
N2 C7 C8 109.4(5) . .
N2 C7 C6 125.0(5) . .
C6 C7 C8 125.7(5) . .
C9 C8 C7 107.4(5) . .
C10 C11 C16 116.5(5) . .
C12 C11 C10 125.2(5) . .
C12 C11 C16 118.3(5) . .
C8 C9 C10 106.5(5) . .
C2 C3 C6 121.3(5) . .
C2 C3 C4 118.2(5) . .
C4 C3 C6 120.4(5) . .
N3 C12 C11 125.6(5) . .
N3 C12 C13 108.9(5) . .
C11 C12 C13 125.3(5) . .
C21 C16 C11 121.3(6) . .
C21 C16 C17 118.2(6) . .
C17 C16 C11 120.5(6) . .
N3 C15 C14 109.7(5) . .
N3 C15 C6 124.7(5) . 10_666
C6 C15 C14 125.5(5) 10_666 .
C13 C14 C15 106.3(5) . .
C7 C6 C3 115.4(5) . .
C15 C6 C7 128.2(5) 10_666 .
C15 C6 C3 116.4(5) 10_666 .
C14 C13 C12 108.2(5) . .
C3 C2 C1 118.7(6) . .
N1 C5 C4 122.7(6) . .
C16 C21 C20 120.8(6) . .
C18 C19 C22 121.1(9) . .
C20 C19 C18 119.0(7) . .
C20 C19 C22 119.9(9) . .
N1 C1 C2 123.2(6) . .
C17 C18 C19 121.2(7) . .
C5 C4 C3 119.5(6) . .
C18 C17 C16 120.4(7) . .
C19 C20 C21 120.4(7) . .
O2 C22 C19 118.4(10) . .
O1 C22 C19 119.1(13) . .
O1 C22 O2 122.3(10) . .
loop_
_geom_bond_atom_site_label_1
_geom_bond_atom_site_label_2
_geom_bond_distance
_geom_bond_site_symmetry_2
Co1 N3 2.069(5) 9_554
Co1 N3 2.069(5) 18_545
Co1 N2 2.056(4) 9_554
Co1 N2 2.056(4) 18_545
Co1 N1 2.337(4) .
Co1 N1 2.336(4) 13
N3 Co1 2.069(5) 5
N3 C12 1.374(7) .
N3 C15 1.374(6) .
N2 Co1 2.056(4) 5
N2 C10 1.354(7) .
N2 C7 1.382(6) .
N1 C5 1.331(7) .
N1 C1 1.339(8) .
C10 C11 1.418(7) .
C10 C9 1.441(7) .
C7 C8 1.435(8) .
C7 C6 1.406(8) .
C8 C9 1.351(8) .
C11 C12 1.396(7) .
C11 C16 1.477(8) .
C3 C6 1.517(7) .
C3 C2 1.375(8) .
C3 C4 1.385(8) .
C12 C13 1.439(8) .
C16 C21 1.385(9) .
C16 C17 1.409(9) .
C15 C14 1.445(8) .
C15 C6 1.403(8) 10_666
C14 C13 1.349(8) .
C6 C15 1.403(8) 10_666
C2 C1 1.382(8) .
C5 C4 1.374(7) .
C21 C20 1.401(9) .
C19 C18 1.388(11) .
C19 C20 1.379(10) .
C19 C22 1.488(12) .
C18 C17 1.376(10) .
O2 C22 1.293(15) .
O1 C22 1.252(14) .
loop_
_smtbx_masks_void_nr
_smtbx_masks_void_average_x
_smtbx_masks_void_average_y
_smtbx_masks_void_average_z
_smtbx_masks_void_volume
_smtbx_masks_void_count_electrons
1 0.000 0.000 -0.219 337.2 142.3
2 0.014 0.270 0.450 17.3 2.0
3 -0.014 0.730 0.550 17.3 0.0
4 0.063 0.410 0.117 17.3 2.0
5 0.077 0.681 0.216 17.3 0.0
6 0.333 0.667 -0.443 337.2 142.3
7 0.256 0.986 0.450 17.3 2.0
8 0.270 0.256 0.550 17.3 0.0
9 0.319 0.396 0.216 17.3 0.0
10 0.348 0.937 0.117 17.3 2.0
11 0.396 0.077 0.784 17.3 2.0
12 0.410 0.348 0.883 17.3 0.0
13 0.667 0.333 -0.776 337.2 142.3
14 0.590 0.652 0.117 17.3 2.0
15 0.604 0.923 0.216 17.3 0.0
16 0.652 0.063 0.883 17.3 0.0
17 0.681 0.604 0.784 17.3 2.0
18 0.730 0.744 0.450 17.3 2.0
19 0.744 0.014 0.550 17.3 0.0
20 0.923 0.319 0.784 17.3 2.0
21 0.937 0.590 0.883 17.3 0.0
