#------------------------------------------------------------------------------
#$Date: 2020-07-06 06:52:30 +0300 (Mon, 06 Jul 2020) $
#$Revision: 253997 $
#$URL: file:///home/coder/svn-repositories/cod/cif/7/24/03/7240349.cif $
#------------------------------------------------------------------------------
#
# This file is available in the Crystallography Open Database (COD),
# http://www.crystallography.net/
#
# All data on this site have been placed in the public domain by the
# contributors.
#
data_7240349
loop_
_publ_author_name
'Rani, Jyoti'
'Grover, Vratta'
'Dhamija, Swati'
'Titi, Hatem M.'
'Patra, Ranjan'
_publ_section_title
;
 Computational insight into the halogen bonded self-assembly of
 hexa-coordinated metalloporphyrins.
;
_journal_issue                   20
_journal_name_full               'Physical chemistry chemical physics : PCCP'
_journal_page_first              11558
_journal_page_last               11566
_journal_paper_doi               10.1039/d0cp00351d
_journal_volume                  22
_journal_year                    2020
_chemical_formula_sum            'C58 H32 Cl2 I4 N4 O4 Sn'
_chemical_formula_weight         1546.06
_chemical_name_common            4-Chlorobenzoate-tin-tetraiodoporphrin
_space_group_crystal_system      triclinic
_space_group_IT_number           2
_space_group_name_Hall           '-P 1'
_space_group_name_H-M_alt        'P -1'
_atom_sites_solution_hydrogens   geom
_audit_block_doi                 10.5517/ccdc.csd.cc24cj46
_audit_creation_method           SHELXL-2017/1
_audit_update_record
;
2020-01-13 deposited with the CCDC.	2020-04-17 downloaded from the CCDC.
;
_cell_angle_alpha                99.5620(10)
_cell_angle_beta                 103.457(2)
_cell_angle_gamma                93.415(2)
_cell_formula_units_Z            1
_cell_length_a                   9.7530(2)
_cell_length_b                   10.7232(2)
_cell_length_c                   15.0866(3)
_cell_measurement_reflns_used    14236
_cell_measurement_temperature    293(2)
_cell_measurement_theta_max      27.3080
_cell_measurement_theta_min      3.4820
_cell_volume                     1505.21(5)
_computing_cell_refinement       'CrysAlisPro 1.171.39.33c (Rigaku OD, 2017)'
_computing_data_collection       'CrysAlisPro 1.171.39.33c (Rigaku OD, 2017)'
_computing_data_reduction        'CrysAlisPro 1.171.39.33c (Rigaku OD, 2017)'
_computing_structure_refinement  'SHELXL-2017/1 (Sheldrick, 2017)'
_computing_structure_solution    'SHELXT 2014/5 (Sheldrick, 2014)'
_diffrn_ambient_temperature      293(2)
_diffrn_measured_fraction_theta_full 0.996
_diffrn_measured_fraction_theta_max 0.942
_diffrn_measurement_device_type
'SuperNova, Single source at offset/far, HyPix3000'
_diffrn_measurement_method       '\w scans'
_diffrn_radiation_type           MoK\a
_diffrn_radiation_wavelength     0.71073
_diffrn_reflns_av_R_equivalents  0.0435
_diffrn_reflns_av_unetI/netI     0.0365
_diffrn_reflns_Laue_measured_fraction_full 0.996
_diffrn_reflns_Laue_measured_fraction_max 0.942
_diffrn_reflns_limit_h_max       12
_diffrn_reflns_limit_h_min       -12
_diffrn_reflns_limit_k_max       13
_diffrn_reflns_limit_k_min       -13
_diffrn_reflns_limit_l_max       19
_diffrn_reflns_limit_l_min       -19
_diffrn_reflns_number            19042
_diffrn_reflns_point_group_measured_fraction_full 0.996
_diffrn_reflns_point_group_measured_fraction_max 0.942
_diffrn_reflns_theta_full        25.242
_diffrn_reflns_theta_max         27.359
_diffrn_reflns_theta_min         3.496
_diffrn_source                   'micro-focus sealed X-ray tube'
_exptl_absorpt_coefficient_mu    2.610
_exptl_absorpt_correction_T_max  1.00000
_exptl_absorpt_correction_T_min  0.80924
_exptl_absorpt_correction_type   multi-scan
_exptl_absorpt_process_details
;
CrysAlisPro 1.171.39.46 (Rigaku Oxford Diffraction, 2018)
Empirical absorption correction using spherical harmonics,
 implemented in SCALE3 ABSPACK scaling algorithm.
;
_exptl_crystal_colour            Purple
_exptl_crystal_density_diffrn    1.706
_exptl_crystal_description       Block
_exptl_crystal_F_000             736
_exptl_crystal_size_max          0.18
_exptl_crystal_size_mid          0.16
_exptl_crystal_size_min          0.12
_refine_diff_density_max         1.832
_refine_diff_density_min         -1.320
_refine_diff_density_rms         0.095
_refine_ls_extinction_method     none
_refine_ls_goodness_of_fit_ref   1.078
_refine_ls_hydrogen_treatment    constr
_refine_ls_matrix_type           full
_refine_ls_number_parameters     331
_refine_ls_number_reflns         6425
_refine_ls_number_restraints     0
_refine_ls_restrained_S_all      1.078
_refine_ls_R_factor_all          0.0517
_refine_ls_R_factor_gt           0.0433
_refine_ls_shift/su_max          0.002
_refine_ls_shift/su_mean         0.000
_refine_ls_structure_factor_coef Fsqd
_refine_ls_weighting_details
'w=1/[\s^2^(Fo^2^)+(0.0551P)^2^+1.7770P] where P=(Fo^2^+2Fc^2^)/3'
_refine_ls_weighting_scheme      calc
_refine_ls_wR_factor_gt          0.1155
_refine_ls_wR_factor_ref         0.1211
_reflns_Friedel_coverage         0.000
_reflns_number_gt                5294
_reflns_number_total             6425
_reflns_threshold_expression     'I > 2\s(I)'
_cod_data_source_file            d0cp00351d2.cif
_cod_data_source_block           s2_CCDC1
_cod_depositor_comments
'Adding full bibliography for 7240348--7240349.cif.'
_cod_database_code               7240349
_shelx_shelxl_version_number     2017/1
_shelx_space_group_comment
;
The symmetry employed for this shelxl refinement is uniquely defined
by the following loop, which should always be used as a source of
symmetry information in preference to the above space-group names.
They are only intended as comments.
;
_shelx_res_file
;

TITL rp-z34_a.res in P-1
    s2.res
    created by SHELXL-2017/1 at 16:33:55 on 02-Dec-2019
CELL  0.71073   9.7530  10.7232  15.0866   99.562  103.457   93.415
ZERR     1.00   0.0002   0.0002   0.0003    0.001    0.002    0.002
LATT   1
SFAC  C    H    CL   I    N    O    SN
UNIT  58 32 2 4 4 4 1
MERG   2
FMAP   2
PLAN   13
ACTA
OMIT  -2  -1   2
OMIT   1   2   0
OMIT  -2   0   3
OMIT  -2  -2   2
OMIT  -1   1   2
BOND   $H
L.S. 20
ABIN
WGHT    0.055100    1.777000
FVAR       0.68465
SN1   7    0.000000    0.500000    0.500000    10.50000    0.03286    0.03807 =
         0.03553    0.00442    0.00457    0.00860
I1    4   -0.760981    1.014530    0.618479    11.00000    0.06398    0.08473 =
         0.06880    0.01184    0.02369    0.03893
I2    4    0.605454    0.814282    1.125005    11.00000    0.09306    0.14059 =
         0.05167   -0.00278   -0.01922    0.01046
CL1   3   -0.101732    0.041034    0.904313    11.00000    0.19865    0.10665 =
         0.07997    0.04854    0.03748    0.03457
O1    6   -0.071396    0.365441    0.569447    11.00000    0.05343    0.05074 =
         0.05272    0.01331    0.01896    0.00827
N1    5    0.200915    0.467464    0.571194    11.00000    0.03707    0.04069 =
         0.03751    0.00489    0.00340    0.01257
N2    5   -0.006976    0.647168    0.609271    11.00000    0.03469    0.04154 =
         0.04112    0.00266    0.00591    0.01065
O2    6   -0.250242    0.450672    0.615896    11.00000    0.06006    0.08064 =
         0.09139    0.03374    0.02693    0.02600
C11   1   -0.364220    0.779839    0.569901    11.00000    0.03935    0.04399 =
         0.04329    0.00835    0.00931    0.01088
C10   1   -0.248792    0.703607    0.547610    11.00000    0.03892    0.03887 =
         0.04275    0.00739    0.00903    0.01108
C9    1   -0.121459    0.713064    0.615825    11.00000    0.04408    0.04255 =
         0.04108    0.00610    0.00844    0.01384
C4    1    0.267268    0.523371    0.660560    11.00000    0.03717    0.04512 =
         0.04437    0.00954    0.00334    0.00998
C14   1   -0.587196    0.914961    0.601379    11.00000    0.04490    0.05299 =
         0.03930    0.00310    0.01230    0.01886
C1    1    0.282004    0.376721    0.540082    11.00000    0.03362    0.03896 =
         0.05199    0.00888    0.00777    0.00864
C12   1   -0.345741    0.911130    0.595186    11.00000    0.03957    0.04443 =
         0.04865    0.00547    0.00746    0.00624
AFIX  43
H12   2   -0.257531    0.954361    0.601301    11.00000   -1.20000
AFIX   0
C5    1    0.218993    0.619791    0.716618    11.00000    0.04467    0.04490 =
         0.03642    0.00351    0.00377    0.01004
C17   1    0.309833    0.665711    0.811777    11.00000    0.04614    0.05191 =
         0.04008    0.00174    0.00137    0.01563
C13   1   -0.456637    0.978941    0.611490    11.00000    0.05515    0.03781 =
         0.05108    0.00144    0.00571    0.01215
AFIX  43
H13   2   -0.442842    1.066981    0.629120    11.00000   -1.20000
AFIX   0
C6    1    0.091767    0.675505    0.692516    11.00000    0.04281    0.04611 =
         0.03825    0.00504    0.00382    0.00959
C8    1   -0.091515    0.787813    0.706894    11.00000    0.05959    0.05567 =
         0.04106   -0.00081    0.00599    0.02549
AFIX  43
H8    2   -0.151275    0.841504    0.730369    11.00000   -1.20000
AFIX   0
C16   1   -0.497470    0.717614    0.562812    11.00000    0.05011    0.04077 =
         0.06844    0.00718    0.02243    0.00578
AFIX  43
H16   2   -0.511570    0.629381    0.547230    11.00000   -1.20000
AFIX   0
C3    1    0.396328    0.465413    0.685754    11.00000    0.04233    0.05960 =
         0.05003    0.00359   -0.00552    0.01554
AFIX  43
H3    2    0.462714    0.485484    0.742611    11.00000   -1.20000
AFIX   0
C2    1    0.404738    0.378225    0.613991    11.00000    0.04170    0.05393 =
         0.05230    0.00615    0.00437    0.01658
AFIX  43
H2    2    0.477982    0.326907    0.612142    11.00000   -1.20000
AFIX   0
C24   1   -0.143607    0.291808    0.690811    11.00000    0.05115    0.05533 =
         0.05216    0.01117    0.00719    0.00033
C15   1   -0.607538    0.784357    0.578419    11.00000    0.04791    0.05476 =
         0.06139    0.00746    0.02111    0.00425
AFIX  43
H15   2   -0.695598    0.741693    0.573536    11.00000   -1.20000
AFIX   0
C7    1    0.038122    0.767078    0.752817    11.00000    0.06248    0.05893 =
         0.03519   -0.00265   -0.00188    0.02132
AFIX  43
H7    2    0.084802    0.805425    0.813130    11.00000   -1.20000
AFIX   0
C23   1   -0.158910    0.377465    0.620723    11.00000    0.04752    0.04955 =
         0.05796    0.01190    0.00588    0.00506
C18   1    0.390410    0.781237    0.835114    11.00000    0.08955    0.06193 =
         0.05087    0.00899   -0.01050   -0.00292
AFIX  43
H18   2    0.388702    0.831884    0.790529    11.00000   -1.20000
AFIX   0
C20   1    0.478484    0.751581    0.989484    11.00000    0.05898    0.08332 =
         0.04151   -0.00115   -0.00696    0.01340
C25   1   -0.040193    0.211954    0.701245    11.00000    0.07047    0.06984 =
         0.08377    0.02353    0.03583    0.02036
AFIX  43
H25   2    0.022907    0.209486    0.663446    11.00000   -1.20000
AFIX   0
C22   1    0.315950    0.593573    0.879847    11.00000    0.06520    0.07186 =
         0.05062    0.01258    0.00278    0.00722
AFIX  43
H22   2    0.263332    0.514518    0.865891    11.00000   -1.20000
AFIX   0
C21   1    0.399955    0.637416    0.969426    11.00000    0.07356    0.09687 =
         0.04846    0.01880    0.00156    0.01230
AFIX  43
H21   2    0.402018    0.588529    1.015103    11.00000   -1.20000
AFIX   0
C27   1   -0.118003    0.137537    0.820938    11.00000    0.10330    0.06617 =
         0.05233    0.01986    0.01389    0.00857
C29   1   -0.237901    0.292316    0.745828    11.00000    0.05997    0.08952 =
         0.06849    0.02289    0.01416    0.02395
AFIX  43
H29   2   -0.310901    0.344615    0.738755    11.00000   -1.20000
AFIX   0
C28   1   -0.224451    0.215116    0.811780    11.00000    0.08839    0.10160 =
         0.07108    0.02397    0.03986    0.00832
AFIX  43
H28   2   -0.287498    0.216127    0.849557    11.00000   -1.20000
AFIX   0
C26   1   -0.026767    0.135002    0.766175    11.00000    0.08731    0.07229 =
         0.08803    0.02745    0.02113    0.03159
AFIX  43
H26   2    0.044977    0.081336    0.772363    11.00000   -1.20000
AFIX   0
C19   1    0.474214    0.823383    0.924160    11.00000    0.09585    0.07142 =
         0.05976    0.00122   -0.01575   -0.00443
AFIX  43
H19   2    0.527889    0.901976    0.938778    11.00000   -1.20000
AFIX   0
HKLF    4




REM  rp-z34_a.res in P-1
REM R1 =  0.0433 for    5294 Fo > 4sig(Fo)  and  0.0517 for all    6425 data
REM    331 parameters refined using      0 restraints

END

WGHT      0.0546      1.5896

REM Highest difference peak  1.832,  deepest hole -1.320,  1-sigma level  0.095
Q1    1   0.6856  0.8150  1.0903  11.00000  0.05    1.83
Q2    1  -0.6866  1.0507  0.6222  11.00000  0.05    0.90
Q3    1   0.5672  0.7286  1.1241  11.00000  0.05    0.86
Q4    1  -0.7946  0.9777  0.5646  11.00000  0.05    0.86
Q5    1  -0.2375  0.1177  0.9211  11.00000  0.05    0.73
Q6    1   0.0403  0.2247  0.5718  11.00000  0.05    0.55
Q7    1  -0.7670  0.9641  0.6368  11.00000  0.05    0.52
Q8    1  -0.7913  1.0390  0.6259  11.00000  0.05    0.47
Q9    1  -0.0546  0.2859  0.6032  11.00000  0.05    0.47
Q10   1   0.4783  0.7970  1.1352  11.00000  0.05    0.42
Q11   1   0.0630  0.5384  0.4672  11.00000  0.05    0.41
Q12   1   0.1591  0.6501  0.7409  11.00000  0.05    0.35
Q13   1  -0.4230  0.7397  0.5686  11.00000  0.05    0.31
;
_shelx_res_checksum              30474
_shelx_fab_file
;
    0    0    3      1.86      0.00
    0    0    4     -2.04      0.00
    0    0    5     -1.62      0.00
    0    0    6     -0.26      0.00
    0    0    7      0.79      0.00
    0    0    8      0.78      0.00
    0    0    9      0.46      0.00
    0    0   10      0.46      0.00
    0    0   11      0.31      0.00
    0    0   12      0.05      0.00
    0    0   13     -0.01      0.00
    0    0   14     -0.11      0.00
    0    0   15     -0.14      0.00
    0    0   16      0.12      0.00
    0    0   17      0.13      0.00
    0    0   18     -0.23      0.00
    0   -1   18      0.44      0.00
    0   -1   17      0.09      0.00
    0   -1   16     -0.05      0.00
    0   -1   15      0.18      0.00
    0   -1   14      0.13      0.00
    0   -1   13     -0.09      0.00
    0   -1   12      0.02      0.00
    0   -1   11     -0.05      0.00
    0   -1   10     -0.44      0.00
    0   -1    9     -0.57      0.00
    0   -1    8     -0.81      0.00
    0   -1    7     -1.31      0.00
    0   -1    6     -0.56      0.00
    0   -1    5      2.22      0.00
    0   -1    4      6.20      0.00
    0   -1    3      9.24      0.00
    0    1    2    -26.87      0.00
    0    1    3    -13.09      0.00
    0    1    4     -4.65      0.00
    0    1    5     -1.00      0.00
    0    1    6      0.24      0.00
    0    1    7     -0.06      0.00
    0    1    8     -0.50      0.00
    0    1    9     -0.39      0.00
    0    1   10     -0.29      0.00
    0    1   11     -0.22      0.00
    0    1   12      0.09      0.00
    0    1   13      0.34      0.00
    0    1   14      0.43      0.00
    0    1   15      0.36      0.00
    0    1   16      0.07      0.00
    0    1   17     -0.05      0.00
    0   -2   18     -0.59      0.00
    0   -2   17     -0.43      0.00
    0   -2   16     -0.19      0.00
    0   -2   15     -0.32      0.00
    0   -2   14     -0.33      0.00
    0   -2   13      0.02      0.00
    0   -2   12     -0.01      0.00
    0   -2   11     -0.27      0.00
    0   -2   10      0.06      0.00
    0   -2    9      0.57      0.00
    0   -2    8      1.03      0.00
    0   -2    7      2.30      0.00
    0   -2    6      3.48      0.00
    0   -2    5      2.21      0.00
    0   -2    4     -1.82      0.00
    0   -2    3     -7.11      0.00
    0   -2    2    -10.76      0.00
    0   -2    1     -7.57      0.00
    0    2    0      3.94      0.00
    0    2    1     15.67      0.00
    0    2    2     18.62      0.00
    0    2    3     13.97      0.00
    0    2    4      8.13      0.00
    0    2    5      3.69      0.00
    0    2    6      0.74      0.00
    0    2    7     -0.19      0.00
    0    2    8      0.21      0.00
    0    2    9      0.47      0.00
    0    2   10      0.45      0.00
    0    2   11      0.40      0.00
    0    2   12      0.11      0.00
    0    2   13     -0.24      0.00
    0    2   14     -0.34      0.00
    0    2   15     -0.23      0.00
    0    2   16      0.03      0.00
    0    2   17      0.21      0.00
    0   -3   18      0.34      0.00
    0   -3   17      0.40      0.00
    0   -3   16      0.18      0.00
    0   -3   15      0.23      0.00
    0   -3   14      0.44      0.00
    0   -3   13      0.16      0.00
    0   -3   12     -0.19      0.00
    0   -3   11      0.03      0.00
    0   -3   10      0.17      0.00
    0   -3    9     -0.09      0.00
    0   -3    8     -0.31      0.00
    0   -3    7     -1.31      0.00
    0   -3    6     -3.74      0.00
    0   -3    5     -5.45      0.00
    0   -3    4     -4.12      0.00
    0   -3    3     -0.38      0.00
    0   -3    2      3.82      0.00
    0   -3    1      6.21      0.00
    0    3    0      4.26      0.00
    0    3    1     -1.46      0.00
    0    3    2     -6.56      0.00
    0    3    3     -8.10      0.00
    0    3    4     -6.94      0.00
    0    3    5     -4.57      0.00
    0    3    6     -1.99      0.00
    0    3    7     -0.51      0.00
    0    3    8     -0.40      0.00
    0    3    9     -0.56      0.00
    0    3   10     -0.54      0.00
    0    3   11     -0.50      0.00
    0    3   12     -0.28      0.00
    0    3   13      0.09      0.00
    0    3   14      0.16      0.00
    0    3   15     -0.07      0.00
    0    3   16     -0.33      0.00
    0    3   17     -0.46      0.00
    0   -4   18      0.02      0.00
    0   -4   17     -0.15      0.00
    0   -4   16      0.04      0.00
    0   -4   15      0.24      0.00
    0   -4   14     -0.10      0.00
    0   -4   13     -0.37      0.00
    0   -4   12     -0.06      0.00
    0   -4   11      0.19      0.00
    0   -4   10      0.05      0.00
    0   -4    9     -0.08      0.00
    0   -4    8     -0.28      0.00
    0   -4    7     -0.35      0.00
    0   -4    6      0.93      0.00
    0   -4    5      3.35      0.00
    0   -4    4      4.57      0.00
    0   -4    3      3.38      0.00
    0   -4    2      0.86      0.00
    0   -4    1     -1.64      0.00
    0    4    0     -3.05      0.00
    0    4    1     -2.40      0.00
    0    4    2     -0.03      0.00
    0    4    3      2.32      0.00
    0    4    4      3.34      0.00
    0    4    5      2.83      0.00
    0    4    6      1.54      0.00
    0    4    7      0.61      0.00
    0    4    8      0.42      0.00
    0    4    9      0.40      0.00
    0    4   10      0.29      0.00
    0    4   11      0.33      0.00
    0    4   12      0.30      0.00
    0    4   13     -0.04      0.00
    0    4   14     -0.32      0.00
    0    4   15     -0.21      0.00
    0    4   16      0.06      0.00
    0   -5   18     -0.44      0.00
    0   -5   17     -0.07      0.00
    0   -5   16      0.07      0.00
    0   -5   15     -0.38      0.00
    0   -5   14     -0.52      0.00
    0   -5   13      0.05      0.00
    0   -5   12      0.41      0.00
    0   -5   11      0.19      0.00
    0   -5   10      0.02      0.00
    0   -5    9      0.09      0.00
    0   -5    8      0.24      0.00
    0   -5    7      0.46      0.00
    0   -5    6      0.32      0.00
    0   -5    5     -0.79      0.00
    0   -5    4     -2.22      0.00
    0   -5    3     -2.76      0.00
    0   -5    2     -2.21      0.00
    0   -5    1     -1.08      0.00
    0    5    0      0.30      0.00
    0    5    1      1.33      0.00
    0    5    2      1.19      0.00
    0    5    3     -0.09      0.00
    0    5    4     -1.30      0.00
    0    5    5     -1.47      0.00
    0    5    6     -0.95      0.00
    0    5    7     -0.60      0.00
    0    5    8     -0.55      0.00
    0    5    9     -0.33      0.00
    0    5   10      0.04      0.00
    0    5   11      0.07      0.00
    0    5   12     -0.19      0.00
    0    5   13     -0.25      0.00
    0    5   14     -0.02      0.00
    0    5   15      0.19      0.00
    0    5   16      0.19      0.00
    0   -6   17      0.53      0.00
    0   -6   16     -0.15      0.00
    0   -6   15     -0.10      0.00
    0   -6   14      0.44      0.00
    0   -6   13      0.37      0.00
    0   -6   12     -0.24      0.00
    0   -6   11     -0.51      0.00
    0   -6   10     -0.33      0.00
    0   -6    9     -0.23      0.00
    0   -6    8     -0.33      0.00
    0   -6    7     -0.43      0.00
    0   -6    6     -0.40      0.00
    0   -6    5     -0.12      0.00
    0   -6    4      0.39      0.00
    0   -6    3      0.82      0.00
    0   -6    2      1.00      0.00
    0   -6    1      0.97      0.00
    0    6    0      0.63      0.00
    0    6    1     -0.08      0.00
    0    6    2     -0.63      0.00
    0    6    3     -0.41      0.00
    0    6    4      0.26      0.00
    0    6    5      0.53      0.00
    0    6    6      0.36      0.00
    0    6    7      0.37      0.00
    0    6    8      0.55      0.00
    0    6    9      0.38      0.00
    0    6   10     -0.12      0.00
    0    6   11     -0.43      0.00
    0    6   12     -0.34      0.00
    0    6   13     -0.01      0.00
    0    6   14      0.29      0.00
    0    6   15      0.32      0.00
    0   -7   17     -0.93      0.00
    0   -7   16     -0.27      0.00
    0   -7   15      0.20      0.00
    0   -7   14     -0.06      0.00
    0   -7   13     -0.31      0.00
    0   -7   12      0.01      0.00
    0   -7   11      0.43      0.00
    0   -7   10      0.41      0.00
    0   -7    9      0.12      0.00
    0   -7    8     -0.06      0.00
    0   -7    7     -0.02      0.00
    0   -7    6      0.06      0.00
    0   -7    5     -0.01      0.00
    0   -7    4     -0.20      0.00
    0   -7    3     -0.32      0.00
    0   -7    2     -0.30      0.00
    0   -7    1     -0.24      0.00
    0    7    0     -0.21      0.00
    0    7    1     -0.12      0.00
    0    7    2      0.06      0.00
    0    7    3      0.13      0.00
    0    7    4     -0.04      0.00
    0    7    5     -0.13      0.00
    0    7    6     -0.05      0.00
    0    7    7     -0.13      0.00
    0    7    8     -0.39      0.00
    0    7    9     -0.41      0.00
    0    7   10     -0.15      0.00
    0    7   11      0.08      0.00
    0    7   12      0.27      0.00
    0    7   13      0.37      0.00
    0    7   14      0.12      0.00
    0   -8   16      0.48      0.00
    0   -8   15      0.07      0.00
    0   -8   14      0.09      0.00
    0   -8   13      0.25      0.00
    0   -8   12      0.03      0.00
    0   -8   11     -0.37      0.00
    0   -8   10     -0.55      0.00
    0   -8    9     -0.41      0.00
    0   -8    8     -0.11      0.00
    0   -8    7      0.10      0.00
    0   -8    6      0.08      0.00
    0   -8    5     -0.01      0.00
    0   -8    4      0.06      0.00
    0   -8    3      0.23      0.00
    0   -8    2      0.33      0.00
    0   -8    1      0.29      0.00
    0    8    0      0.18      0.00
    0    8    1      0.20      0.00
    0    8    2      0.35      0.00
    0    8    3      0.46      0.00
    0    8    4      0.46      0.00
    0    8    5      0.37      0.00
    0    8    6      0.23      0.00
    0    8    7      0.21      0.00
    0    8    8      0.36      0.00
    0    8    9      0.39      0.00
    0    8   10      0.28      0.00
    0    8   11      0.31      0.00
    0    8   12      0.31      0.00
    0   -9   15     -0.10      0.00
    0   -9   14     -0.13      0.00
    0   -9   13     -0.33      0.00
    0   -9   12     -0.23      0.00
    0   -9   11      0.08      0.00
    0   -9   10      0.27      0.00
    0   -9    9      0.34      0.00
    0   -9    8      0.35      0.00
    0   -9    7      0.31      0.00
    0   -9    6      0.33      0.00
    0   -9    5      0.37      0.00
    0   -9    4      0.29      0.00
    0   -9    3      0.12      0.00
    0   -9    2      0.02      0.00
    0   -9    1      0.04      0.00
    0    9    0      0.13      0.00
    0    9    1      0.13      0.00
    0    9    2     -0.14      0.00
    0    9    3     -0.49      0.00
    0    9    4     -0.62      0.00
    0    9    5     -0.44      0.00
    0    9    6     -0.10      0.00
    0    9    7      0.13      0.00
    0    9    8      0.06      0.00
    0    9    9     -0.12      0.00
    0    9   10     -0.18      0.00
    0    9   11     -0.24      0.00
    0  -10   15      0.01      0.00
    0  -10   14     -0.09      0.00
    0  -10   13      0.01      0.00
    0  -10   12      0.03      0.00
    0  -10   11     -0.09      0.00
    0  -10   10     -0.11      0.00
    0  -10    9     -0.04      0.00
    0  -10    8     -0.07      0.00
    0  -10    7     -0.23      0.00
    0  -10    6     -0.47      0.00
    0  -10    5     -0.66      0.00
    0  -10    4     -0.56      0.00
    0  -10    3     -0.25      0.00
    0  -10    2     -0.03      0.00
    0  -10    1     -0.00      0.00
    0   10    0     -0.07      0.00
    0   10    1     -0.20      0.00
    0   10    2     -0.21      0.00
    0   10    3      0.05      0.00
    0   10    4      0.43      0.00
    0   10    5      0.60      0.00
    0   10    6      0.35      0.00
    0   10    7     -0.18      0.00
    0   10    8     -0.51      0.00
    0   10    9     -0.38      0.00
    0  -11   13      0.15      0.00
    0  -11   12      0.28      0.00
    0  -11   11      0.40      0.00
    0  -11   10      0.36      0.00
    0  -11    9      0.21      0.00
    0  -11    8      0.16      0.00
    0  -11    7      0.24      0.00
    0  -11    6      0.39      0.00
    0  -11    5      0.58      0.00
    0  -11    4      0.68      0.00
    0  -11    3      0.61      0.00
    0  -11    2      0.47      0.00
    0  -11    1      0.26      0.00
    0   11    0     -0.08      0.00
    0   11    1     -0.30      0.00
    0   11    2     -0.13      0.00
    0   11    3      0.20      0.00
    0   11    4      0.20      0.00
    0   11    5     -0.23      0.00
    0   11    6     -0.61      0.00
    0   11    7     -0.48      0.00
    0   11    8      0.04      0.00
    0  -12   11     -0.05      0.00
    0  -12   10     -0.03      0.00
    0  -12    9      0.15      0.00
    0  -12    8      0.18      0.00
    0  -12    7      0.02      0.00
    0  -12    6     -0.09      0.00
    0  -12    5     -0.02      0.00
    0  -12    4      0.11      0.00
    0  -12    3      0.10      0.00
    0  -12    2     -0.17      0.00
    0  -12    1     -0.37      0.00
    0   12    0     -0.10      0.00
    0   12    1      0.50      0.00
    0   12    2      0.77      0.00
    0   12    3      0.37      0.00
    0   12    4     -0.24      0.00
    0   12    5     -0.39      0.00
    0  -13    8     -0.50      0.00
    0  -13    7     -0.32      0.00
    0  -13    6      0.00      0.00
    0  -13    5      0.12      0.00
    0  -13    4     -0.09      0.00
    0  -13    3     -0.35      0.00
    0  -13    2     -0.28      0.00
    0  -13    1      0.06      0.00
    0   13    0      0.19      0.00
    0   13    1     -0.07      0.00
    0   13    2     -0.40      0.00
   -1   13    1      0.35      0.00
   -1   13    0      0.33      0.00
    1  -13    1      0.22      0.00
    1  -13    2      0.22      0.00
    1  -13    4      0.33      0.00
    1  -13    5      0.11      0.00
    1  -13    6     -0.32      0.00
    1  -13    7     -0.67      0.00
    1  -13    8     -0.69      0.00
    1  -13    9     -0.57      0.00
   -1   12    5     -0.07      0.00
   -1   12    4      0.50      0.00
   -1   12    3      0.65      0.00
   -1   12    2      0.22      0.00
   -1   12    1     -0.43      0.00
   -1   12    0     -0.70      0.00
    1  -12    1     -0.46      0.00
    1  -12    2     -0.13      0.00
    1  -12    3     -0.01      0.00
    1  -12    4     -0.08      0.00
    1  -12    5     -0.11      0.00
    1  -12    6      0.12      0.00
    1  -12    7      0.50      0.00
    1  -12    8      0.63      0.00
    1  -12    9      0.50      0.00
    1  -12   10      0.54      0.00
    1  -12   11      0.64      0.00
   -1   11    8     -0.19      0.00
   -1   11    7      0.07      0.00
   -1   11    6      0.45      0.00
   -1   11    5      0.41      0.00
   -1   11    4     -0.12      0.00
   -1   11    3     -0.71      0.00
   -1   11    2     -0.73      0.00
   -1   11    1     -0.07      0.00
   -1   11    0      0.66      0.00
    1  -11    1      0.90      0.00
    1  -11    2      0.81      0.00
    1  -11    3      0.63      0.00
    1  -11    4      0.42      0.00
    1  -11    5      0.30      0.00
    1  -11    6      0.27      0.00
    1  -11    7      0.15      0.00
    1  -11    8      0.07      0.00
    1  -11    9      0.17      0.00
    1  -11   10      0.19      0.00
    1  -11   11      0.05      0.00
    1  -11   12      0.05      0.00
    1  -11   13      0.16      0.00
   -1   10    9     -0.77      0.00
   -1   10    8     -0.42      0.00
   -1   10    7     -0.05      0.00
   -1   10    6     -0.00      0.00
   -1   10    5     -0.13      0.00
   -1   10    4     -0.11      0.00
   -1   10    3      0.20      0.00
   -1   10    2      0.56      0.00
   -1   10    1      0.52      0.00
   -1   10    0      0.12      0.00
    1  -10    1     -0.21      0.00
    1  -10    2     -0.44      0.00
    1  -10    3     -0.68      0.00
    1  -10    4     -0.68      0.00
    1  -10    5     -0.44      0.00
    1  -10    6     -0.27      0.00
    1  -10    7     -0.21      0.00
    1  -10    8     -0.13      0.00
    1  -10    9     -0.11      0.00
    1  -10   10     -0.08      0.00
    1  -10   11      0.01      0.00
    1  -10   12     -0.07      0.00
    1  -10   13     -0.27      0.00
    1  -10   14     -0.16      0.00
   -1    9   11     -0.34      0.00
   -1    9   10      0.08      0.00
   -1    9    9      0.64      0.00
   -1    9    8      0.71      0.00
   -1    9    7      0.30      0.00
   -1    9    6     -0.08      0.00
   -1    9    5     -0.21      0.00
   -1    9    4     -0.09      0.00
   -1    9    3      0.06      0.00
   -1    9    2     -0.02      0.00
   -1    9    1     -0.21      0.00
   -1    9    0     -0.23      0.00
    1   -9    1     -0.13      0.00
    1   -9    2     -0.01      0.00
    1   -9    3      0.22      0.00
    1   -9    4      0.40      0.00
    1   -9    5      0.36      0.00
    1   -9    6      0.32      0.00
    1   -9    7      0.38      0.00
    1   -9    8      0.32      0.00
    1   -9    9      0.09      0.00
    1   -9   10     -0.21      0.00
    1   -9   11     -0.53      0.00
    1   -9   12     -0.58      0.00
    1   -9   13     -0.28      0.00
    1   -9   14     -0.15      0.00
    1   -9   15     -0.37      0.00
   -1    8   12      0.45      0.00
   -1    8   11      0.49      0.00
   -1    8   10      0.45      0.00
   -1    8    9      0.11      0.00
   -1    8    8     -0.15      0.00
   -1    8    7      0.01      0.00
   -1    8    6      0.28      0.00
   -1    8    5      0.43      0.00
   -1    8    4      0.43      0.00
   -1    8    3      0.24      0.00
   -1    8    2      0.04      0.00
   -1    8    1      0.07      0.00
   -1    8    0      0.20      0.00
    1   -8    1      0.18      0.00
    1   -8    2      0.06      0.00
    1   -8    3     -0.08      0.00
    1   -8    4     -0.14      0.00
    1   -8    5     -0.05      0.00
    1   -8    6     -0.04      0.00
    1   -8    7     -0.33      0.00
    1   -8    8     -0.64      0.00
    1   -8    9     -0.62      0.00
    1   -8   10     -0.30      0.00
    1   -8   11      0.18      0.00
    1   -8   12      0.53      0.00
    1   -8   13      0.50      0.00
    1   -8   14      0.37      0.00
    1   -8   15      0.52      0.00
    1   -8   16      0.58      0.00
   -1    7   14      0.07      0.00
   -1    7   13     -0.06      0.00
   -1    7   12     -0.08      0.00
   -1    7   11     -0.19      0.00
   -1    7   10     -0.44      0.00
   -1    7    9     -0.43      0.00
   -1    7    8     -0.19      0.00
   -1    7    7     -0.11      0.00
   -1    7    6     -0.13      0.00
   -1    7    5     -0.04      0.00
   -1    7    4     -0.06      0.00
   -1    7    3     -0.22      0.00
   -1    7    2     -0.24      0.00
   -1    7    1     -0.11      0.00
   -1    7    0     -0.04      0.00
    1   -7    1     -0.01      0.00
    1   -7    2      0.02      0.00
    1   -7    3      0.03      0.00
    1   -7    4      0.03      0.00
    1   -7    5     -0.01      0.00
    1   -7    6     -0.09      0.00
    1   -7    7     -0.01      0.00
    1   -7    8      0.26      0.00
    1   -7    9      0.51      0.00
    1   -7   10      0.50      0.00
    1   -7   11      0.19      0.00
    1   -7   12     -0.16      0.00
    1   -7   13     -0.24      0.00
    1   -7   14     -0.23      0.00
    1   -7   15     -0.53      0.00
    1   -7   16     -0.82      0.00
   -1    6   15      0.07      0.00
   -1    6   14     -0.15      0.00
   -1    6   13     -0.43      0.00
   -1    6   12     -0.67      0.00
   -1    6   11     -0.57      0.00
   -1    6   10     -0.02      0.00
   -1    6    9      0.45      0.00
   -1    6    8      0.46      0.00
   -1    6    7      0.32      0.00
   -1    6    6      0.13      0.00
   -1    6    5     -0.35      0.00
   -1    6    4     -0.79      0.00
   -1    6    3     -0.53      0.00
   -1    6    2      0.22      0.00
   -1    6    1      0.65      0.00
   -1    6    0      0.51      0.00
    1   -6    1      0.12      0.00
    1   -6    2     -0.21      0.00
    1   -6    3     -0.29      0.00
    1   -6    4     -0.17      0.00
    1   -6    5     -0.11      0.00
    1   -6    6     -0.24      0.00
    1   -6    7     -0.35      0.00
    1   -6    8     -0.32      0.00
    1   -6    9     -0.32      0.00
    1   -6   10     -0.43      0.00
    1   -6   11     -0.32      0.00
    1   -6   12      0.07      0.00
    1   -6   13      0.21      0.00
    1   -6   14      0.05      0.00
    1   -6   15      0.22      0.00
    1   -6   16      0.74      0.00
    1   -6   17      0.82      0.00
   -1    5   16      0.21      0.00
   -1    5   15      0.01      0.00
   -1    5   14     -0.14      0.00
   -1    5   13      0.04      0.00
   -1    5   12      0.51      0.00
   -1    5   11      0.68      0.00
   -1    5   10      0.17      0.00
   -1    5    9     -0.59      0.00
   -1    5    8     -1.03      0.00
   -1    5    7     -1.23      0.00
   -1    5    6     -1.28      0.00
   -1    5    5     -0.70      0.00
   -1    5    4      0.47      0.00
   -1    5    3      1.08      0.00
   -1    5    2      0.33      0.00
   -1    5    1     -1.04      0.00
   -1    5    0     -1.86      0.00
    1   -5    1     -1.95      0.00
    1   -5    2     -1.58      0.00
    1   -5    3     -0.91      0.00
    1   -5    4     -0.29      0.00
    1   -5    5     -0.12      0.00
    1   -5    6     -0.14      0.00
    1   -5    7     -0.01      0.00
    1   -5    8      0.08      0.00
    1   -5    9      0.02      0.00
    1   -5   10      0.22      0.00
    1   -5   11      0.51      0.00
    1   -5   12      0.25      0.00
    1   -5   13     -0.29      0.00
    1   -5   14     -0.31      0.00
    1   -5   15     -0.11      0.00
    1   -5   16     -0.34      0.00
    1   -5   17     -0.62      0.00
   -1    4   17      0.05      0.00
   -1    4   16     -0.02      0.00
   -1    4   15     -0.07      0.00
   -1    4   14      0.17      0.00
   -1    4   13      0.39      0.00
   -1    4   12      0.19      0.00
   -1    4   11     -0.07      0.00
   -1    4   10      0.16      0.00
   -1    4    9      0.69      0.00
   -1    4    8      1.18      0.00
   -1    4    7      1.76      0.00
   -1    4    6      2.36      0.00
   -1    4    5      2.19      0.00
   -1    4    4      0.63      0.00
   -1    4    3     -1.50      0.00
   -1    4    2     -2.42      0.00
   -1    4    1     -1.49      0.00
   -1    4    0      0.16      0.00
    1   -4    1      1.55      0.00
    1   -4    2      2.61      0.00
    1   -4    3      2.77      0.00
    1   -4    4      1.46      0.00
    1   -4    5     -0.14      0.00
    1   -4    6     -0.51      0.00
    1   -4    7     -0.04      0.00
    1   -4    8      0.28      0.00
    1   -4    9      0.43      0.00
    1   -4   10      0.29      0.00
    1   -4   11     -0.35      0.00
    1   -4   12     -0.74      0.00
    1   -4   13     -0.26      0.00
    1   -4   14      0.29      0.00
    1   -4   15      0.27      0.00
    1   -4   16      0.17      0.00
    1   -4   17      0.30      0.00
    1   -4   18      0.25      0.00
   -1    3   17     -0.45      0.00
   -1    3   16     -0.55      0.00
   -1    3   15     -0.29      0.00
   -1    3   14     -0.15      0.00
   -1    3   13     -0.32      0.00
   -1    3   12     -0.32      0.00
   -1    3   11     -0.16      0.00
   -1    3   10     -0.29      0.00
   -1    3    9     -0.58      0.00
   -1    3    8     -1.00      0.00
   -1    3    7     -2.18      0.00
   -1    3    6     -4.05      0.00
   -1    3    5     -5.35      0.00
   -1    3    4     -4.67      0.00
   -1    3    3     -1.56      0.00
   -1    3    2      2.46      0.00
   -1    3    1      4.60      0.00
   -1    3    0      3.94      0.00
    1   -3    1      1.87      0.00
    1   -3    2     -0.64      0.00
    1   -3    3     -2.95      0.00
    1   -3    4     -3.20      0.00
    1   -3    5     -0.95      0.00
    1   -3    6      1.07      0.00
    1   -3    7      1.04      0.00
    1   -3    8      0.21      0.00
    1   -3    9     -0.22      0.00
    1   -3   10     -0.40      0.00
    1   -3   11     -0.13      0.00
    1   -3   12      0.57      0.00
    1   -3   13      0.74      0.00
    1   -3   14      0.25      0.00
    1   -3   15     -0.03      0.00
    1   -3   16      0.04      0.00
    1   -3   17     -0.02      0.00
    1   -3   18     -0.12      0.00
   -1    2   17      0.20      0.00
   -1    2   16      0.37      0.00
   -1    2   15      0.25      0.00
   -1    2   14      0.04      0.00
   -1    2   13      0.17      0.00
   -1    2   12      0.31      0.00
   -1    2   11      0.19      0.00
   -1    2   10      0.20      0.00
   -1    2    9      0.24      0.00
   -1    2    8      0.29      0.00
   -1    2    7      1.64      0.00
   -1    2    6      4.95      0.00
   -1    2    5      8.99      0.00
   -1    2    4     11.95      0.00
   -1    2    3     11.53      0.00
   -1    2    2      5.90      0.00
   -1    2    1     -2.32      0.00
   -1    2    0     -7.38      0.00
    1   -2    1     -7.25      0.00
    1   -2    2     -4.25      0.00
    1   -2    3     -0.44      0.00
    1   -2    4      2.40      0.00
    1   -2    5      2.18      0.00
    1   -2    6     -0.08      0.00
    1   -2    7     -1.15      0.00
    1   -2    8     -0.59      0.00
    1   -2    9     -0.15      0.00
    1   -2   10     -0.06      0.00
    1   -2   11      0.09      0.00
    1   -2   12     -0.11      0.00
    1   -2   13     -0.49      0.00
    1   -2   14     -0.39      0.00
    1   -2   15     -0.18      0.00
    1   -2   16     -0.29      0.00
    1   -2   17     -0.34      0.00
    1   -2   18     -0.11      0.00
   -1    1   18     -0.00      0.00
   -1    1   17     -0.06      0.00
   -1    1   16     -0.11      0.00
   -1    1   15     -0.02      0.00
   -1    1   14      0.21      0.00
   -1    1   13      0.04      0.00
   -1    1   12     -0.36      0.00
   -1    1   11     -0.42      0.00
   -1    1   10     -0.36      0.00
   -1    1    9     -0.19      0.00
   -1    1    8      0.43      0.00
   -1    1    7      0.23      0.00
   -1    1    6     -2.54      0.00
   -1    1    5     -7.76      0.00
   -1    1    4    -14.97      0.00
   -1    1    3    -22.47      0.00
    1   -1    2      8.64      0.00
    1   -1    3      5.16      0.00
    1   -1    4      1.23      0.00
    1   -1    5     -0.85      0.00
    1   -1    6     -0.23      0.00
    1   -1    7      0.89      0.00
    1   -1    8      0.65      0.00
    1   -1    9      0.12      0.00
    1   -1   10      0.20      0.00
    1   -1   11      0.20      0.00
    1   -1   12      0.06      0.00
    1   -1   13      0.19      0.00
    1   -1   14      0.21      0.00
    1   -1   15      0.01      0.00
    1   -1   16      0.13      0.00
    1   -1   17      0.42      0.00
   -1    0   18      0.21      0.00
   -1    0   17      0.32      0.00
   -1    0   16      0.36      0.00
   -1    0   15      0.35      0.00
   -1    0   14      0.11      0.00
   -1    0   13      0.04      0.00
   -1    0   12      0.47      0.00
   -1    0   11      0.81      0.00
   -1    0   10      0.84      0.00
   -1    0    9      0.77      0.00
   -1    0    8     -0.03      0.00
   -1    0    7     -1.24      0.00
   -1    0    6     -0.97      0.00
   -1    0    5      1.60      0.00
   -1    0    4      7.65      0.00
   -1    0    3     19.72      0.00
    1    0    2     -3.29      0.00
    1    0    3     -4.17      0.00
    1    0    4     -1.81      0.00
    1    0    5      0.40      0.00
    1    0    6      0.85      0.00
    1    0    7     -0.02      0.00
    1    0    8     -0.31      0.00
    1    0    9      0.12      0.00
    1    0   10      0.17      0.00
    1    0   11     -0.03      0.00
    1    0   12     -0.02      0.00
    1    0   13     -0.10      0.00
    1    0   14     -0.17      0.00
    1    0   15      0.08      0.00
    1    0   16      0.19      0.00
    1    0   17     -0.08      0.00
   -1   -1   18     -0.19      0.00
   -1   -1   17     -0.30      0.00
   -1   -1   16     -0.27      0.00
   -1   -1   15     -0.38      0.00
   -1   -1   14     -0.37      0.00
   -1   -1   13     -0.13      0.00
   -1   -1   12     -0.36      0.00
   -1   -1   11     -0.98      0.00
   -1   -1   10     -1.37      0.00
   -1   -1    9     -1.58      0.00
   -1   -1    8     -1.17      0.00
   -1   -1    7      0.54      0.00
   -1   -1    6      2.63      0.00
   -1   -1    5      4.05      0.00
   -1   -1    4      4.04      0.00
   -1   -1    3     -1.99      0.00
   -1   -1    2    -17.40      0.00
    1    1    1    -21.39      0.00
    1    1    2     -7.49      0.00
    1    1    3     -0.92      0.00
    1    1    4      0.20      0.00
    1    1    5     -0.45      0.00
    1    1    6     -1.03      0.00
    1    1    7     -0.70      0.00
    1    1    8     -0.09      0.00
    1    1    9     -0.00      0.00
    1    1   10     -0.03      0.00
    1    1   11      0.13      0.00
    1    1   12      0.21      0.00
    1    1   13      0.33      0.00
    1    1   14      0.45      0.00
    1    1   15      0.26      0.00
    1    1   16     -0.03      0.00
    1    1   17      0.00      0.00
   -1   -2   18     -0.08      0.00
   -1   -2   17      0.09      0.00
   -1   -2   16      0.02      0.00
   -1   -2   15      0.09      0.00
   -1   -2   14      0.27      0.00
   -1   -2   13     -0.01      0.00
   -1   -2   12     -0.23      0.00
   -1   -2   11      0.42      0.00
   -1   -2   10      1.47      0.00
   -1   -2    9      2.38      0.00
   -1   -2    8      3.04      0.00
   -1   -2    7      2.56      0.00
   -1   -2    6      0.43      0.00
   -1   -2    5     -2.61      0.00
   -1   -2    4     -6.28      0.00
   -1   -2    3     -8.29      0.00
   -1   -2    2     -2.77      0.00
   -1   -2    1     10.64      0.00
    1    2    1     20.38      0.00
    1    2    2     12.11      0.00
    1    2    3      5.12      0.00
    1    2    4      1.71      0.00
    1    2    5      0.39      0.00
    1    2    6      0.27      0.00
    1    2    7      0.53      0.00
    1    2    8      0.42      0.00
    1    2    9      0.15      0.00
    1    2   10     -0.07      0.00
    1    2   11     -0.33      0.00
    1    2   12     -0.49      0.00
    1    2   13     -0.55      0.00
    1    2   14     -0.63      0.00
    1    2   15     -0.51      0.00
    1    2   16     -0.24      0.00
   -1   -3   18      0.22      0.00
   -1   -3   17      0.03      0.00
   -1   -3   16     -0.04      0.00
   -1   -3   15     -0.08      0.00
   -1   -3   14     -0.36      0.00
   -1   -3   13     -0.27      0.00
   -1   -3   12      0.42      0.00
   -1   -3   11      0.51      0.00
   -1   -3   10     -0.47      0.00
   -1   -3    9     -1.78      0.00
   -1   -3    8     -3.22      0.00
   -1   -3    7     -4.60      0.00
   -1   -3    6     -4.74      0.00
   -1   -3    5     -3.05      0.00
   -1   -3    4      0.17      0.00
   -1   -3    3      4.12      0.00
   -1   -3    2      5.69      0.00
   -1   -3    1      1.40      0.00
    1    3    0     -6.34      0.00
    1    3    1    -10.75      0.00
    1    3    2     -9.68      0.00
    1    3    3     -6.54      0.00
    1    3    4     -3.83      0.00
    1    3    5     -1.70      0.00
    1    3    6     -0.55      0.00
    1    3    7     -0.54      0.00
    1    3    8     -0.75      0.00
    1    3    9     -0.62      0.00
    1    3   10     -0.24      0.00
    1    3   11      0.22      0.00
    1    3   12      0.56      0.00
    1    3   13      0.58      0.00
    1    3   14      0.44      0.00
    1    3   15      0.21      0.00
    1    3   16     -0.00      0.00
   -1   -4   19      0.05      0.00
   -1   -4   18     -0.14      0.00
   -1   -4   17     -0.05      0.00
   -1   -4   16      0.14      0.00
   -1   -4   15      0.15      0.00
   -1   -4   14      0.30      0.00
   -1   -4   13      0.53      0.00
   -1   -4   12      0.10      0.00
   -1   -4   11     -0.59      0.00
   -1   -4   10     -0.49      0.00
   -1   -4    9      0.25      0.00
   -1   -4    8      1.13      0.00
   -1   -4    7      2.53      0.00
   -1   -4    6      4.18      0.00
   -1   -4    5      4.69      0.00
   -1   -4    4      3.32      0.00
   -1   -4    3      0.60      0.00
   -1   -4    2     -2.09      0.00
   -1   -4    1     -2.63      0.00
    1    4    0     -0.29      0.00
    1    4    1      2.79      0.00
    1    4    2      4.28      0.00
    1    4    3      4.11      0.00
    1    4    4      3.08      0.00
    1    4    5      1.63      0.00
    1    4    6      0.50      0.00
    1    4    7      0.27      0.00
    1    4    8      0.47      0.00
    1    4    9      0.48      0.00
    1    4   10      0.25      0.00
    1    4   11     -0.14      0.00
    1    4   12     -0.60      0.00
    1    4   13     -0.80      0.00
    1    4   14     -0.57      0.00
    1    4   15     -0.11      0.00
    1    4   16      0.22      0.00
   -1   -5   18      0.04      0.00
   -1   -5   17      0.14      0.00
   -1   -5   16     -0.19      0.00
   -1   -5   15     -0.36      0.00
   -1   -5   14     -0.18      0.00
   -1   -5   13     -0.15      0.00
   -1   -5   12     -0.17      0.00
   -1   -5   11      0.15      0.00
   -1   -5   10      0.42      0.00
   -1   -5    9      0.28      0.00
   -1   -5    8      0.06      0.00
   -1   -5    7     -0.36      0.00
   -1   -5    6     -1.52      0.00
   -1   -5    5     -2.85      0.00
   -1   -5    4     -3.15      0.00
   -1   -5    3     -2.08      0.00
   -1   -5    2     -0.34      0.00
   -1   -5    1      1.07      0.00
    1    5    0      1.35      0.00
    1    5    1      0.45      0.00
    1    5    2     -0.83      0.00
    1    5    3     -1.61      0.00
    1    5    4     -1.50      0.00
    1    5    5     -0.78      0.00
    1    5    6     -0.23      0.00
    1    5    7     -0.23      0.00
    1    5    8     -0.41      0.00
    1    5    9     -0.36      0.00
    1    5   10     -0.24      0.00
    1    5   11     -0.17      0.00
    1    5   12      0.07      0.00
    1    5   13      0.44      0.00
    1    5   14      0.58      0.00
    1    5   15      0.30      0.00
   -1   -6   18      0.07      0.00
   -1   -6   17     -0.41      0.00
   -1   -6   16     -0.23      0.00
   -1   -6   15      0.35      0.00
   -1   -6   14      0.38      0.00
   -1   -6   13     -0.06      0.00
   -1   -6   12     -0.29      0.00
   -1   -6   11     -0.25      0.00
   -1   -6   10     -0.23      0.00
   -1   -6    9     -0.24      0.00
   -1   -6    8     -0.27      0.00
   -1   -6    7     -0.26      0.00
   -1   -6    6      0.18      0.00
   -1   -6    5      1.07      0.00
   -1   -6    4      1.75      0.00
   -1   -6    3      1.73      0.00
   -1   -6    2      1.18      0.00
   -1   -6    1      0.45      0.00
    1    6    0     -0.22      0.00
    1    6    1     -0.45      0.00
    1    6    2     -0.01      0.00
    1    6    3      0.65      0.00
    1    6    4      0.80      0.00
    1    6    5      0.45      0.00
    1    6    6      0.27      0.00
    1    6    7      0.49      0.00
    1    6    8      0.65      0.00
    1    6    9      0.44      0.00
    1    6   10      0.14      0.00
    1    6   11      0.10      0.00
    1    6   12      0.26      0.00
    1    6   13      0.26      0.00
    1    6   14      0.03      0.00
   -1   -7   17      0.33      0.00
   -1   -7   16      0.64      0.00
   -1   -7   15      0.13      0.00
   -1   -7   14     -0.38      0.00
   -1   -7   13     -0.19      0.00
   -1   -7   12      0.25      0.00
   -1   -7   11      0.33      0.00
   -1   -7   10      0.09      0.00
   -1   -7    9     -0.12      0.00
   -1   -7    8     -0.06      0.00
   -1   -7    7      0.14      0.00
   -1   -7    6      0.06      0.00
   -1   -7    5     -0.46      0.00
   -1   -7    4     -0.94      0.00
   -1   -7    3     -0.97      0.00
   -1   -7    2     -0.72      0.00
   -1   -7    1     -0.48      0.00
    1    7    0     -0.21      0.00
    1    7    1      0.11      0.00
    1    7    2      0.20      0.00
    1    7    3     -0.00      0.00
    1    7    4     -0.11      0.00
    1    7    5      0.01      0.00
    1    7    6      0.00      0.00
    1    7    7     -0.23      0.00
    1    7    8     -0.34      0.00
    1    7    9     -0.19      0.00
    1    7   10      0.06      0.00
    1    7   11      0.26      0.00
    1    7   12      0.22      0.00
    1    7   13     -0.05      0.00
   -1   -8   16     -0.46      0.00
   -1   -8   15     -0.36      0.00
   -1   -8   14      0.06      0.00
   -1   -8   13      0.12      0.00
   -1   -8   12     -0.16      0.00
   -1   -8   11     -0.35      0.00
   -1   -8   10     -0.25      0.00
   -1   -8    9      0.05      0.00
   -1   -8    8      0.25      0.00
   -1   -8    7      0.12      0.00
   -1   -8    6     -0.07      0.00
   -1   -8    5      0.13      0.00
   -1   -8    4      0.54      0.00
   -1   -8    3      0.71      0.00
   -1   -8    2      0.59      0.00
   -1   -8    1      0.50      0.00
    1    8    0      0.49      0.00
    1    8    1      0.40      0.00
    1    8    2      0.21      0.00
    1    8    3      0.09      0.00
    1    8    4      0.05      0.00
    1    8    5      0.10      0.00
    1    8    6      0.29      0.00
    1    8    7      0.41      0.00
    1    8    8      0.21      0.00
    1    8    9     -0.08      0.00
    1    8   10     -0.09      0.00
    1    8   11     -0.04      0.00
    1    8   12     -0.17      0.00
   -1   -9   15      0.16      0.00
   -1   -9   14     -0.08      0.00
   -1   -9   13     -0.07      0.00
   -1   -9   12      0.15      0.00
   -1   -9   11      0.26      0.00
   -1   -9   10      0.33      0.00
   -1   -9    9      0.38      0.00
   -1   -9    8      0.32      0.00
   -1   -9    7      0.26      0.00
   -1   -9    6      0.31      0.00
   -1   -9    5      0.29      0.00
   -1   -9    4      0.13      0.00
   -1   -9    3      0.05      0.00
   -1   -9    2      0.11      0.00
   -1   -9    1      0.03      0.00
    1    9    0     -0.29      0.00
    1    9    1     -0.61      0.00
    1    9    2     -0.69      0.00
    1    9    3     -0.48      0.00
    1    9    4     -0.18      0.00
    1    9    5     -0.12      0.00
    1    9    6     -0.42      0.00
    1    9    7     -0.70      0.00
    1    9    8     -0.46      0.00
    1    9    9      0.06      0.00
    1    9   10      0.17      0.00
    1    9   11     -0.11      0.00
   -1  -10   14      0.17      0.00
   -1  -10   13      0.24      0.00
   -1  -10   12      0.08      0.00
   -1  -10   11      0.08      0.00
   -1  -10   10      0.19      0.00
   -1  -10    9      0.08      0.00
   -1  -10    8     -0.21      0.00
   -1  -10    7     -0.40      0.00
   -1  -10    6     -0.40      0.00
   -1  -10    5     -0.21      0.00
   -1  -10    4      0.04      0.00
   -1  -10    3      0.01      0.00
   -1  -10    2     -0.35      0.00
   -1  -10    1     -0.61      0.00
    1   10    0     -0.44      0.00
    1   10    1      0.03      0.00
    1   10    2      0.51      0.00
    1   10    3      0.68      0.00
    1   10    4      0.41      0.00
    1   10    5     -0.01      0.00
    1   10    6     -0.11      0.00
    1   10    7      0.10      0.00
    1   10    8      0.19      0.00
    1   10    9     -0.02      0.00
   -1  -11   13     -0.02      0.00
   -1  -11   12      0.05      0.00
   -1  -11   11      0.02      0.00
   -1  -11   10     -0.21      0.00
   -1  -11    9     -0.32      0.00
   -1  -11    8     -0.13      0.00
   -1  -11    7      0.17      0.00
   -1  -11    6      0.35      0.00
   -1  -11    5      0.27      0.00
   -1  -11    4     -0.02      0.00
   -1  -11    3     -0.16      0.00
   -1  -11    2      0.10      0.00
   -1  -11    1      0.45      0.00
    1   11    0      0.54      0.00
    1   11    1      0.42      0.00
    1   11    2      0.17      0.00
    1   11    3     -0.21      0.00
    1   11    4     -0.49      0.00
    1   11    5     -0.37      0.00
    1   11    6     -0.01      0.00
    1   11    7      0.22      0.00
   -1  -12   11     -0.19      0.00
   -1  -12   10      0.01      0.00
   -1  -12    9      0.18      0.00
   -1  -12    8      0.15      0.00
   -1  -12    7      0.07      0.00
   -1  -12    6      0.11      0.00
   -1  -12    5      0.29      0.00
   -1  -12    4      0.47      0.00
   -1  -12    3      0.42      0.00
   -1  -12    2      0.12      0.00
   -1  -12    1     -0.10      0.00
    1   12    0      0.02      0.00
    1   12    1      0.19      0.00
    1   12    2      0.05      0.00
    1   12    3     -0.12      0.00
    1   12    4      0.06      0.00
   -1  -13    8     -0.21      0.00
   -1  -13    7     -0.08      0.00
   -1  -13    6     -0.13      0.00
   -1  -13    5     -0.51      0.00
   -1  -13    4     -0.95      0.00
   -1  -13    3     -1.02      0.00
   -1  -13    2     -0.60      0.00
   -1  -13    1     -0.15      0.00
    1   13    0     -0.15      0.00
   -2   13    2      0.23      0.00
   -2   13    1      0.20      0.00
   -2   13    0      0.33      0.00
    2  -13    1      0.53      0.00
    2  -13    2      0.58      0.00
    2  -13    3      0.46      0.00
    2  -13    4      0.28      0.00
    2  -13    5     -0.08      0.00
    2  -13    6     -0.51      0.00
    2  -13    7     -0.66      0.00
    2  -13    8     -0.55      0.00
   -2   12    5      0.41      0.00
   -2   12    4      0.22      0.00
   -2   12    3     -0.19      0.00
   -2   12    2     -0.46      0.00
   -2   12    1     -0.40      0.00
   -2   12    0     -0.22      0.00
    2  -12    1     -0.17      0.00
    2  -12    2     -0.18      0.00
    2  -12    3     -0.22      0.00
    2  -12    4     -0.25      0.00
    2  -12    5      0.01      0.00
    2  -12    6      0.55      0.00
    2  -12    7      0.82      0.00
    2  -12    8      0.74      0.00
    2  -12    9      0.75      0.00
    2  -12   10      0.76      0.00
   -2   11    8      0.53      0.00
   -2   11    7      0.70      0.00
   -2   11    6      0.36      0.00
   -2   11    5     -0.22      0.00
   -2   11    4     -0.55      0.00
   -2   11    3     -0.27      0.00
   -2   11    2      0.41      0.00
   -2   11    1      0.84      0.00
   -2   11    0      0.79      0.00
    2  -11    1      0.57      0.00
    2  -11    2      0.34      0.00
    2  -11    3      0.12      0.00
    2  -11    4      0.11      0.00
    2  -11    5      0.13      0.00
    2  -11    6     -0.12      0.00
    2  -11    7     -0.37      0.00
    2  -11    8     -0.32      0.00
    2  -11    9     -0.30      0.00
    2  -11   10     -0.42      0.00
    2  -11   11     -0.24      0.00
    2  -11   12      0.12      0.00
    2  -11   13      0.11      0.00
   -2   10   10     -0.47      0.00
   -2   10    9     -0.30      0.00
   -2   10    8     -0.31      0.00
   -2   10    7     -0.48      0.00
   -2   10    6     -0.47      0.00
   -2   10    5     -0.10      0.00
   -2   10    4      0.48      0.00
   -2   10    3      0.77      0.00
   -2   10    2      0.36      0.00
   -2   10    1     -0.30      0.00
   -2   10    0     -0.54      0.00
    2  -10    1     -0.54      0.00
    2  -10    2     -0.58      0.00
    2  -10    3     -0.49      0.00
    2  -10    4     -0.27      0.00
    2  -10    5     -0.18      0.00
    2  -10    6     -0.09      0.00
    2  -10    7      0.07      0.00
    2  -10    8      0.08      0.00
    2  -10    9      0.09      0.00
    2  -10   10      0.22      0.00
    2  -10   11      0.06      0.00
    2  -10   12     -0.35      0.00
    2  -10   13     -0.35      0.00
    2  -10   14      0.02      0.00
   -2    9   11      0.13      0.00
   -2    9   10      0.59      0.00
   -2    9    9      0.64      0.00
   -2    9    8      0.37      0.00
   -2    9    7      0.21      0.00
   -2    9    6      0.20      0.00
   -2    9    5      0.16      0.00
   -2    9    4     -0.11      0.00
   -2    9    3     -0.52      0.00
   -2    9    2     -0.61      0.00
   -2    9    1     -0.25      0.00
   -2    9    0     -0.03      0.00
    2   -9    1     -0.09      0.00
    2   -9    2      0.02      0.00
    2   -9    3      0.27      0.00
    2   -9    4      0.33      0.00
    2   -9    5      0.30      0.00
    2   -9    6      0.28      0.00
    2   -9    7      0.12      0.00
    2   -9    8     -0.08      0.00
    2   -9    9     -0.30      0.00
    2   -9   10     -0.59      0.00
    2   -9   11     -0.59      0.00
    2   -9   12     -0.08      0.00
    2   -9   13      0.20      0.00
    2   -9   14     -0.17      0.00
    2   -9   15     -0.45      0.00
   -2    8   13     -0.05      0.00
   -2    8   12      0.12      0.00
   -2    8   11      0.20      0.00
   -2    8   10     -0.15      0.00
   -2    8    9     -0.42      0.00
   -2    8    8     -0.24      0.00
   -2    8    7      0.03      0.00
   -2    8    6      0.14      0.00
   -2    8    5      0.14      0.00
   -2    8    4      0.07      0.00
   -2    8    3      0.09      0.00
   -2    8    2      0.19      0.00
   -2    8    1      0.12      0.00
   -2    8    0     -0.05      0.00
    2   -8    1     -0.06      0.00
    2   -8    2     -0.05      0.00
    2   -8    3     -0.16      0.00
    2   -8    4     -0.20      0.00
    2   -8    5     -0.24      0.00
    2   -8    6     -0.47      0.00
    2   -8    7     -0.64      0.00
    2   -8    8     -0.50      0.00
    2   -8    9     -0.16      0.00
    2   -8   10      0.31      0.00
    2   -8   11      0.63      0.00
    2   -8   12      0.37      0.00
    2   -8   13     -0.12      0.00
    2   -8   14     -0.11      0.00
    2   -8   15      0.22      0.00
   -2    7   14     -0.31      0.00
   -2    7   13      0.06      0.00
   -2    7   12      0.07      0.00
   -2    7   11     -0.22      0.00
   -2    7   10     -0.21      0.00
   -2    7    9      0.06      0.00
   -2    7    8      0.07      0.00
   -2    7    7     -0.06      0.00
   -2    7    6     -0.11      0.00
   -2    7    5     -0.27      0.00
   -2    7    4     -0.45      0.00
   -2    7    3     -0.36      0.00
   -2    7    2     -0.13      0.00
   -2    7    1     -0.03      0.00
   -2    7    0     -0.01      0.00
    2   -7    1      0.00      0.00
    2   -7    2      0.02      0.00
    2   -7    3      0.07      0.00
    2   -7    4      0.04      0.00
    2   -7    5     -0.08      0.00
    2   -7    6      0.06      0.00
    2   -7    7      0.45      0.00
    2   -7    8      0.67      0.00
    2   -7    9      0.56      0.00
    2   -7   10      0.23      0.00
    2   -7   11     -0.15      0.00
    2   -7   12     -0.25      0.00
    2   -7   13      0.04      0.00
    2   -7   14      0.28      0.00
    2   -7   15      0.25      0.00
    2   -7   16      0.20      0.00
   -2    6   15      0.32      0.00
   -2    6   14      0.08      0.00
   -2    6   13     -0.36      0.00
   -2    6   12     -0.50      0.00
   -2    6   11     -0.09      0.00
   -2    6   10      0.30      0.00
   -2    6    9      0.25      0.00
   -2    6    8      0.06      0.00
   -2    6    7     -0.16      0.00
   -2    6    6     -0.55      0.00
   -2    6    5     -0.65      0.00
   -2    6    4     -0.07      0.00
   -2    6    3      0.49      0.00
   -2    6    2      0.37      0.00
   -2    6    1     -0.11      0.00
   -2    6    0     -0.45      0.00
    2   -6    1     -0.52      0.00
    2   -6    2     -0.30      0.00
    2   -6    3      0.05      0.00
    2   -6    4      0.22      0.00
    2   -6    5      0.12      0.00
    2   -6    6     -0.13      0.00
    2   -6    7     -0.38      0.00
    2   -6    8     -0.57      0.00
    2   -6    9     -0.61      0.00
    2   -6   10     -0.48      0.00
    2   -6   11     -0.19      0.00
    2   -6   12      0.03      0.00
    2   -6   13      0.02      0.00
    2   -6   14     -0.07      0.00
    2   -6   15     -0.08      0.00
    2   -6   16     -0.17      0.00
   -2    5   16     -0.08      0.00
   -2    5   15     -0.31      0.00
   -2    5   14     -0.08      0.00
   -2    5   13      0.48      0.00
   -2    5   12      0.79      0.00
   -2    5   11      0.41      0.00
   -2    5   10     -0.36      0.00
   -2    5    9     -0.85      0.00
   -2    5    8     -0.96      0.00
   -2    5    7     -0.76      0.00
   -2    5    6     -0.07      0.00
   -2    5    5      0.69      0.00
   -2    5    4      0.50      0.00
   -2    5    3     -0.64      0.00
   -2    5    2     -1.48      0.00
   -2    5    1     -1.36      0.00
   -2    5    0     -0.67      0.00
    2   -5    1      0.08      0.00
    2   -5    2      0.43      0.00
    2   -5    3     -0.03      0.00
    2   -5    4     -0.91      0.00
    2   -5    5     -1.15      0.00
    2   -5    6     -0.54      0.00
    2   -5    7      0.14      0.00
    2   -5    8      0.41      0.00
    2   -5    9      0.52      0.00
    2   -5   10      0.61      0.00
    2   -5   11      0.47      0.00
    2   -5   12      0.15      0.00
    2   -5   13     -0.01      0.00
    2   -5   14     -0.02      0.00
    2   -5   15     -0.13      0.00
    2   -5   16     -0.18      0.00
    2   -5   17     -0.00      0.00
   -2    4   17     -0.31      0.00
   -2    4   16     -0.12      0.00
   -2    4   15      0.25      0.00
   -2    4   14      0.36      0.00
   -2    4   13      0.02      0.00
   -2    4   12     -0.34      0.00
   -2    4   11     -0.19      0.00
   -2    4   10      0.48      0.00
   -2    4    9      1.20      0.00
   -2    4    8      1.67      0.00
   -2    4    7      1.80      0.00
   -2    4    6      1.27      0.00
   -2    4    5      0.01      0.00
   -2    4    4     -0.91      0.00
   -2    4    3     -0.38      0.00
   -2    4    2      1.05      0.00
   -2    4    1      1.95      0.00
   -2    4    0      1.93      0.00
    2   -4    1      1.35      0.00
    2   -4    2      0.36      0.00
    2   -4    3     -0.37      0.00
    2   -4    4      0.04      0.00
    2   -4    5      1.10      0.00
    2   -4    6      1.37      0.00
    2   -4    7      0.76      0.00
    2   -4    8      0.25      0.00
    2   -4    9     -0.04      0.00
    2   -4   10     -0.50      0.00
    2   -4   11     -0.80      0.00
    2   -4   12     -0.52      0.00
    2   -4   13     -0.07      0.00
    2   -4   14      0.10      0.00
    2   -4   15      0.15      0.00
    2   -4   16      0.26      0.00
    2   -4   17      0.25      0.00
   -2    3   17     -0.11      0.00
   -2    3   16     -0.06      0.00
   -2    3   15     -0.08      0.00
   -2    3   14     -0.19      0.00
   -2    3   13     -0.06      0.00
   -2    3   12      0.14      0.00
   -2    3   11      0.00      0.00
   -2    3   10     -0.47      0.00
   -2    3    9     -1.10      0.00
   -2    3    8     -1.89      0.00
   -2    3    7     -2.69      0.00
   -2    3    6     -2.80      0.00
   -2    3    5     -1.48      0.00
   -2    3    4      0.87      0.00
   -2    3    3      2.40      0.00
   -2    3    2      1.85      0.00
   -2    3    1      0.30      0.00
   -2    3    0     -0.66      0.00
    2   -3    1     -0.98      0.00
    2   -3    2     -0.80      0.00
    2   -3    3      0.32      0.00
    2   -3    4      1.58      0.00
    2   -3    5      1.45      0.00
    2   -3    6      0.32      0.00
    2   -3    7     -0.32      0.00
    2   -3    8     -0.35      0.00
    2   -3    9     -0.29      0.00
    2   -3   10      0.10      0.00
    2   -3   11      0.75      0.00
    2   -3   12      0.89      0.00
    2   -3   13      0.41      0.00
    2   -3   14     -0.01      0.00
    2   -3   15     -0.12      0.00
    2   -3   16     -0.18      0.00
    2   -3   17     -0.21      0.00
   -2    2   18     -0.34      0.00
   -2    2   17      0.06      0.00
   -2    2   16      0.17      0.00
   -2    2   15     -0.02      0.00
   -2    2   14     -0.06      0.00
   -2    2   13     -0.14      0.00
   -2    2   12     -0.33      0.00
   -2    2   11     -0.19      0.00
   -2    2   10      0.21      0.00
   -2    2    9      0.74      0.00
   -2    2    8      1.98      0.00
   -2    2    7      4.20      0.00
   -2    2    6      6.38      0.00
   -2    2    5      6.79      0.00
   -2    2    4      4.22      0.00
   -2    2    3     -0.29      0.00
   -2    2    2     -3.37      0.00
   -2    2    1     -3.12      0.00
   -2    2    0     -1.39      0.00
    2   -2    1     -0.17      0.00
    2   -2    2      0.60      0.00
    2   -2    3      0.63      0.00
    2   -2    4     -0.82      0.00
    2   -2    5     -2.32      0.00
    2   -2    6     -2.06      0.00
    2   -2    7     -0.85      0.00
    2   -2    8     -0.18      0.00
    2   -2    9      0.05      0.00
    2   -2   10      0.11      0.00
    2   -2   11     -0.22      0.00
    2   -2   12     -0.57      0.00
    2   -2   13     -0.44      0.00
    2   -2   14     -0.13      0.00
    2   -2   15     -0.04      0.00
    2   -2   16     -0.02      0.00
    2   -2   17      0.08      0.00
   -2    1   18      0.53      0.00
   -2    1   17      0.19      0.00
   -2    1   16     -0.02      0.00
   -2    1   15      0.18      0.00
   -2    1   14      0.14      0.00
   -2    1   13     -0.11      0.00
   -2    1   12     -0.07      0.00
   -2    1   11      0.01      0.00
   -2    1   10     -0.02      0.00
   -2    1    9      0.09      0.00
   -2    1    8     -0.56      0.00
   -2    1    7     -3.28      0.00
   -2    1    6     -7.59      0.00
   -2    1    5    -11.66      0.00
   -2    1    4    -12.96      0.00
   -2    1    3     -9.15      0.00
   -2    1    2     -1.75      0.00
   -2    1    1      3.73      0.00
   -2    1    0      4.48      0.00
    2   -1    1      2.91      0.00
    2   -1    2      1.37      0.00
    2   -1    3      0.23      0.00
    2   -1    4      0.34      0.00
    2   -1    5      1.76      0.00
    2   -1    6      2.43      0.00
    2   -1    7      1.48      0.00
    2   -1    8      0.53      0.00
    2   -1    9      0.37      0.00
    2   -1   10      0.30      0.00
    2   -1   11      0.16      0.00
    2   -1   12      0.15      0.00
    2   -1   13      0.07      0.00
    2   -1   14     -0.08      0.00
    2   -1   15     -0.01      0.00
    2   -1   16      0.18      0.00
    2   -1   17      0.19      0.00
   -2    0   18     -0.19      0.00
   -2    0   17      0.13      0.00
   -2    0   16      0.37      0.00
   -2    0   15      0.06      0.00
   -2    0   14     -0.05      0.00
   -2    0   13      0.48      0.00
   -2    0   12      0.85      0.00
   -2    0   11      0.77      0.00
   -2    0   10      0.52      0.00
   -2    0    9     -0.28      0.00
   -2    0    8     -1.11      0.00
   -2    0    7     -0.01      0.00
   -2    0    6      3.71      0.00
   -2    0    5      9.36      0.00
   -2    0    4     15.89      0.00
   -2    0    2     15.77      0.00
   -2    0    1      6.29      0.00
    2    0    0     -1.32      0.00
    2    0    1     -3.52      0.00
    2    0    2     -2.61      0.00
    2    0    3     -1.11      0.00
    2    0    4     -0.21      0.00
    2    0    5     -0.76      0.00
    2    0    6     -1.72      0.00
    2    0    7     -1.38      0.00
    2    0    8     -0.38      0.00
    2    0    9     -0.10      0.00
    2    0   10     -0.26      0.00
    2    0   11     -0.16      0.00
    2    0   12      0.04      0.00
    2    0   13      0.21      0.00
    2    0   14      0.43      0.00
    2    0   15      0.47      0.00
    2    0   16      0.21      0.00
    2    0   17     -0.10      0.00
   -2   -1   18      0.11      0.00
   -2   -1   17     -0.14      0.00
   -2   -1   16     -0.53      0.00
   -2   -1   15     -0.38      0.00
   -2   -1   14     -0.06      0.00
   -2   -1   13     -0.51      0.00
   -2   -1   12     -1.30      0.00
   -2   -1   11     -1.58      0.00
   -2   -1   10     -1.49      0.00
   -2   -1    9     -0.75      0.00
   -2   -1    8      0.99      0.00
   -2   -1    7      2.15      0.00
   -2   -1    6      1.28      0.00
   -2   -1    5     -1.59      0.00
   -2   -1    4     -7.56      0.00
   -2   -1    3    -16.67      0.00
   -2   -1    1    -19.62      0.00
    2    1    0    -10.04      0.00
    2    1    1     -2.30      0.00
    2    1    2      0.47      0.00
    2    1    3      0.25      0.00
    2    1    4     -0.65      0.00
    2    1    5     -0.74      0.00
    2    1    6      0.16      0.00
    2    1    7      0.71      0.00
    2    1    8      0.32      0.00
    2    1    9     -0.03      0.00
    2    1   10      0.01      0.00
    2    1   11     -0.04      0.00
    2    1   12     -0.16      0.00
    2    1   13     -0.14      0.00
    2    1   14     -0.23      0.00
    2    1   15     -0.47      0.00
    2    1   16     -0.58      0.00
   -2   -2   18     -0.14      0.00
   -2   -2   17     -0.11      0.00
   -2   -2   16      0.17      0.00
   -2   -2   15      0.22      0.00
   -2   -2   14     -0.13      0.00
   -2   -2   13      0.00      0.00
   -2   -2   12      0.95      0.00
   -2   -2   11      1.86      0.00
   -2   -2   10      2.41      0.00
   -2   -2    9      2.49      0.00
   -2   -2    8      1.27      0.00
   -2   -2    7     -0.92      0.00
   -2   -2    6     -2.49      0.00
   -2   -2    5     -3.15      0.00
   -2   -2    4     -2.16      0.00
   -2   -2    3      3.45      0.00
   -2   -2    1     18.35      0.00
    2    2    0     15.38      0.00
    2    2    1      8.15      0.00
    2    2    2      2.85      0.00
    2    2    3      0.86      0.00
    2    2    4      0.69      0.00
    2    2    5      0.91      0.00
    2    2    6      0.60      0.00
    2    2    7     -0.07      0.00
    2    2    8     -0.41      0.00
    2    2    9     -0.45      0.00
    2    2   10     -0.43      0.00
    2    2   11     -0.20      0.00
    2    2   12      0.04      0.00
    2    2   13     -0.10      0.00
    2    2   14     -0.36      0.00
    2    2   15     -0.33      0.00
    2    2   16     -0.03      0.00
   -2   -3   19     -0.04      0.00
   -2   -3   18     -0.04      0.00
   -2   -3   17     -0.10      0.00
   -2   -3   16     -0.26      0.00
   -2   -3   15     -0.37      0.00
   -2   -3   14     -0.00      0.00
   -2   -3   13      0.48      0.00
   -2   -3   12      0.14      0.00
   -2   -3   11     -0.98      0.00
   -2   -3   10     -2.21      0.00
   -2   -3    9     -3.32      0.00
   -2   -3    8     -3.72      0.00
   -2   -3    7     -2.67      0.00
   -2   -3    6     -0.79      0.00
   -2   -3    5      1.13      0.00
   -2   -3    4      2.92      0.00
   -2   -3    3      2.63      0.00
   -2   -3    2     -2.03      0.00
   -2   -3    1     -8.48      0.00
    2    3    0    -11.11      0.00
    2    3    1     -8.78      0.00
    2    3    2     -5.11      0.00
    2    3    3     -2.66      0.00
    2    3    4     -1.44      0.00
    2    3    5     -0.97      0.00
    2    3    6     -0.84      0.00
    2    3    7     -0.59      0.00
    2    3    8     -0.18      0.00
    2    3    9      0.27      0.00
    2    3   10      0.60      0.00
    2    3   11      0.49      0.00
    2    3   12      0.08      0.00
    2    3   13     -0.06      0.00
    2    3   14      0.23      0.00
    2    3   15      0.52      0.00
   -2   -4   19      0.09      0.00
   -2   -4   18      0.09      0.00
   -2   -4   17      0.23      0.00
   -2   -4   16      0.41      0.00
   -2   -4   15      0.65      0.00
   -2   -4   14      0.61      0.00
   -2   -4   13     -0.07      0.00
   -2   -4   12     -0.72      0.00
   -2   -4   11     -0.43      0.00
   -2   -4   10      0.65      0.00
   -2   -4    9      1.96      0.00
   -2   -4    8      3.19      0.00
   -2   -4    7      3.82      0.00
   -2   -4    6      3.34      0.00
   -2   -4    5      1.93      0.00
   -2   -4    4     -0.03      0.00
   -2   -4    3     -1.60      0.00
   -2   -4    2     -1.07      0.00
   -2   -4    1      1.86      0.00
    2    4    0      4.66      0.00
    2    4    1      5.20      0.00
    2    4    2      4.09      0.00
    2    4    3      2.80      0.00
    2    4    4      1.73      0.00
    2    4    5      0.93      0.00
    2    4    6      0.58      0.00
    2    4    7      0.52      0.00
    2    4    8      0.41      0.00
    2    4    9      0.06      0.00
    2    4   10     -0.44      0.00
    2    4   11     -0.71      0.00
    2    4   12     -0.49      0.00
    2    4   13     -0.03      0.00
    2    4   14      0.20      0.00
    2    4   15      0.09      0.00
   -2   -5   19     -0.17      0.00
   -2   -5   18     -0.09      0.00
   -2   -5   17     -0.20      0.00
   -2   -5   16     -0.32      0.00
   -2   -5   15     -0.42      0.00
   -2   -5   14     -0.63      0.00
   -2   -5   13     -0.51      0.00
   -2   -5   12      0.18      0.00
   -2   -5   11      0.69      0.00
   -2   -5   10      0.37      0.00
   -2   -5    9     -0.43      0.00
   -2   -5    8     -1.30      0.00
   -2   -5    7     -2.22      0.00
   -2   -5    6     -2.88      0.00
   -2   -5    5     -2.69      0.00
   -2   -5    4     -1.53      0.00
   -2   -5    3     -0.03      0.00
   -2   -5    2      0.84      0.00
   -2   -5    1      0.46      0.00
    2    5    0     -0.72      0.00
    2    5    1     -1.63      0.00
    2    5    2     -1.79      0.00
    2    5    3     -1.46      0.00
    2    5    4     -0.94      0.00
    2    5    5     -0.47      0.00
    2    5    6     -0.25      0.00
    2    5    7     -0.24      0.00
    2    5    8     -0.26      0.00
    2    5    9     -0.20      0.00
    2    5   10      0.01      0.00
    2    5   11      0.39      0.00
    2    5   12      0.69      0.00
    2    5   13      0.57      0.00
    2    5   14      0.10      0.00
    2    5   15     -0.24      0.00
   -2   -6   18     -0.08      0.00
   -2   -6   17      0.02      0.00
   -2   -6   16      0.27      0.00
   -2   -6   15      0.29      0.00
   -2   -6   14      0.19      0.00
   -2   -6   13      0.20      0.00
   -2   -6   12      0.09      0.00
   -2   -6   11     -0.26      0.00
   -2   -6   10     -0.40      0.00
   -2   -6    9     -0.18      0.00
   -2   -6    8      0.17      0.00
   -2   -6    7      0.69      0.00
   -2   -6    6      1.44      0.00
   -2   -6    5      1.95      0.00
   -2   -6    4      1.74      0.00
   -2   -6    3      1.03      0.00
   -2   -6    2      0.29      0.00
   -2   -6    1     -0.17      0.00
    2    6    0     -0.17      0.00
    2    6    1      0.28      0.00
    2    6    2      0.78      0.00
    2    6    3      0.93      0.00
    2    6    4      0.74      0.00
    2    6    5      0.57      0.00
    2    6    6      0.59      0.00
    2    6    7      0.63      0.00
    2    6    8      0.53      0.00
    2    6    9      0.42      0.00
    2    6   10      0.43      0.00
    2    6   11      0.37      0.00
    2    6   12      0.01      0.00
    2    6   13     -0.40      0.00
    2    6   14     -0.39      0.00
   -2   -7   17      0.36      0.00
   -2   -7   14     -0.28      0.00
   -2   -7   13     -0.00      0.00
   -2   -7   12      0.12      0.00
   -2   -7   11      0.08      0.00
   -2   -7   10      0.01      0.00
   -2   -7    9      0.06      0.00
   -2   -7    8      0.23      0.00
   -2   -7    7      0.12      0.00
   -2   -7    6     -0.47      0.00
   -2   -7    5     -1.09      0.00
   -2   -7    4     -1.16      0.00
   -2   -7    3     -0.84      0.00
   -2   -7    2     -0.51      0.00
   -2   -7    1     -0.18      0.00
    2    7    0      0.18      0.00
    2    7    1      0.28      0.00
    2    7    2      0.03      0.00
    2    7    3     -0.20      0.00
    2    7    4     -0.22      0.00
    2    7    5     -0.26      0.00
    2    7    6     -0.40      0.00
    2    7    7     -0.46      0.00
    2    7    8     -0.33      0.00
    2    7    9     -0.14      0.00
    2    7   10     -0.10      0.00
    2    7   11     -0.25      0.00
    2    7   12     -0.30      0.00
   -2   -8   16     -0.32      0.00
   -2   -8   15      0.09      0.00
   -2   -8   14      0.34      0.00
   -2   -8   13      0.19      0.00
   -2   -8   12     -0.15      0.00
   -2   -8   11     -0.27      0.00
   -2   -8   10      0.02      0.00
   -2   -8    9      0.30      0.00
   -2   -8    8      0.09      0.00
   -2   -8    7     -0.27      0.00
   -2   -8    6     -0.03      0.00
   -2   -8    5      0.63      0.00
   -2   -8    4      0.93      0.00
   -2   -8    3      0.78      0.00
   -2   -8    2      0.62      0.00
   -2   -8    1      0.48      0.00
    2    8    0      0.19      0.00
    2    8    1     -0.12      0.00
    2    8    2     -0.24      0.00
    2    8    3     -0.19      0.00
    2    8    4     -0.03      0.00
    2    8    5      0.24      0.00
    2    8    6      0.41      0.00
    2    8    7      0.24      0.00
    2    8    8     -0.07      0.00
    2    8    9     -0.18      0.00
    2    8   10     -0.14      0.00
    2    8   11     -0.07      0.00
    2    8   12      0.01      0.00
   -2   -9   15      0.04      0.00
   -2   -9   14     -0.08      0.00
   -2   -9   13     -0.07      0.00
   -2   -9   12      0.13      0.00
   -2   -9   11      0.51      0.00
   -2   -9   10      0.66      0.00
   -2   -9    9      0.33      0.00
   -2   -9    8      0.11      0.00
   -2   -9    7      0.33      0.00
   -2   -9    6      0.47      0.00
   -2   -9    5      0.19      0.00
   -2   -9    4     -0.07      0.00
   -2   -9    3     -0.11      0.00
   -2   -9    2     -0.25      0.00
   -2   -9    1     -0.52      0.00
    2    9    0     -0.59      0.00
    2    9    1     -0.36      0.00
    2    9    2     -0.02      0.00
    2    9    3      0.24      0.00
    2    9    4      0.10      0.00
    2    9    5     -0.50      0.00
    2    9    6     -0.99      0.00
    2    9    7     -0.73      0.00
    2    9    8     -0.05      0.00
    2    9    9      0.25      0.00
    2    9   10      0.06      0.00
   -2  -10   14      0.21      0.00
   -2  -10   13      0.13      0.00
   -2  -10   12      0.12      0.00
   -2  -10   11     -0.01      0.00
   -2  -10   10     -0.37      0.00
   -2  -10    9     -0.57      0.00
   -2  -10    8     -0.43      0.00
   -2  -10    7     -0.31      0.00
   -2  -10    6     -0.25      0.00
   -2  -10    5     -0.10      0.00
   -2  -10    4     -0.14      0.00
   -2  -10    3     -0.48      0.00
   -2  -10    2     -0.57      0.00
   -2  -10    1     -0.16      0.00
    2   10    0      0.35      0.00
    2   10    1      0.55      0.00
    2   10    2      0.33      0.00
    2   10    3     -0.25      0.00
    2   10    4     -0.64      0.00
    2   10    5     -0.26      0.00
    2   10    6      0.50      0.00
    2   10    7      0.68      0.00
    2   10    8      0.13      0.00
   -2  -11   13     -0.21      0.00
   -2  -11   12     -0.25      0.00
   -2  -11   11     -0.44      0.00
   -2  -11   10     -0.45      0.00
   -2  -11    9     -0.19      0.00
   -2  -11    8      0.01      0.00
   -2  -11    7      0.08      0.00
   -2  -11    6     -0.02      0.00
   -2  -11    5     -0.29      0.00
   -2  -11    4     -0.36      0.00
   -2  -11    3      0.11      0.00
   -2  -11    2      0.66      0.00
   -2  -11    1      0.67      0.00
    2   11    0      0.28      0.00
    2   11    1     -0.16      0.00
    2   11    2     -0.43      0.00
    2   11    3     -0.21      0.00
    2   11    4      0.42      0.00
    2   11    5      0.73      0.00
    2   11    6      0.36      0.00
   -2  -12   10      0.40      0.00
   -2  -12    9      0.46      0.00
   -2  -12    8      0.40      0.00
   -2  -12    7      0.37      0.00
   -2  -12    6      0.38      0.00
   -2  -12    5      0.49      0.00
   -2  -12    4      0.53      0.00
   -2  -12    3      0.16      0.00
   -2  -12    2     -0.39      0.00
   -2  -12    1     -0.56      0.00
    2   12    0     -0.37      0.00
    2   12    1     -0.16      0.00
    2   12    2      0.09      0.00
    2   12    3      0.32      0.00
    2   12    4      0.20      0.00
   -2  -13    9     -0.22      0.00
   -2  -13    8     -0.29      0.00
   -2  -13    7     -0.46      0.00
   -2  -13    6     -0.76      0.00
   -2  -13    5     -1.06      0.00
   -2  -13    4     -1.14      0.00
   -2  -13    3     -0.76      0.00
   -2  -13    2     -0.15      0.00
   -2  -13    1      0.11      0.00
   -3   13    2      0.25      0.00
   -3   13    1      0.34      0.00
   -3   13    0      0.48      0.00
    3  -13    1      0.43      0.00
    3  -13    2      0.25      0.00
    3  -13    3      0.17      0.00
    3  -13    4      0.09      0.00
    3  -13    5     -0.14      0.00
    3  -13    6     -0.30      0.00
   -3   12    6      0.28      0.00
   -3   12    5      0.25      0.00
   -3   12    4      0.05      0.00
   -3   12    3     -0.07      0.00
   -3   12    2     -0.03      0.00
   -3   12    1     -0.07      0.00
   -3   12    0     -0.23      0.00
    3  -12    1     -0.24      0.00
    3  -12    2     -0.15      0.00
    3  -12    3     -0.21      0.00
    3  -12    4     -0.16      0.00
    3  -12    5      0.17      0.00
    3  -12    6      0.42      0.00
    3  -12    7      0.37      0.00
    3  -12    8      0.27      0.00
    3  -12    9      0.19      0.00
   -3   11    8      0.43      0.00
   -3   11    7      0.31      0.00
   -3   11    6     -0.02      0.00
   -3   11    5     -0.21      0.00
   -3   11    4     -0.00      0.00
   -3   11    3      0.34      0.00
   -3   11    2      0.39      0.00
   -3   11    1      0.29      0.00
   -3   11    0      0.27      0.00
    3  -11    1      0.10      0.00
    3  -11    2     -0.19      0.00
    3  -11    3     -0.16      0.00
    3  -11    4      0.06      0.00
    3  -11    5     -0.09      0.00
    3  -11    6     -0.40      0.00
    3  -11    7     -0.41      0.00
    3  -11    8     -0.32      0.00
    3  -11    9     -0.34      0.00
    3  -11   10     -0.23      0.00
    3  -11   11     -0.04      0.00
   -3   10   10      0.26      0.00
   -3   10    9      0.11      0.00
   -3   10    8     -0.30      0.00
   -3   10    7     -0.54      0.00
   -3   10    6     -0.32      0.00
   -3   10    5      0.18      0.00
   -3   10    4      0.32      0.00
   -3   10    3     -0.14      0.00
   -3   10    2     -0.61      0.00
   -3   10    1     -0.68      0.00
   -3   10    0     -0.67      0.00
    3  -10    1     -0.63      0.00
    3  -10    2     -0.29      0.00
    3  -10    3      0.01      0.00
    3  -10    4     -0.07      0.00
    3  -10    5     -0.14      0.00
    3  -10    6      0.03      0.00
    3  -10    7      0.10      0.00
    3  -10    8      0.10      0.00
    3  -10    9      0.21      0.00
    3  -10   10      0.14      0.00
    3  -10   11     -0.12      0.00
    3  -10   12     -0.12      0.00
    3  -10   13      0.12      0.00
   -3    9   11      0.18      0.00
   -3    9   10     -0.02      0.00
   -3    9    9     -0.19      0.00
   -3    9    8     -0.03      0.00
   -3    9    7      0.31      0.00
   -3    9    6      0.39      0.00
   -3    9    5     -0.04      0.00
   -3    9    4     -0.63      0.00
   -3    9    3     -0.60      0.00
   -3    9    2     -0.04      0.00
   -3    9    1      0.21      0.00
   -3    9    0      0.09      0.00
    3   -9    1      0.11      0.00
    3   -9    2      0.23      0.00
    3   -9    3      0.20      0.00
    3   -9    4      0.21      0.00
    3   -9    5      0.24      0.00
    3   -9    6      0.13      0.00
    3   -9    7      0.05      0.00
    3   -9    8     -0.00      0.00
    3   -9    9     -0.24      0.00
    3   -9   10     -0.29      0.00
    3   -9   11      0.10      0.00
    3   -9   12      0.27      0.00
    3   -9   13     -0.15      0.00
    3   -9   14     -0.51      0.00
   -3    8   13     -0.38      0.00
   -3    8   12     -0.13      0.00
   -3    8   11     -0.23      0.00
   -3    8   10     -0.29      0.00
   -3    8    9     -0.09      0.00
   -3    8    8      0.06      0.00
   -3    8    7     -0.06      0.00
   -3    8    6     -0.29      0.00
   -3    8    5     -0.28      0.00
   -3    8    4      0.10      0.00
   -3    8    3      0.40      0.00
   -3    8    2      0.14      0.00
   -3    8    1     -0.24      0.00
   -3    8    0     -0.13      0.00
    3   -8    1      0.13      0.00
    3   -8    2      0.08      0.00
    3   -8    3     -0.15      0.00
    3   -8    4     -0.39      0.00
    3   -8    5     -0.57      0.00
    3   -8    6     -0.52      0.00
    3   -8    7     -0.34      0.00
    3   -8    8     -0.18      0.00
    3   -8    9      0.11      0.00
    3   -8   10      0.33      0.00
    3   -8   11     -0.03      0.00
    3   -8   12     -0.56      0.00
    3   -8   13     -0.38      0.00
    3   -8   14      0.33      0.00
    3   -8   15      0.70      0.00
   -3    7   14      0.53      0.00
   -3    7   13      0.57      0.00
   -3    7   12      0.11      0.00
   -3    7   11      0.00      0.00
   -3    7   10      0.25      0.00
   -3    7    9      0.25      0.00
   -3    7    8      0.03      0.00
   -3    7    7     -0.10      0.00
   -3    7    6     -0.14      0.00
   -3    7    5     -0.10      0.00
   -3    7    4      0.00      0.00
   -3    7    3      0.03      0.00
   -3    7    2      0.05      0.00
   -3    7    1      0.17      0.00
   -3    7    0      0.17      0.00
    3   -7    1      0.01      0.00
    3   -7    2     -0.03      0.00
    3   -7    3      0.10      0.00
    3   -7    4      0.30      0.00
    3   -7    5      0.57      0.00
    3   -7    6      0.79      0.00
    3   -7    7      0.73      0.00
    3   -7    8      0.51      0.00
    3   -7    9      0.19      0.00
    3   -7   10     -0.16      0.00
    3   -7   11     -0.08      0.00
    3   -7   12      0.58      0.00
    3   -7   13      1.06      0.00
    3   -7   14      0.79      0.00
    3   -7   15      0.15      0.00
   -3    6   15      0.47      0.00
   -3    6   14     -0.15      0.00
   -3    6   13     -0.38      0.00
   -3    6   12      0.07      0.00
   -3    6   11      0.38      0.00
   -3    6   10      0.09      0.00
   -3    6    9     -0.23      0.00
   -3    6    8     -0.26      0.00
   -3    6    7     -0.25      0.00
   -3    6    6     -0.09      0.00
   -3    6    5      0.32      0.00
   -3    6    4      0.38      0.00
   -3    6    3     -0.12      0.00
   -3    6    2     -0.59      0.00
   -3    6    1     -0.63      0.00
   -3    6    0     -0.34      0.00
    3   -6    1      0.10      0.00
    3   -6    2      0.36      0.00
    3   -6    3      0.25      0.00
    3   -6    4     -0.07      0.00
    3   -6    5     -0.44      0.00
    3   -6    6     -0.83      0.00
    3   -6    7     -1.04      0.00
    3   -6    8     -0.91      0.00
    3   -6    9     -0.58      0.00
    3   -6   10     -0.16      0.00
    3   -6   11      0.14      0.00
    3   -6   12     -0.03      0.00
    3   -6   13     -0.58      0.00
    3   -6   14     -0.94      0.00
    3   -6   15     -0.82      0.00
    3   -6   16     -0.43      0.00
   -3    5   16     -0.71      0.00
   -3    5   15     -0.40      0.00
   -3    5   14      0.18      0.00
   -3    5   13      0.46      0.00
   -3    5   12      0.08      0.00
   -3    5   11     -0.50      0.00
   -3    5   10     -0.55      0.00
   -3    5    9     -0.27      0.00
   -3    5    8     -0.07      0.00
   -3    5    7      0.22      0.00
   -3    5    6      0.42      0.00
   -3    5    5     -0.07      0.00
   -3    5    4     -0.81      0.00
   -3    5    3     -0.66      0.00
   -3    5    2      0.30      0.00
   -3    5    1      1.16      0.00
   -3    5    0      1.45      0.00
    3   -5    1      1.00      0.00
    3   -5    2     -0.09      0.00
    3   -5    3     -1.04      0.00
    3   -5    4     -1.07      0.00
    3   -5    5     -0.31      0.00
    3   -5    6      0.57      0.00
    3   -5    7      1.10      0.00
    3   -5    8      1.16      0.00
    3   -5    9      0.91      0.00
    3   -5   10      0.58      0.00
    3   -5   11      0.19      0.00
    3   -5   12     -0.13      0.00
    3   -5   13     -0.11      0.00
    3   -5   14      0.14      0.00
    3   -5   15      0.28      0.00
    3   -5   16      0.23      0.00
   -3    4   17      0.15      0.00
   -3    4   16      0.60      0.00
   -3    4   15      0.45      0.00
   -3    4   14     -0.09      0.00
   -3    4   13     -0.46      0.00
   -3    4   12     -0.29      0.00
   -3    4   11      0.30      0.00
   -3    4   10      0.79      0.00
   -3    4    9      0.95      0.00
   -3    4    8      0.91      0.00
   -3    4    7      0.58      0.00
   -3    4    6      0.01      0.00
   -3    4    5      0.09      0.00
   -3    4    4      1.16      0.00
   -3    4    3      2.01      0.00
   -3    4    2      1.65      0.00
   -3    4    1      0.48      0.00
   -3    4    0     -0.86      0.00
    3   -4    1     -1.83      0.00
    3   -4    2     -1.44      0.00
    3   -4    3      0.42      0.00
    3   -4    4      2.07      0.00
    3   -4    5      2.03      0.00
    3   -4    6      0.80      0.00
    3   -4    7     -0.33      0.00
    3   -4    8     -0.80      0.00
    3   -4    9     -0.83      0.00
    3   -4   10     -0.77      0.00
    3   -4   11     -0.59      0.00
    3   -4   12     -0.22      0.00
    3   -4   13      0.10      0.00
    3   -4   14      0.17      0.00
    3   -4   15      0.17      0.00
    3   -4   16      0.28      0.00
    3   -4   17      0.31      0.00
   -3    3   17      0.12      0.00
   -3    3   16     -0.35      0.00
   -3    3   15     -0.42      0.00
   -3    3   14     -0.05      0.00
   -3    3   13      0.27      0.00
   -3    3   12      0.23      0.00
   -3    3   11     -0.12      0.00
   -3    3   10     -0.65      0.00
   -3    3    9     -1.16      0.00
   -3    3    8     -1.38      0.00
   -3    3    7     -1.00      0.00
   -3    3    6      0.02      0.00
   -3    3    5      0.86      0.00
   -3    3    4      0.37      0.00
   -3    3    3     -1.09      0.00
   -3    3    2     -1.95      0.00
   -3    3    1     -1.56      0.00
   -3    3    0     -0.32      0.00
    3   -3    1      1.47      0.00
    3   -3    2      2.88      0.00
    3   -3    3      2.39      0.00
    3   -3    4      0.22      0.00
    3   -3    5     -1.42      0.00
    3   -3    6     -1.28      0.00
    3   -3    7     -0.32      0.00
    3   -3    8      0.33      0.00
    3   -3    9      0.61      0.00
    3   -3   10      0.82      0.00
    3   -3   11      0.91      0.00
    3   -3   12      0.65      0.00
    3   -3   13      0.21      0.00
    3   -3   14     -0.02      0.00
    3   -3   15     -0.02      0.00
    3   -3   16     -0.13      0.00
    3   -3   17     -0.32      0.00
   -3    2   18     -0.52      0.00
   -3    2   17     -0.28      0.00
   -3    2   16      0.08      0.00
   -3    2   15      0.22      0.00
   -3    2   14     -0.08      0.00
   -3    2   13     -0.39      0.00
   -3    2   12     -0.32      0.00
   -3    2   11     -0.03      0.00
   -3    2   10      0.47      0.00
   -3    2    9      1.38      0.00
   -3    2    8      2.42      0.00
   -3    2    7      2.79      0.00
   -3    2    6      1.86      0.00
   -3    2    5     -0.14      0.00
   -3    2    4     -1.63      0.00
   -3    2    3     -1.13      0.00
   -3    2    2      0.66      0.00
   -3    2    1      1.76      0.00
   -3    2    0      1.42      0.00
    3   -2    1      0.01      0.00
    3   -2    2     -1.95      0.00
    3   -2    3     -3.30      0.00
    3   -2    4     -2.76      0.00
    3   -2    5     -0.97      0.00
    3   -2    6      0.20      0.00
    3   -2    7      0.22      0.00
    3   -2    8     -0.06      0.00
    3   -2    9     -0.22      0.00
    3   -2   10     -0.46      0.00
    3   -2   11     -0.73      0.00
    3   -2   12     -0.71      0.00
    3   -2   13     -0.36      0.00
    3   -2   14     -0.06      0.00
    3   -2   15     -0.07      0.00
    3   -2   16     -0.14      0.00
    3   -2   17     -0.04      0.00
   -3    1   18      0.71      0.00
   -3    1   17      0.45      0.00
   -3    1   16      0.17      0.00
   -3    1   15     -0.09      0.00
   -3    1   14     -0.07      0.00
   -3    1   13      0.22      0.00
   -3    1   12      0.31      0.00
   -3    1   11      0.18      0.00
   -3    1   10     -0.03      0.00
   -3    1    9     -0.88      0.00
   -3    1    8     -2.74      0.00
   -3    1    7     -4.86      0.00
   -3    1    6     -5.82      0.00
   -3    1    5     -4.47      0.00
   -3    1    4     -1.06      0.00
   -3    1    3      1.83      0.00
   -3    1    2      1.77      0.00
   -3    1    1     -0.30      0.00
   -3    1    0     -1.62      0.00
    3   -1    1     -1.21      0.00
    3   -1    2      0.28      0.00
    3   -1    3      2.04      0.00
    3   -1    4      2.99      0.00
    3   -1    5      2.36      0.00
    3   -1    6      1.02      0.00
    3   -1    7      0.29      0.00
    3   -1    8      0.23      0.00
    3   -1    9      0.25      0.00
    3   -1   10      0.26      0.00
    3   -1   11      0.35      0.00
    3   -1   12      0.37      0.00
    3   -1   13      0.22      0.00
    3   -1   14      0.07      0.00
    3   -1   15      0.14      0.00
    3   -1   16      0.26      0.00
   -3    0   18     -0.43      0.00
   -3    0   17     -0.17      0.00
   -3    0   16     -0.13      0.00
   -3    0   15      0.04      0.00
   -3    0   14      0.44      0.00
   -3    0   13      0.53      0.00
   -3    0   12      0.34      0.00
   -3    0   11      0.13      0.00
   -3    0   10     -0.29      0.00
   -3    0    9     -0.46      0.00
   -3    0    8      0.81      0.00
   -3    0    7      3.65      0.00
   -3    0    6      6.85      0.00
   -3    0    5      8.68      0.00
   -3    0    4      7.27      0.00
   -3    0    3      2.72      0.00
   -3    0    2     -1.43      0.00
   -3    0    1     -2.11      0.00
    3    0    0     -0.54      0.00
    3    0    1      0.45      0.00
    3    0    2      0.06      0.00
    3    0    3     -1.14      0.00
    3    0    4     -2.40      0.00
    3    0    5     -2.71      0.00
    3    0    6     -1.79      0.00
    3    0    7     -0.70      0.00
    3    0    8     -0.35      0.00
    3    0    9     -0.44      0.00
    3    0   10     -0.44      0.00
    3    0   11     -0.29      0.00
    3    0   12     -0.08      0.00
    3    0   13      0.15      0.00
    3    0   14      0.25      0.00
    3    0   15      0.07      0.00
    3    0   16     -0.26      0.00
   -3   -1   18      0.36      0.00
   -3   -1   17     -0.09      0.00
   -3   -1   16     -0.08      0.00
   -3   -1   15      0.05      0.00
   -3   -1   14     -0.42      0.00
   -3   -1   13     -1.01      0.00
   -3   -1   12     -1.10      0.00
   -3   -1   11     -0.88      0.00
   -3   -1   10     -0.25      0.00
   -3   -1    9      0.89      0.00
   -3   -1    8      1.27      0.00
   -3   -1    7     -0.35      0.00
   -3   -1    6     -3.63      0.00
   -3   -1    5     -7.64      0.00
   -3   -1    4    -10.71      0.00
   -3   -1    3    -10.26      0.00
   -3   -1    2     -6.07      0.00
   -3   -1    1     -1.67      0.00
    3    1    0      0.02      0.00
    3    1    1     -0.21      0.00
    3    1    2     -0.52      0.00
    3    1    3     -0.22      0.00
    3    1    4      0.70      0.00
    3    1    5      1.62      0.00
    3    1    6      1.58      0.00
    3    1    7      0.73      0.00
    3    1    8      0.07      0.00
    3    1    9     -0.03      0.00
    3    1   10      0.02      0.00
    3    1   11     -0.02      0.00
    3    1   12     -0.14      0.00
    3    1   13     -0.36      0.00
    3    1   14     -0.63      0.00
    3    1   16     -0.31      0.00
   -3   -2   18     -0.63      0.00
   -3   -2   17     -0.19      0.00
   -3   -2   16     -0.08      0.00
   -3   -2   15     -0.29      0.00
   -3   -2   14      0.07      0.00
   -3   -2   13      0.99      0.00
   -3   -2   12      1.52      0.00
   -3   -2   11      1.63      0.00
   -3   -2   10      1.49      0.00
   -3   -2    9      0.46      0.00
   -3   -2    8     -1.20      0.00
   -3   -2    7     -1.80      0.00
   -3   -2    6     -0.53      0.00
   -3   -2    5      2.32      0.00
   -3   -2    4      6.48      0.00
   -3   -2    3     10.32      0.00
   -3   -2    2     10.94      0.00
   -3   -2    1      7.87      0.00
    3    2    0      4.02      0.00
    3    2    1      1.77      0.00
    3    2    2      1.09      0.00
    3    2    3      0.98      0.00
    3    2    4      0.64      0.00
    3    2    5     -0.20      0.00
    3    2    6     -0.92      0.00
    3    2    7     -0.93      0.00
    3    2    8     -0.49      0.00
    3    2    9     -0.08      0.00
    3    2   10      0.24      0.00
    3    2   11      0.41      0.00
    3    2   12      0.27      0.00
    3    2   13      0.02      0.00
    3    2   14      0.07      0.00
    3    2   15      0.40      0.00
   -3   -3   19      0.24      0.00
   -3   -3   18      0.28      0.00
   -3   -3   17      0.06      0.00
   -3   -3   16      0.03      0.00
   -3   -3   15      0.35      0.00
   -3   -3   14      0.29      0.00
   -3   -3   13     -0.55      0.00
   -3   -3   12     -1.44      0.00
   -3   -3   11     -1.93      0.00
   -3   -3   10     -2.46      0.00
   -3   -3    9     -2.59      0.00
   -3   -3    8     -1.39      0.00
   -3   -3    7      0.50      0.00
   -3   -3    6      1.50      0.00
   -3   -3    5      1.00      0.00
   -3   -3    4     -1.05      0.00
   -3   -3    3     -4.54      0.00
   -3   -3    2     -7.74      0.00
   -3   -3    1     -8.30      0.00
    3    3    0     -6.20      0.00
    3    3    1     -3.55      0.00
    3    3    2     -1.91      0.00
    3    3    3     -1.28      0.00
    3    3    4     -1.01      0.00
    3    3    5     -0.57      0.00
    3    3    6      0.07      0.00
    3    3    7      0.58      0.00
    3    3    8      0.75      0.00
    3    3    9      0.58      0.00
    3    3   10      0.06      0.00
    3    3   11     -0.52      0.00
    3    3   12     -0.58      0.00
    3    3   13      0.00      0.00
    3    3   14      0.56      0.00
    3    3   15      0.52      0.00
   -3   -4   19     -0.02      0.00
   -3   -4   18      0.09      0.00
   -3   -4   17      0.30      0.00
   -3   -4   16      0.32      0.00
   -3   -4   15     -0.02      0.00
   -3   -4   14     -0.37      0.00
   -3   -4   13     -0.20      0.00
   -3   -4   12      0.42      0.00
   -3   -4   11      1.06      0.00
   -3   -4   10      1.83      0.00
   -3   -4    9      2.84      0.00
   -3   -4    8      3.23      0.00
   -3   -4    7      2.19      0.00
   -3   -4    6      0.44      0.00
   -3   -4    5     -0.69      0.00
   -3   -4    4     -0.56      0.00
   -3   -4    3      0.90      0.00
   -3   -4    2      3.16      0.00
   -3   -4    1      4.79      0.00
    3    4    0      4.70      0.00
    3    4    1      3.42      0.00
    3    4    2      2.19      0.00
    3    4    3      1.50      0.00
    3    4    4      1.08      0.00
    3    4    5      0.70      0.00
    3    4    6      0.37      0.00
    3    4    7      0.07      0.00
    3    4    8     -0.25      0.00
    3    4    9     -0.50      0.00
    3    4   10     -0.37      0.00
    3    4   11      0.21      0.00
    3    4   12      0.71      0.00
    3    4   13      0.54      0.00
    3    4   14     -0.13      0.00
   -3   -5   19     -0.08      0.00
   -3   -5   18     -0.16      0.00
   -3   -5   17     -0.32      0.00
   -3   -5   16     -0.36      0.00
   -3   -5   15     -0.27      0.00
   -3   -5   14     -0.06      0.00
   -3   -5   13      0.23      0.00
   -3   -5   12      0.35      0.00
   -3   -5   11      0.07      0.00
   -3   -5   10     -0.58      0.00
   -3   -5    9     -1.52      0.00
   -3   -5    8     -2.53      0.00
   -3   -5    7     -2.87      0.00
   -3   -5    6     -2.06      0.00
   -3   -5    5     -0.69      0.00
   -3   -5    4      0.18      0.00
   -3   -5    3      0.11      0.00
   -3   -5    2     -0.68      0.00
   -3   -5    1     -1.65      0.00
    3    5    0     -2.12      0.00
    3    5    1     -1.86      0.00
    3    5    2     -1.32      0.00
    3    5    3     -0.96      0.00
    3    5    4     -0.71      0.00
    3    5    5     -0.38      0.00
    3    5    6     -0.13      0.00
    3    5    7     -0.09      0.00
    3    5    8     -0.11      0.00
    3    5    9      0.04      0.00
    3    5   10      0.31      0.00
    3    5   11      0.38      0.00
    3    5   12      0.05      0.00
    3    5   13     -0.30      0.00
    3    5   14     -0.20      0.00
   -3   -6   18      0.31      0.00
   -3   -6   17      0.42      0.00
   -3   -6   16      0.35      0.00
   -3   -6   15      0.20      0.00
   -3   -6   14      0.24      0.00
   -3   -6   13      0.22      0.00
   -3   -6   12     -0.08      0.00
   -3   -6   11     -0.30      0.00
   -3   -6   10     -0.05      0.00
   -3   -6    9      0.54      0.00
   -3   -6    8      1.27      0.00
   -3   -6    7      1.94      0.00
   -3   -6    6      2.08      0.00
   -3   -6    5      1.50      0.00
   -3   -6    4      0.72      0.00
   -3   -6    3      0.27      0.00
   -3   -6    2      0.15      0.00
   -3   -6    1      0.30      0.00
    3    6    0      0.67      0.00
    3    6    1      0.95      0.00
    3    6    2      0.95      0.00
    3    6    3      0.84      0.00
    3    6    4      0.76      0.00
    3    6    5      0.61      0.00
    3    6    6      0.39      0.00
    3    6    7      0.29      0.00
    3    6    8      0.40      0.00
    3    6    9      0.58      0.00
    3    6   10      0.46      0.00
    3    6   11     -0.04      0.00
    3    6   12     -0.44      0.00
    3    6   13     -0.34      0.00
   -3   -7   17     -0.37      0.00
   -3   -7   16     -0.48      0.00
   -3   -7   15     -0.30      0.00
   -3   -7   14     -0.10      0.00
   -3   -7   13     -0.12      0.00
   -3   -7   12     -0.15      0.00
   -3   -7   11     -0.03      0.00
   -3   -7   10      0.11      0.00
   -3   -7    9      0.08      0.00
   -3   -7    8     -0.21      0.00
   -3   -7    7     -0.75      0.00
   -3   -7    6     -1.17      0.00
   -3   -7    5     -1.11      0.00
   -3   -7    4     -0.76      0.00
   -3   -7    3     -0.46      0.00
   -3   -7    2     -0.17      0.00
   -3   -7    1      0.13      0.00
    3    7    0      0.16      0.00
    3    7    1     -0.13      0.00
    3    7    2     -0.39      0.00
    3    7    3     -0.48      0.00
    3    7    4     -0.54      0.00
    3    7    5     -0.58      0.00
    3    7    6     -0.49      0.00
    3    7    7     -0.33      0.00
    3    7    8     -0.28      0.00
    3    7    9     -0.51      0.00
    3    7   10     -0.75      0.00
    3    7   11     -0.57      0.00
   -3   -8   16      0.27      0.00
   -3   -8   15      0.47      0.00
   -3   -8   14      0.33      0.00
   -3   -8   13     -0.02      0.00
   -3   -8   12     -0.14      0.00
   -3   -8   11      0.14      0.00
   -3   -8   10      0.38      0.00
   -3   -8    9      0.14      0.00
   -3   -8    8     -0.19      0.00
   -3   -8    7      0.02      0.00
   -3   -8    6      0.58      0.00
   -3   -8    5      0.83      0.00
   -3   -8    4      0.72      0.00
   -3   -8    3      0.57      0.00
   -3   -8    2      0.39      0.00
   -3   -8    1      0.08      0.00
    3    8    0     -0.15      0.00
    3    8    1     -0.13      0.00
    3    8    2     -0.05      0.00
    3    8    3     -0.00      0.00
    3    8    4      0.13      0.00
    3    8    5      0.29      0.00
    3    8    6      0.29      0.00
    3    8    7      0.10      0.00
    3    8    8     -0.06      0.00
    3    8    9      0.02      0.00
    3    8   10      0.26      0.00
   -3   -9   15     -0.12      0.00
   -3   -9   14     -0.32      0.00
   -3   -9   13     -0.04      0.00
   -3   -9   12      0.56      0.00
   -3   -9   11      0.65      0.00
   -3   -9   10      0.03      0.00
   -3   -9    9     -0.32      0.00
   -3   -9    8      0.08      0.00
   -3   -9    7      0.39      0.00
   -3   -9    6      0.12      0.00
   -3   -9    5     -0.24      0.00
   -3   -9    4     -0.36      0.00
   -3   -9    3     -0.46      0.00
   -3   -9    2     -0.51      0.00
   -3   -9    1     -0.34      0.00
    3    9    0     -0.14      0.00
    3    9    1     -0.04      0.00
    3    9    2      0.07      0.00
    3    9    3      0.11      0.00
    3    9    4     -0.17      0.00
    3    9    5     -0.56      0.00
    3    9    6     -0.62      0.00
    3    9    7     -0.32      0.00
    3    9    8     -0.04      0.00
    3    9    9     -0.04      0.00
   -3  -10   14      0.04      0.00
   -3  -10   13      0.09      0.00
   -3  -10   12     -0.37      0.00
   -3  -10   11     -0.97      0.00
   -3  -10   10     -0.86      0.00
   -3  -10    9     -0.29      0.00
   -3  -10    8     -0.17      0.00
   -3  -10    7     -0.39      0.00
   -3  -10    6     -0.39      0.00
   -3  -10    5     -0.31      0.00
   -3  -10    4     -0.37      0.00
   -3  -10    3     -0.25      0.00
   -3  -10    2      0.05      0.00
   -3  -10    1      0.16      0.00
    3   10    0      0.09      0.00
    3   10    1     -0.04      0.00
    3   10    2     -0.36      0.00
    3   10    3     -0.66      0.00
    3   10    4     -0.41      0.00
    3   10    5      0.24      0.00
    3   10    6      0.58      0.00
    3   10    7      0.35      0.00
   -3  -11   13     -0.14      0.00
   -3  -11   12     -0.18      0.00
   -3  -11   11      0.11      0.00
   -3  -11   10      0.36      0.00
   -3  -11    9      0.22      0.00
   -3  -11    8      0.09      0.00
   -3  -11    7      0.15      0.00
   -3  -11    6      0.04      0.00
   -3  -11    5     -0.09      0.00
   -3  -11    4      0.14      0.00
   -3  -11    3      0.36      0.00
   -3  -11    2      0.21      0.00
   -3  -11    1     -0.02      0.00
    3   11    0     -0.15      0.00
    3   11    1     -0.24      0.00
    3   11    2      0.01      0.00
    3   11    3      0.62      0.00
    3   11    4      0.86      0.00
    3   11    5      0.42      0.00
   -3  -12   10      0.36      0.00
   -3  -12    9      0.41      0.00
   -3  -12    8      0.38      0.00
   -3  -12    7      0.14      0.00
   -3  -12    6      0.04      0.00
   -3  -12    5      0.12      0.00
   -3  -12    4     -0.03      0.00
   -3  -12    3     -0.36      0.00
   -3  -12    2     -0.41      0.00
   -3  -12    1     -0.27      0.00
    3   12    0     -0.16      0.00
    3   12    1      0.12      0.00
    3   12    2      0.35      0.00
   -3  -13    4     -0.21      0.00
   -3  -13    3      0.18      0.00
    4  -13    5      0.19      0.00
   -4   12    5      0.44      0.00
   -4   12    4      0.07      0.00
   -4   12    3     -0.30      0.00
   -4   12    2     -0.47      0.00
   -4   12    1     -0.44      0.00
   -4   12    0     -0.22      0.00
    4  -12    1      0.02      0.00
    4  -12    2      0.06      0.00
    4  -12    3     -0.05      0.00
    4  -12    4     -0.16      0.00
    4  -12    5     -0.22      0.00
    4  -12    6     -0.22      0.00
    4  -12    7     -0.17      0.00
    4  -12    8     -0.18      0.00
   -4   11    8      0.48      0.00
   -4   11    7      0.27      0.00
   -4   11    6     -0.19      0.00
   -4   11    5     -0.37      0.00
   -4   11    4     -0.23      0.00
   -4   11    3     -0.06      0.00
   -4   11    2      0.13      0.00
   -4   11    1      0.30      0.00
   -4   11    0      0.10      0.00
    4  -11    1     -0.29      0.00
    4  -11    2     -0.30      0.00
    4  -11    3      0.01      0.00
    4  -11    4      0.11      0.00
    4  -11    5     -0.01      0.00
    4  -11    6     -0.03      0.00
    4  -11    7      0.04      0.00
    4  -11    8      0.06      0.00
    4  -11    9     -0.01      0.00
    4  -11   10     -0.13      0.00
   -4   10   10      0.43      0.00
   -4   10    9     -0.08      0.00
   -4   10    8     -0.63      0.00
   -4   10    7     -0.64      0.00
   -4   10    6     -0.17      0.00
   -4   10    5      0.05      0.00
   -4   10    4     -0.16      0.00
   -4   10    3     -0.32      0.00
   -4   10    2     -0.38      0.00
   -4   10    1     -0.60      0.00
   -4   10    0     -0.63      0.00
    4  -10    1     -0.12      0.00
    4  -10    2      0.27      0.00
    4  -10    3      0.00      0.00
    4  -10    4     -0.34      0.00
    4  -10    5     -0.25      0.00
    4  -10    6     -0.05      0.00
    4  -10    7     -0.02      0.00
    4  -10    8     -0.06      0.00
    4  -10    9     -0.02      0.00
    4  -10   10      0.14      0.00
    4  -10   11      0.31      0.00
    4  -10   12      0.24      0.00
   -4    9   11     -0.37      0.00
   -4    9   10     -0.60      0.00
   -4    9    9     -0.29      0.00
   -4    9    8      0.37      0.00
   -4    9    7      0.69      0.00
   -4    9    6      0.29      0.00
   -4    9    5     -0.25      0.00
   -4    9    4     -0.21      0.00
   -4    9    3      0.13      0.00
   -4    9    2      0.21      0.00
   -4    9    1      0.25      0.00
   -4    9    0      0.45      0.00
    4   -9    1      0.40      0.00
    4   -9    2      0.06      0.00
    4   -9    3      0.02      0.00
    4   -9    4      0.29      0.00
    4   -9    5      0.40      0.00
    4   -9    6      0.29      0.00
    4   -9    7      0.17      0.00
    4   -9    8      0.06      0.00
    4   -9    9      0.02      0.00
    4   -9   10     -0.01      0.00
    4   -9   11     -0.22      0.00
    4   -9   12     -0.40      0.00
    4   -9   13     -0.27      0.00
   -4    8   12     -0.26      0.00
   -4    8   11     -0.13      0.00
   -4    8   10      0.18      0.00
   -4    8    9      0.25      0.00
   -4    8    8     -0.12      0.00
   -4    8    7     -0.59      0.00
   -4    8    6     -0.57      0.00
   -4    8    5      0.01      0.00
   -4    8    4      0.44      0.00
   -4    8    3      0.27      0.00
   -4    8    2      0.01      0.00
   -4    8    1      0.11      0.00
   -4    8    0      0.27      0.00
    4   -8    1      0.20      0.00
    4   -8    2      0.00      0.00
    4   -8    3     -0.22      0.00
    4   -8    4     -0.40      0.00
    4   -8    5     -0.37      0.00
    4   -8    6     -0.23      0.00
    4   -8    7     -0.16      0.00
    4   -8    8     -0.05      0.00
    4   -8    9      0.01      0.00
    4   -8   10     -0.14      0.00
    4   -8   11     -0.17      0.00
    4   -8   12      0.22      0.00
    4   -8   13      0.65      0.00
    4   -8   14      0.68      0.00
   -4    7   14      0.63      0.00
   -4    7   13      0.26      0.00
   -4    7   12      0.14      0.00
   -4    7   11      0.27      0.00
   -4    7   10      0.20      0.00
   -4    7    9     -0.01      0.00
   -4    7    8     -0.03      0.00
   -4    7    7      0.19      0.00
   -4    7    6      0.46      0.00
   -4    7    5      0.46      0.00
   -4    7    4      0.14      0.00
   -4    7    3     -0.05      0.00
   -4    7    2      0.12      0.00
   -4    7    1      0.21      0.00
   -4    7    0     -0.04      0.00
    4   -7    1     -0.23      0.00
    4   -7    2      0.00      0.00
    4   -7    3      0.54      0.00
    4   -7    4      0.96      0.00
    4   -7    5      0.91      0.00
    4   -7    6      0.49      0.00
    4   -7    7      0.15      0.00
    4   -7    8     -0.01      0.00
    4   -7    9     -0.10      0.00
    4   -7   10      0.12      0.00
    4   -7   11      0.60      0.00
    4   -7   12      0.69      0.00
    4   -7   13      0.15      0.00
    4   -7   14     -0.47      0.00
   -4    6   15     -0.28      0.00
   -4    6   14     -0.51      0.00
   -4    6   13     -0.08      0.00
   -4    6   12      0.26      0.00
   -4    6   11      0.00      0.00
   -4    6   10     -0.29      0.00
   -4    6    9     -0.21      0.00
   -4    6    8      0.00      0.00
   -4    6    7      0.20      0.00
   -4    6    6      0.27      0.00
   -4    6    5     -0.01      0.00
   -4    6    4     -0.40      0.00
   -4    6    3     -0.45      0.00
   -4    6    2     -0.25      0.00
   -4    6    1     -0.04      0.00
   -4    6    0      0.27      0.00
    4   -6    1      0.49      0.00
    4   -6    2      0.23      0.00
    4   -6    3     -0.43      0.00
    4   -6    4     -1.10      0.00
    4   -6    5     -1.39      0.00
    4   -6    6     -1.15      0.00
    4   -6    7     -0.63      0.00
    4   -6    8     -0.22      0.00
    4   -6    9      0.07      0.00
    4   -6   10      0.20      0.00
    4   -6   11     -0.11      0.00
    4   -6   12     -0.66      0.00
    4   -6   13     -0.80      0.00
    4   -6   14     -0.41      0.00
    4   -6   15      0.06      0.00
   -4    5   15      0.24      0.00
   -4    5   14      0.46      0.00
   -4    5   13      0.03      0.00
   -4    5   12     -0.52      0.00
   -4    5   11     -0.35      0.00
   -4    5   10      0.22      0.00
   -4    5    9      0.39      0.00
   -4    5    8      0.24      0.00
   -4    5    7     -0.00      0.00
   -4    5    6     -0.44      0.00
   -4    5    5     -0.60      0.00
   -4    5    4      0.07      0.00
   -4    5    3      1.04      0.00
   -4    5    2      1.47      0.00
   -4    5    1      1.23      0.00
   -4    5    0      0.45      0.00
    4   -5    1     -0.51      0.00
    4   -5    2     -0.86      0.00
    4   -5    3     -0.33      0.00
    4   -5    4      0.56      0.00
    4   -5    5      1.28      0.00
    4   -5    6      1.55      0.00
    4   -5    7      1.29      0.00
    4   -5    8      0.82      0.00
    4   -5    9      0.44      0.00
    4   -5   10      0.01      0.00
    4   -5   11     -0.37      0.00
    4   -5   12     -0.31      0.00
    4   -5   13      0.03      0.00
    4   -5   14      0.14      0.00
    4   -5   15     -0.00      0.00
   -4    4   17      0.50      0.00
   -4    4   16      0.12      0.00
   -4    4   15     -0.45      0.00
   -4    4   14     -0.72      0.00
   -4    4   13     -0.39      0.00
   -4    4   12      0.31      0.00
   -4    4   11      0.56      0.00
   -4    4   10      0.18      0.00
   -4    4    9     -0.11      0.00
   -4    4    8     -0.06      0.00
   -4    4    7      0.04      0.00
   -4    4    6      0.47      0.00
   -4    4    5      1.22      0.00
   -4    4    4      1.26      0.00
   -4    4    3      0.17      0.00
   -4    4    2     -1.29      0.00
   -4    4    1     -2.37      0.00
   -4    4    0     -2.50      0.00
    4   -4    1     -1.28      0.00
    4   -4    2      0.53      0.00
    4   -4    3      1.41      0.00
    4   -4    4      0.98      0.00
    4   -4    5     -0.05      0.00
    4   -4    6     -0.95      0.00
    4   -4    7     -1.23      0.00
    4   -4    8     -0.94      0.00
    4   -4    9     -0.67      0.00
    4   -4   10     -0.49      0.00
    4   -4   11     -0.02      0.00
    4   -4   12      0.48      0.00
    4   -4   13      0.55      0.00
    4   -4   14      0.47      0.00
    4   -4   15      0.56      0.00
    4   -4   16      0.55      0.00
   -4    3   17     -0.57      0.00
   -4    3   16     -0.41      0.00
   -4    3   15      0.25      0.00
   -4    3   14      0.69      0.00
   -4    3   13      0.64      0.00
   -4    3   12      0.15      0.00
   -4    3   11     -0.39      0.00
   -4    3   10     -0.55      0.00
   -4    3    9     -0.38      0.00
   -4    3    8     -0.14      0.00
   -4    3    7      0.20      0.00
   -4    3    6      0.17      0.00
   -4    3    5     -0.79      0.00
   -4    3    4     -1.89      0.00
   -4    3    3     -1.87      0.00
   -4    3    2     -0.63      0.00
   -4    3    1      1.26      0.00
   -4    3    0      3.13      0.00
    4   -3    1      3.62      0.00
    4   -3    2      1.94      0.00
    4   -3    3     -0.46      0.00
    4   -3    4     -1.62      0.00
    4   -3    5     -1.19      0.00
    4   -3    6     -0.04      0.00
    4   -3    7      0.81      0.00
    4   -3    8      0.90      0.00
    4   -3    9      0.71      0.00
    4   -3   10      0.76      0.00
    4   -3   11      0.65      0.00
    4   -3   12      0.12      0.00
    4   -3   13     -0.21      0.00
    4   -3   14     -0.16      0.00
    4   -3   15     -0.30      0.00
    4   -3   16     -0.60      0.00
   -4    2   18     -0.40      0.00
   -4    2   17      0.33      0.00
   -4    2   16      0.62      0.00
   -4    2   15      0.14      0.00
   -4    2   14     -0.36      0.00
   -4    2   13     -0.47      0.00
   -4    2   12     -0.33      0.00
   -4    2   11      0.09      0.00
   -4    2   10      0.70      0.00
   -4    2    9      1.06      0.00
   -4    2    8      0.75      0.00
   -4    2    7     -0.24      0.00
   -4    2    6     -1.23      0.00
   -4    2    5     -1.01      0.00
   -4    2    4      0.51      0.00
   -4    2    3      1.85      0.00
   -4    2    2      1.88      0.00
   -4    2    1      0.57      0.00
   -4    2    0     -1.73      0.00
    4   -2    1     -3.87      0.00
    4   -2    2     -4.04      0.00
    4   -2    3     -2.07      0.00
    4   -2    4      0.10      0.00
    4   -2    5      0.93      0.00
    4   -2    6      0.51      0.00
    4   -2    7     -0.27      0.00
    4   -2    8     -0.65      0.00
    4   -2    9     -0.62      0.00
    4   -2   10     -0.71      0.00
    4   -2   11     -0.82      0.00
    4   -2   12     -0.45      0.00
    4   -2   13      0.00      0.00
    4   -2   14     -0.07      0.00
    4   -2   15     -0.25      0.00
    4   -2   16     -0.03      0.00
   -4    1   18      0.73      0.00
   -4    1   17      0.09      0.00
   -4    1   16     -0.53      0.00
   -4    1   15     -0.40      0.00
   -4    1   14      0.08      0.00
   -4    1   13      0.25      0.00
   -4    1   12      0.25      0.00
   -4    1   11      0.11      0.00
   -4    1   10     -0.58      0.00
   -4    1    9     -1.66      0.00
   -4    1    8     -2.20      0.00
   -4    1    7     -1.54      0.00
   -4    1    6      0.08      0.00
   -4    1    5      1.40      0.00
   -4    1    4      1.13      0.00
   -4    1    3     -0.53      0.00
   -4    1    2     -2.06      0.00
   -4    1    1     -2.23      0.00
   -4    1    0     -0.75      0.00
    4   -1    1      1.69      0.00
    4   -1    2      3.36      0.00
    4   -1    3      3.00      0.00
    4   -1    4      1.39      0.00
    4   -1    5      0.11      0.00
    4   -1    6     -0.28      0.00
    4   -1    7     -0.11      0.00
    4   -1    8      0.14      0.00
    4   -1    9      0.23      0.00
    4   -1   10      0.34      0.00
    4   -1   11      0.55      0.00
    4   -1   12      0.41      0.00
    4   -1   13     -0.03      0.00
    4   -1   14     -0.10      0.00
    4   -1   15      0.21      0.00
    4   -1   16      0.29      0.00
   -4    0   18     -0.58      0.00
   -4    0   17     -0.30      0.00
   -4    0   16      0.32      0.00
   -4    0   15      0.59      0.00
   -4    0   14      0.35      0.00
   -4    0   13      0.11      0.00
   -4    0   12     -0.03      0.00
   -4    0   11     -0.28      0.00
   -4    0   10     -0.09      0.00
   -4    0    9      1.04      0.00
   -4    0    8      2.52      0.00
   -4    0    7      3.24      0.00
   -4    0    6      2.62      0.00
   -4    0    5      0.85      0.00
   -4    0    4     -0.94      0.00
   -4    0    3     -1.32      0.00
   -4    0    2     -0.04      0.00
   -4    0    1      1.51      0.00
    4    0    0      1.71      0.00
    4    0    1      0.15      0.00
    4    0    2     -1.90      0.00
    4    0    3     -2.78      0.00
    4    0    4     -2.21      0.00
    4    0    5     -1.19      0.00
    4    0    6     -0.49      0.00
    4    0    7     -0.20      0.00
    4    0    8     -0.21      0.00
    4    0    9     -0.30      0.00
    4    0   10     -0.37      0.00
    4    0   11     -0.45      0.00
    4    0   12     -0.37      0.00
    4    0   13     -0.08      0.00
    4    0   14      0.03      0.00
    4    0   15     -0.22      0.00
   -4   -1   18      0.25      0.00
   -4   -1   17      0.23      0.00
   -4   -1   16     -0.02      0.00
   -4   -1   15     -0.40      0.00
   -4   -1   14     -0.55      0.00
   -4   -1   13     -0.49      0.00
   -4   -1   12     -0.34      0.00
   -4   -1   11      0.16      0.00
   -4   -1   10      0.77      0.00
   -4   -1    9      0.50      0.00
   -4   -1    8     -0.98      0.00
   -4   -1    7     -2.83      0.00
   -4   -1    6     -4.11      0.00
   -4   -1    5     -4.14      0.00
   -4   -1    4     -2.62      0.00
   -4   -1    3     -0.42      0.00
   -4   -1    2      0.76      0.00
   -4   -1    1      0.19      0.00
    4    1    0     -0.90      0.00
    4    1    1     -0.84      0.00
    4    1    2      0.49      0.00
    4    1    3      1.84      0.00
    4    1    4      2.20      0.00
    4    1    5      1.71      0.00
    4    1    6      0.93      0.00
    4    1    7      0.28      0.00
    4    1    8      0.01      0.00
    4    1    9      0.11      0.00
    4    1   10      0.29      0.00
    4    1   11      0.33      0.00
    4    1   12      0.16      0.00
    4    1   13     -0.16      0.00
    4    1   14     -0.27      0.00
    4    1   15      0.05      0.00
   -4   -2   18     -0.30      0.00
   -4   -2   17     -0.21      0.00
   -4   -2   16     -0.21      0.00
   -4   -2   15      0.05      0.00
   -4   -2   14      0.41      0.00
   -4   -2   13      0.60      0.00
   -4   -2   12      0.69      0.00
   -4   -2   11      0.53      0.00
   -4   -2   10     -0.27      0.00
   -4   -2    9     -1.20      0.00
   -4   -2    8     -1.03      0.00
   -4   -2    7      0.56      0.00
   -4   -2    6      2.81      0.00
   -4   -2    5      4.75      0.00
   -4   -2    4      5.50      0.00
   -4   -2    3      4.52      0.00
   -4   -2    2      2.47      0.00
   -4   -2    1      0.97      0.00
    4    2    0      0.78      0.00
    4    2    1      1.04      0.00
    4    2    2      0.64      0.00
    4    2    3     -0.36      0.00
    4    2    4     -1.23      0.00
    4    2    5     -1.52      0.00
    4    2    6     -1.19      0.00
    4    2    7     -0.45      0.00
    4    2    8      0.23      0.00
    4    2    9      0.45      0.00
    4    2   10      0.28      0.00
    4    2   11      0.03      0.00
    4    2   12     -0.01      0.00
    4    2   13      0.26      0.00
    4    2   14      0.56      0.00
   -4   -3   18      0.14      0.00
   -4   -3   17      0.04      0.00
   -4   -3   16      0.08      0.00
   -4   -3   15     -0.16      0.00
   -4   -3   14     -0.70      0.00
   -4   -3   13     -1.07      0.00
   -4   -3   12     -1.23      0.00
   -4   -3   11     -1.51      0.00
   -4   -3   10     -1.51      0.00
   -4   -3    9     -0.55      0.00
   -4   -3    8      0.84      0.00
   -4   -3    7      1.12      0.00
   -4   -3    6     -0.28      0.00
   -4   -3    5     -2.47      0.00
   -4   -3    4     -4.35      0.00
   -4   -3    3     -5.17      0.00
   -4   -3    2     -4.58      0.00
   -4   -3    1     -3.08      0.00
    4    3    0     -1.81      0.00
    4    3    1     -1.32      0.00
    4    3    2     -1.07      0.00
    4    3    3     -0.53      0.00
    4    3    4      0.18      0.00
    4    3    5      0.77      0.00
    4    3    6      1.06      0.00
    4    3    7      0.86      0.00
    4    3    8      0.25      0.00
    4    3    9     -0.35      0.00
    4    3   10     -0.60      0.00
    4    3   11     -0.40      0.00
    4    3   12      0.03      0.00
    4    3   13      0.24      0.00
    4    3   14      0.01      0.00
   -4   -4   19     -0.04      0.00
   -4   -4   18      0.13      0.00
   -4   -4   17      0.11      0.00
   -4   -4   16     -0.12      0.00
   -4   -4   15     -0.06      0.00
   -4   -4   14      0.50      0.00
   -4   -4   13      1.08      0.00
   -4   -4   12      1.28      0.00
   -4   -4   11      1.51      0.00
   -4   -4   10      2.18      0.00
   -4   -4    9      2.50      0.00
   -4   -4    8      1.44      0.00
   -4   -4    7     -0.28      0.00
   -4   -4    6     -0.80      0.00
   -4   -4    5      0.34      0.00
   -4   -4    4      2.00      0.00
   -4   -4    3      3.19      0.00
   -4   -4    2      3.61      0.00
   -4   -4    1      3.17      0.00
    4    4    0      2.26      0.00
    4    4    1      1.60      0.00
    4    4    2      1.27      0.00
    4    4    3      0.88      0.00
    4    4    4      0.40      0.00
    4    4    5      0.04      0.00
    4    4    6     -0.27      0.00
    4    4    7     -0.49      0.00
    4    4    8     -0.45      0.00
    4    4    9     -0.09      0.00
    4    4   10      0.39      0.00
    4    4   11      0.63      0.00
    4    4   12      0.31      0.00
    4    4   13     -0.27      0.00
   -4   -5   18     -0.13      0.00
   -4   -5   17     -0.10      0.00
   -4   -5   16      0.24      0.00
   -4   -5   15      0.44      0.00
   -4   -5   14      0.23      0.00
   -4   -5   13     -0.18      0.00
   -4   -5   12     -0.46      0.00
   -4   -5   11     -0.65      0.00
   -4   -5   10     -1.18      0.00
   -4   -5    9     -2.14      0.00
   -4   -5    8     -2.49      0.00
   -4   -5    7     -1.37      0.00
   -4   -5    6      0.17      0.00
   -4   -5    5      0.52      0.00
   -4   -5    4     -0.31      0.00
   -4   -5    3     -1.24      0.00
   -4   -5    2     -1.77      0.00
   -4   -5    1     -1.86      0.00
    4    5    0     -1.51      0.00
    4    5    1     -1.09      0.00
    4    5    2     -0.88      0.00
    4    5    3     -0.64      0.00
    4    5    4     -0.26      0.00
    4    5    5     -0.06      0.00
    4    5    6     -0.08      0.00
    4    5    7     -0.06      0.00
    4    5    8      0.08      0.00
    4    5    9      0.24      0.00
    4    5   10      0.17      0.00
    4    5   11     -0.17      0.00
    4    5   12     -0.34      0.00
    4    5   13     -0.03      0.00
   -4   -6   18      0.43      0.00
   -4   -6   17      0.41      0.00
   -4   -6   16      0.09      0.00
   -4   -6   15     -0.11      0.00
   -4   -6   14     -0.03      0.00
   -4   -6   13     -0.00      0.00
   -4   -6   12     -0.00      0.00
   -4   -6   11      0.20      0.00
   -4   -6   10      0.64      0.00
   -4   -6    9      1.33      0.00
   -4   -6    8      2.08      0.00
   -4   -6    7      2.08      0.00
   -4   -6    6      1.10      0.00
   -4   -6    5      0.17      0.00
   -4   -6    4      0.05      0.00
   -4   -6    3      0.35      0.00
   -4   -6    2      0.63      0.00
   -4   -6    1      0.85      0.00
    4    6    0      0.92      0.00
    4    6    1      0.79      0.00
    4    6    2      0.67      0.00
    4    6    3      0.54      0.00
    4    6    4      0.28      0.00
    4    6    5      0.09      0.00
    4    6    6      0.18      0.00
    4    6    7      0.41      0.00
    4    6    8      0.52      0.00
    4    6    9      0.31      0.00
    4    6   10     -0.15      0.00
    4    6   11     -0.36      0.00
   -4   -7   17     -0.67      0.00
   -4   -7   16     -0.39      0.00
   -4   -7   15     -0.10      0.00
   -4   -7   14     -0.22      0.00
   -4   -7   13     -0.37      0.00
   -4   -7   12     -0.20      0.00
   -4   -7   11     -0.06      0.00
   -4   -7   10     -0.28      0.00
   -4   -7    9     -0.72      0.00
   -4   -7    8     -1.23      0.00
   -4   -7    7     -1.52      0.00
   -4   -7    6     -1.29      0.00
   -4   -7    5     -0.78      0.00
   -4   -7    4     -0.47      0.00
   -4   -7    3     -0.32      0.00
   -4   -7    2     -0.15      0.00
   -4   -7    1     -0.11      0.00
    4    7    0     -0.29      0.00
    4    7    1     -0.44      0.00
    4    7    2     -0.47      0.00
    4    7    3     -0.42      0.00
    4    7    4     -0.31      0.00
    4    7    5     -0.21      0.00
    4    7    6     -0.24      0.00
    4    7    7     -0.42      0.00
    4    7    8     -0.70      0.00
    4    7    9     -0.83      0.00
    4    7   10     -0.48      0.00
   -4   -8   16      0.44      0.00
   -4   -8   15      0.18      0.00
   -4   -8   14     -0.02      0.00
   -4   -8   13      0.15      0.00
   -4   -8   12      0.40      0.00
   -4   -8   11      0.41      0.00
   -4   -8   10      0.24      0.00
   -4   -8    9      0.17      0.00
   -4   -8    8      0.38      0.00
   -4   -8    7      0.68      0.00
   -4   -8    6      0.79      0.00
   -4   -8    5      0.72      0.00
   -4   -8    4      0.65      0.00
   -4   -8    3      0.53      0.00
   -4   -8    2      0.28      0.00
   -4   -8    1      0.05      0.00
    4    8    0     -0.02      0.00
    4    8    1     -0.03      0.00
    4    8    2     -0.06      0.00
    4    8    3     -0.08      0.00
    4    8    4     -0.07      0.00
    4    8    5     -0.03      0.00
    4    8    6      0.01      0.00
    4    8    7      0.05      0.00
    4    8    8      0.20      0.00
    4    8    9      0.45      0.00
   -4   -9   15     -0.30      0.00
   -4   -9   14     -0.05      0.00
   -4   -9   13      0.32      0.00
   -4   -9   12      0.14      0.00
   -4   -9   11     -0.48      0.00
   -4   -9   10     -0.72      0.00
   -4   -9    9     -0.39      0.00
   -4   -9    8     -0.10      0.00
   -4   -9    7     -0.17      0.00
   -4   -9    6     -0.34      0.00
   -4   -9    5     -0.51      0.00
   -4   -9    4     -0.69      0.00
   -4   -9    3     -0.70      0.00
   -4   -9    2     -0.55      0.00
   -4   -9    1     -0.45      0.00
    4    9    0     -0.41      0.00
    4    9    1     -0.22      0.00
    4    9    2      0.08      0.00
    4    9    3      0.23      0.00
    4    9    4      0.14      0.00
    4    9    5     -0.07      0.00
    4    9    6     -0.17      0.00
    4    9    7     -0.09      0.00
   -4  -10   14      0.16      0.00
   -4  -10   13     -0.33      0.00
   -4  -10   12     -0.82      0.00
   -4  -10   11     -0.46      0.00
   -4  -10   10      0.25      0.00
   -4  -10    9      0.37      0.00
   -4  -10    8      0.04      0.00
   -4  -10    7     -0.15      0.00
   -4  -10    6     -0.20      0.00
   -4  -10    5     -0.17      0.00
   -4  -10    4      0.08      0.00
   -4  -10    3      0.26      0.00
   -4  -10    2      0.15      0.00
   -4  -10    1      0.09      0.00
    4   10    0      0.20      0.00
    4   10    1      0.13      0.00
    4   10    2     -0.21      0.00
    4   10    3     -0.44      0.00
    4   10    4     -0.31      0.00
    4   10    5      0.04      0.00
   -4  -11   13      0.01      0.00
   -4  -11   12      0.52      0.00
   -4  -11   11      0.71      0.00
   -4  -11   10      0.31      0.00
   -4  -11    9      0.03      0.00
   -4  -11    8      0.13      0.00
   -4  -11    7      0.14      0.00
   -4  -11    6      0.09      0.00
   -4  -11    5      0.19      0.00
   -4  -11    4      0.13      0.00
   -4  -11    3     -0.08      0.00
   -4  -11    2     -0.04      0.00
   -4  -11    1      0.10      0.00
    4   11    0     -0.03      0.00
    4   11    1     -0.09      0.00
    4   11    2      0.20      0.00
    4   11    3      0.50      0.00
    4   11    4      0.49      0.00
   -4  -12    9      0.11      0.00
   -4  -12    8     -0.14      0.00
   -4  -12    7     -0.26      0.00
   -4  -12    6     -0.08      0.00
   -4  -12    5     -0.03      0.00
   -4  -12    4     -0.05      0.00
   -4  -12    3      0.10      0.00
   -4  -12    2      0.10      0.00
   -4  -12    1     -0.09      0.00
    4   12    0     -0.01      0.00
   -5   12    5     -0.14      0.00
   -5   12    4     -0.77      0.00
   -5   12    3     -0.91      0.00
   -5   12    2     -0.61      0.00
   -5   12    1     -0.31      0.00
   -5   12    0     -0.13      0.00
    5  -12    1      0.08      0.00
    5  -12    2      0.14      0.00
    5  -12    3     -0.19      0.00
    5  -12    4     -0.59      0.00
    5  -12    5     -0.53      0.00
    5  -12    6     -0.07      0.00
    5  -12    7      0.22      0.00
   -5   11    8      0.46      0.00
   -5   11    7     -0.12      0.00
   -5   11    5     -0.37      0.00
   -5   11    4      0.19      0.00
   -5   11    3      0.70      0.00
   -5   11    2      0.81      0.00
   -5   11    1      0.56      0.00
   -5   11    0      0.29      0.00
    5  -11    1      0.18      0.00
    5  -11    2      0.13      0.00
    5  -11    3      0.15      0.00
    5  -11    4      0.31      0.00
    5  -11    5      0.43      0.00
    5  -11    6      0.28      0.00
    5  -11    7      0.01      0.00
   -5   10   10     -0.27      0.00
   -5   10    9     -0.81      0.00
   -5   10    8     -0.86      0.00
   -5   10    7     -0.35      0.00
   -5   10    6      0.06      0.00
   -5   10    5      0.10      0.00
   -5   10    4      0.02      0.00
   -5   10    3     -0.16      0.00
   -5   10    2     -0.49      0.00
   -5   10    1     -0.58      0.00
   -5   10    0     -0.25      0.00
    5  -10    1     -0.03      0.00
    5  -10    2     -0.21      0.00
    5  -10    3     -0.41      0.00
    5  -10    4     -0.32      0.00
    5  -10    5     -0.16      0.00
    5  -10    6     -0.15      0.00
    5  -10    7     -0.23      0.00
    5  -10    8     -0.17      0.00
    5  -10    9      0.13      0.00
    5  -10   10      0.33      0.00
   -5    9   11     -0.28      0.00
   -5    9   10     -0.05      0.00
   -5    9    9      0.58      0.00
   -5    9    8      0.90      0.00
   -5    9    7      0.55      0.00
   -5    9    6      0.17      0.00
   -5    9    5      0.22      0.00
   -5    9    4      0.26      0.00
   -5    9    3      0.05      0.00
   -5    9    2      0.13      0.00
   -5    9    1      0.51      0.00
   -5    9    0      0.51      0.00
    5   -9    1      0.09      0.00
    5   -9    2     -0.03      0.00
    5   -9    3      0.28      0.00
    5   -9    4      0.44      0.00
    5   -9    5      0.20      0.00
    5   -9    6     -0.05      0.00
    5   -9    7      0.02      0.00
    5   -9    8      0.18      0.00
    5   -9    9     -0.03      0.00
    5   -9   10     -0.45      0.00
    5   -9   11     -0.41      0.00
    5   -9   12      0.08      0.00
   -5    8   12     -0.24      0.00
   -5    8   11      0.07      0.00
   -5    8   10      0.18      0.00
   -5    8    9     -0.20      0.00
   -5    8    8     -0.66      0.00
   -5    8    7     -0.60      0.00
   -5    8    6     -0.16      0.00
   -5    8    5      0.04      0.00
   -5    8    4      0.01      0.00
   -5    8    3      0.17      0.00
   -5    8    2      0.39      0.00
   -5    8    1      0.20      0.00
   -5    8    0     -0.18      0.00
    5   -8    1     -0.22      0.00
    5   -8    2     -0.04      0.00
    5   -8    3     -0.03      0.00
    5   -8    4     -0.14      0.00
    5   -8    5     -0.08      0.00
    5   -8    6      0.13      0.00
    5   -8    7      0.21      0.00
    5   -8    8      0.04      0.00
    5   -8    9      0.03      0.00
    5   -8   10      0.45      0.00
    5   -8   11      0.81      0.00
    5   -8   12      0.58      0.00
    5   -8   13      0.07      0.00
   -5    7   13      0.14      0.00
   -5    7   12      0.24      0.00
   -5    7   11      0.07      0.00
   -5    7   10     -0.14      0.00
   -5    7    9     -0.06      0.00
   -5    7    8      0.26      0.00
   -5    7    7      0.54      0.00
   -5    7    6      0.51      0.00
   -5    7    5      0.19      0.00
   -5    7    4     -0.08      0.00
   -5    7    3     -0.16      0.00
   -5    7    2     -0.19      0.00
   -5    7    1     -0.25      0.00
   -5    7    0     -0.12      0.00
    5   -7    1      0.22      0.00
    5   -7    2      0.57      0.00
    5   -7    3      0.69      0.00
    5   -7    4      0.48      0.00
    5   -7    5      0.10      0.00
    5   -7    6     -0.23      0.00
    5   -7    7     -0.34      0.00
    5   -7    8     -0.18      0.00
    5   -7    9      0.10      0.00
    5   -7   10      0.10      0.00
    5   -7   11     -0.31      0.00
    5   -7   12     -0.66      0.00
    5   -7   13     -0.58      0.00
   -5    6   14     -0.23      0.00
   -5    6   13     -0.05      0.00
   -5    6   12     -0.09      0.00
   -5    6   11     -0.08      0.00
   -5    6   10      0.05      0.00
   -5    6    9      0.10      0.00
   -5    6    8      0.09      0.00
   -5    6    7     -0.02      0.00
   -5    6    6     -0.34      0.00
   -5    6    5     -0.52      0.00
   -5    6    4     -0.19      0.00
   -5    6    3      0.21      0.00
   -5    6    2      0.25      0.00
   -5    6    1      0.20      0.00
   -5    6    0      0.26      0.00
    5   -6    1      0.08      0.00
    5   -6    2     -0.52      0.00
    5   -6    3     -1.12      0.00
    5   -6    4     -1.17      0.00
    5   -6    5     -0.61      0.00
    5   -6    6      0.08      0.00
    5   -6    7      0.44      0.00
    5   -6    8      0.43      0.00
    5   -6    9      0.17      0.00
    5   -6   10     -0.17      0.00
    5   -6   11     -0.27      0.00
    5   -6   12     -0.01      0.00
    5   -6   13      0.26      0.00
    5   -6   14      0.27      0.00
   -5    5   15      0.60      0.00
   -5    5   14      0.44      0.00
   -5    5   13      0.05      0.00
   -5    5   12      0.03      0.00
   -5    5   11      0.25      0.00
   -5    5   10      0.24      0.00
   -5    5    9      0.12      0.00
   -5    5    8     -0.05      0.00
   -5    5    7     -0.32      0.00
   -5    5    6     -0.24      0.00
   -5    5    5      0.37      0.00
   -5    5    4      0.74      0.00
   -5    5    3      0.46      0.00
   -5    5    2      0.05      0.00
   -5    5    1     -0.28      0.00
   -5    5    0     -0.63      0.00
    5   -5    1     -0.68      0.00
    5   -5    2     -0.13      0.00
    5   -5    3      0.70      0.00
    5   -5    4      1.24      0.00
    5   -5    5      1.14      0.00
    5   -5    6      0.55      0.00
    5   -5    7      0.03      0.00
    5   -5    8     -0.13      0.00
    5   -5    9     -0.19      0.00
    5   -5   10     -0.22      0.00
    5   -5   11     -0.11      0.00
    5   -5   12     -0.04      0.00
    5   -5   13     -0.16      0.00
    5   -5   14     -0.19      0.00
   -5    4   17     -0.49      0.00
   -5    4   16     -0.77      0.00
   -5    4   15     -0.91      0.00
   -5    4   14     -0.65      0.00
   -5    4   13      0.00      0.00
   -5    4   12      0.26      0.00
   -5    4   11     -0.15      0.00
   -5    4   10     -0.45      0.00
   -5    4    9     -0.29      0.00
   -5    4    8      0.00      0.00
   -5    4    7      0.42      0.00
   -5    4    6      0.75      0.00
   -5    4    5      0.34      0.00
   -5    4    4     -0.67      0.00
   -5    4    3     -1.45      0.00
   -5    4    2     -1.70      0.00
   -5    4    1     -1.33      0.00
   -5    4    0     -0.32      0.00
    5   -4    1      0.62      0.00
    5   -4    2      0.69      0.00
    5   -4    3      0.09      0.00
    5   -4    4     -0.59      0.00
    5   -4    5     -1.01      0.00
    5   -4    6     -0.90      0.00
    5   -4    7     -0.46      0.00
    5   -4    8     -0.30      0.00
    5   -4    9     -0.30      0.00
    5   -4   10      0.01      0.00
    5   -4   11      0.39      0.00
    5   -4   12      0.47      0.00
    5   -4   13      0.51      0.00
    5   -4   14      0.59      0.00
    5   -4   15      0.38      0.00
   -5    3   17      0.27      0.00
   -5    3   16      0.91      0.00
   -5    3   15      1.28      0.00
   -5    3   14      1.17      0.00
   -5    3   13      0.46      0.00
   -5    3   12     -0.25      0.00
   -5    3   11     -0.17      0.00
   -5    3   10      0.31      0.00
   -5    3    9      0.39      0.00
   -5    3    8      0.13      0.00
   -5    3    7     -0.31      0.00
   -5    3    6     -0.98      0.00
   -5    3    5     -1.33      0.00
   -5    3    4     -0.75      0.00
   -5    3    3      0.53      0.00
   -5    3    2      2.02      0.00
   -5    3    1      3.01      0.00
   -5    3    0      2.55      0.00
    5   -3    1      0.90      0.00
    5   -3    2     -0.42      0.00
    5   -3    3     -0.73      0.00
    5   -3    4     -0.41      0.00
    5   -3    5      0.25      0.00
    5   -3    6      0.77      0.00
    5   -3    7      0.64      0.00
    5   -3    8      0.39      0.00
    5   -3    9      0.56      0.00
    5   -3   10      0.55      0.00
    5   -3   11      0.06      0.00
    5   -3   12     -0.24      0.00
    5   -3   13     -0.24      0.00
    5   -3   14     -0.43      0.00
    5   -3   15     -0.59      0.00
   -5    2   17      0.35      0.00
   -5    2   16     -0.26      0.00
   -5    2   15     -0.84      0.00
   -5    2   14     -1.07      0.00
   -5    2   13     -0.81      0.00
   -5    2   12     -0.15      0.00
   -5    2   11      0.28      0.00
   -5    2   10      0.13      0.00
   -5    2    9     -0.22      0.00
   -5    2    8     -0.48      0.00
   -5    2    7     -0.52      0.00
   -5    2    6      0.06      0.00
   -5    2    5      1.10      0.00
   -5    2    4      1.67      0.00
   -5    2    3      1.17      0.00
   -5    2    2     -0.42      0.00
   -5    2    1     -2.62      0.00
   -5    2    0     -3.86      0.00
    5   -2    1     -3.02      0.00
    5   -2    2     -1.17      0.00
    5   -2    3      0.15      0.00
    5   -2    4      0.65      0.00
    5   -2    5      0.43      0.00
    5   -2    6     -0.32      0.00
    5   -2    7     -0.72      0.00
    5   -2    8     -0.51      0.00
    5   -2    9     -0.53      0.00
    5   -2   10     -0.75      0.00
    5   -2   11     -0.45      0.00
    5   -2   12     -0.02      0.00
    5   -2   13     -0.13      0.00
    5   -2   14     -0.24      0.00
    5   -2   15      0.07      0.00
   -5    1   18      0.02      0.00
   -5    1   17     -0.56      0.00
   -5    1   16     -0.40      0.00
   -5    1   15      0.06      0.00
   -5    1   14      0.30      0.00
   -5    1   13      0.34      0.00
   -5    1   12      0.13      0.00
   -5    1   11     -0.34      0.00
   -5    1   10     -0.68      0.00
   -5    1    9     -0.56      0.00
   -5    1    8      0.05      0.00
   -5    1    7      0.85      0.00
   -5    1    6      1.04      0.00
   -5    1    5      0.11      0.00
   -5    1    4     -1.29      0.00
   -5    1    3     -2.10      0.00
   -5    1    2     -1.60      0.00
   -5    1    1      0.42      0.00
   -5    1    0      2.78      0.00
    5   -1    1      3.48      0.00
    5   -1    2      2.31      0.00
    5   -1    3      0.86      0.00
    5   -1    4     -0.04      0.00
    5   -1    5     -0.48      0.00
    5   -1    6     -0.30      0.00
    5   -1    7      0.17      0.00
    5   -1    8      0.22      0.00
    5   -1    9      0.16      0.00
    5   -1   10      0.39      0.00
    5   -1   11      0.30      0.00
    5   -1   12     -0.21      0.00
    5   -1   13     -0.25      0.00
    5   -1   14      0.14      0.00
    5   -1   15      0.22      0.00
   -5    0   18     -0.48      0.00
   -5    0   17      0.24      0.00
   -5    0   16      0.50      0.00
   -5    0   15      0.24      0.00
   -5    0   14      0.07      0.00
   -5    0   13      0.03      0.00
   -5    0   12     -0.01      0.00
   -5    0   11      0.24      0.00
   -5    0   10      0.83      0.00
   -5    0    9      1.21      0.00
   -5    0    8      0.85      0.00
   -5    0    7     -0.15      0.00
   -5    0    6     -1.08      0.00
   -5    0    5     -1.10      0.00
   -5    0    4     -0.14      0.00
   -5    0    3      1.20      0.00
   -5    0    2      2.07      0.00
   -5    0    1      1.44      0.00
    5    0    0     -0.70      0.00
    5    0    1     -2.48      0.00
    5    0    2     -2.43      0.00
    5    0    3     -1.42      0.00
    5    0    4     -0.70      0.00
    5    0    5     -0.23      0.00
    5    0    6      0.12      0.00
    5    0    7      0.11      0.00
    5    0    8      0.01      0.00
    5    0    9     -0.03      0.00
    5    0   10     -0.22      0.00
    5    0   11     -0.29      0.00
    5    0   12      0.11      0.00
    5    0   13      0.39      0.00
    5    0   14      0.15      0.00
    5    0   15     -0.06      0.00
   -5   -1   18      0.51      0.00
   -5   -1   17      0.06      0.00
   -5   -1   16     -0.34      0.00
   -5   -1   15     -0.28      0.00
   -5   -1   14     -0.18      0.00
   -5   -1   13     -0.14      0.00
   -5   -1   12      0.12      0.00
   -5   -1   11      0.29      0.00
   -5   -1   10     -0.21      0.00
   -5   -1    9     -1.07      0.00
   -5   -1    8     -1.42      0.00
   -5   -1    7     -0.91      0.00
   -5   -1    6     -0.05      0.00
   -5   -1    5      0.56      0.00
   -5   -1    4      0.76      0.00
   -5   -1    3      0.47      0.00
   -5   -1    2     -0.44      0.00
   -5   -1    1     -1.17      0.00
    5    1    0     -0.43      0.00
    5    1    1      1.33      0.00
    5    1    2      2.23      0.00
    5    1    3      1.84      0.00
    5    1    4      1.26      0.00
    5    1    5      0.86      0.00
    5    1    6      0.36      0.00
    5    1    7      0.00      0.00
    5    1    8      0.01      0.00
    5    1    9      0.18      0.00
    5    1   10      0.36      0.00
    5    1   11      0.42      0.00
    5    1   12      0.14      0.00
    5    1   13     -0.13      0.00
    5    1   14      0.00      0.00
   -5   -2   18     -0.31      0.00
   -5   -2   17     -0.14      0.00
   -5   -2   16      0.07      0.00
   -5   -2   15      0.02      0.00
   -5   -2   14      0.01      0.00
   -5   -2   13      0.19      0.00
   -5   -2   12      0.03      0.00
   -5   -2   11     -0.57      0.00
   -5   -2   10     -0.81      0.00
   -5   -2    9     -0.13      0.00
   -5   -2    8      0.92      0.00
   -5   -2    7      1.46      0.00
   -5   -2    6      1.37      0.00
   -5   -2    5      1.16      0.00
   -5   -2    4      0.81      0.00
   -5   -2    3      0.14      0.00
   -5   -2    2     -0.23      0.00
   -5   -2    1      0.27      0.00
    5    2    0      0.63      0.00
    5    2    1     -0.19      0.00
    5    2    2     -1.36      0.00
    5    2    3     -1.72      0.00
    5    2    4     -1.48      0.00
    5    2    5     -1.11      0.00
    5    2    6     -0.49      0.00
    5    2    7      0.18      0.00
    5    2    8      0.36      0.00
    5    2    9      0.11      0.00
    5    2   10     -0.20      0.00
    5    2   11     -0.26      0.00
    5    2   12      0.04      0.00
    5    2   13      0.34      0.00
   -5   -3   18     -0.07      0.00
   -5   -3   17     -0.26      0.00
   -5   -3   16     -0.44      0.00
   -5   -3   15     -0.33      0.00
   -5   -3   14     -0.19      0.00
   -5   -3   13     -0.41      0.00
   -5   -3   12     -0.71      0.00
   -5   -3   11     -0.46      0.00
   -5   -3   10      0.31      0.00
   -5   -3    9      0.82      0.00
   -5   -3    8      0.41      0.00
   -5   -3    7     -0.65      0.00
   -5   -3    6     -1.49      0.00
   -5   -3    5     -1.88      0.00
   -5   -3    4     -2.01      0.00
   -5   -3    3     -1.64      0.00
   -5   -3    2     -0.80      0.00
   -5   -3    1     -0.44      0.00
    5    3    0     -0.71      0.00
    5    3    1     -0.61      0.00
    5    3    2      0.18      0.00
    5    3    3      0.84      0.00
    5    3    4      1.05      0.00
    5    3    5      1.03      0.00
    5    3    6      0.62      0.00
    5    3    7     -0.10      0.00
    5    3    8     -0.57      0.00
    5    3    9     -0.48      0.00
    5    3   10     -0.10      0.00
    5    3   11      0.16      0.00
    5    3   12      0.03      0.00
    5    3   13     -0.32      0.00
   -5   -4   18      0.26      0.00
   -5   -4   17      0.44      0.00
   -5   -4   16      0.74      0.00
   -5   -4   15      0.87      0.00
   -5   -4   14      0.80      0.00
   -5   -4   13      0.84      0.00
   -5   -4   12      1.11      0.00
   -5   -4   11      1.45      0.00
   -5   -4   10      1.36      0.00
   -5   -4    9      0.50      0.00
   -5   -4    8     -0.50      0.00
   -5   -4    7     -0.46      0.00
   -5   -4    6      0.53      0.00
   -5   -4    5      1.42      0.00
   -5   -4    4      1.81      0.00
   -5   -4    3      1.82      0.00
   -5   -4    2      1.42      0.00
   -5   -4    1      0.97      0.00
    5    4    0      0.98      0.00
    5    4    1      1.02      0.00
    5    4    2      0.56      0.00
    5    4    3      0.00      0.00
    5    4    4     -0.25      0.00
    5    4    5     -0.39      0.00
    5    4    6     -0.42      0.00
    5    4    7     -0.15      0.00
    5    4    8      0.22      0.00
    5    4    9      0.38      0.00
    5    4   10      0.27      0.00
    5    4   11     -0.03      0.00
    5    4   12     -0.24      0.00
   -5   -5   18     -0.05      0.00
   -5   -5   17      0.03      0.00
   -5   -5   16     -0.04      0.00
   -5   -5   15     -0.22      0.00
   -5   -5   14     -0.37      0.00
   -5   -5   13     -0.55      0.00
   -5   -5   12     -0.71      0.00
   -5   -5   11     -0.92      0.00
   -5   -5   10     -1.39      0.00
   -5   -5    9     -1.50      0.00
   -5   -5    8     -0.53      0.00
   -5   -5    7      0.65      0.00
   -5   -5    6      0.66      0.00
   -5   -5    5     -0.22      0.00
   -5   -5    4     -0.90      0.00
   -5   -5    3     -1.11      0.00
   -5   -5    2     -1.02      0.00
   -5   -5    1     -0.80      0.00
    5    5    0     -0.78      0.00
    5    5    1     -0.87      0.00
    5    5    2     -0.59      0.00
    5    5    3     -0.10      0.00
    5    5    4      0.04      0.00
    5    5    5     -0.04      0.00
    5    5    6     -0.00      0.00
    5    5    7      0.10      0.00
    5    5    8      0.16      0.00
    5    5    9      0.12      0.00
    5    5   10     -0.08      0.00
    5    5   11     -0.16      0.00
    5    5   12      0.03      0.00
   -5   -6   18      0.30      0.00
   -5   -6   17      0.15      0.00
   -5   -6   16     -0.01      0.00
   -5   -6   15     -0.06      0.00
   -5   -6   14     -0.14      0.00
   -5   -6   13     -0.02      0.00
   -5   -6   12      0.36      0.00
   -5   -6   11      0.62      0.00
   -5   -6   10      0.88      0.00
   -5   -6    9      1.37      0.00
   -5   -6    8      1.34      0.00
   -5   -6    7      0.36      0.00
   -5   -6    6     -0.50      0.00
   -5   -6    5     -0.39      0.00
   -5   -6    4      0.16      0.00
   -5   -6    3      0.49      0.00
   -5   -6    2      0.56      0.00
   -5   -6    1      0.52      0.00
    5    6    0      0.51      0.00
    5    6    1      0.58      0.00
    5    6    2      0.43      0.00
    5    6    3      0.05      0.00
    5    6    4     -0.06      0.00
    5    6    5      0.19      0.00
    5    6    6      0.40      0.00
    5    6    7      0.36      0.00
    5    6    8      0.07      0.00
    5    6    9     -0.28      0.00
    5    6   10     -0.31      0.00
   -5   -7   17     -0.50      0.00
   -5   -7   16     -0.34      0.00
   -5   -7   15     -0.37      0.00
   -5   -7   14     -0.26      0.00
   -5   -7   13      0.03      0.00
   -5   -7   12     -0.07      0.00
   -5   -7   11     -0.53      0.00
   -5   -7   10     -0.86      0.00
   -5   -7    9     -1.11      0.00
   -5   -7    8     -1.36      0.00
   -5   -7    7     -1.14      0.00
   -5   -7    6     -0.50      0.00
   -5   -7    5     -0.16      0.00
   -5   -7    4     -0.23      0.00
   -5   -7    3     -0.30      0.00
   -5   -7    2     -0.24      0.00
   -5   -7    1     -0.19      0.00
    5    7    0     -0.25      0.00
    5    7    1     -0.35      0.00
    5    7    2     -0.25      0.00
    5    7    3      0.02      0.00
    5    7    4      0.08      0.00
    5    7    5     -0.23      0.00
    5    7    6     -0.58      0.00
    5    7    7     -0.73      0.00
    5    7    8     -0.60      0.00
    5    7    9     -0.18      0.00
   -5   -8   16      0.08      0.00
   -5   -8   15      0.07      0.00
   -5   -8   14      0.29      0.00
   -5   -8   13      0.25      0.00
   -5   -8   12      0.05      0.00
   -5   -8   11      0.12      0.00
   -5   -8   10      0.38      0.00
   -5   -8    9      0.53      0.00
   -5   -8    8      0.64      0.00
   -5   -8    7      0.73      0.00
   -5   -8    6      0.67      0.00
   -5   -8    5      0.53      0.00
   -5   -8    4      0.48      0.00
   -5   -8    3      0.40      0.00
   -5   -8    2      0.13      0.00
   -5   -8    1     -0.20      0.00
    5    8    0     -0.32      0.00
    5    8    1     -0.21      0.00
    5    8    2     -0.20      0.00
    5    8    3     -0.40      0.00
    5    8    4     -0.47      0.00
    5    8    5     -0.19      0.00
    5    8    6      0.17      0.00
    5    8    7      0.39      0.00
    5    8    8      0.48      0.00
   -5   -9   15      0.11      0.00
   -5   -9   14      0.09      0.00
   -5   -9   13     -0.20      0.00
   -5   -9   12     -0.45      0.00
   -5   -9   11     -0.49      0.00
   -5   -9   10     -0.42      0.00
   -5   -9    9     -0.32      0.00
   -5   -9    8     -0.22      0.00
   -5   -9    7     -0.27      0.00
   -5   -9    6     -0.50      0.00
   -5   -9    5     -0.70      0.00
   -5   -9    4     -0.76      0.00
   -5   -9    3     -0.77      0.00
   -5   -9    2     -0.69      0.00
   -5   -9    1     -0.36      0.00
    5    9    0      0.07      0.00
    5    9    1      0.27      0.00
    5    9    2      0.31      0.00
    5    9    3      0.41      0.00
    5    9    4      0.46      0.00
    5    9    5      0.31      0.00
    5    9    6      0.12      0.00
   -5  -10   13     -0.20      0.00
   -5  -10   12      0.14      0.00
   -5  -10   11      0.57      0.00
   -5  -10   10      0.67      0.00
   -5  -10    9      0.51      0.00
   -5  -10    8      0.22      0.00
   -5  -10    7     -0.04      0.00
   -5  -10    6      0.01      0.00
   -5  -10    5      0.33      0.00
   -5  -10    4      0.50      0.00
   -5  -10    3      0.51      0.00
   -5  -10    2      0.62      0.00
   -5  -10    1      0.66      0.00
    5   10    0      0.38      0.00
    5   10    1     -0.01      0.00
    5   10    2     -0.26      0.00
    5   10    3     -0.36      0.00
    5   10    4     -0.27      0.00
    5   10    5     -0.04      0.00
   -5  -11   11      0.07      0.00
   -5  -11   10     -0.18      0.00
   -5  -11    9     -0.21      0.00
   -5  -11    8     -0.17      0.00
   -5  -11    7      0.04      0.00
   -5  -11    6      0.27      0.00
   -5  -11    5      0.18      0.00
   -5  -11    4     -0.03      0.00
   -5  -11    3      0.01      0.00
   -5  -11    2      0.01      0.00
   -5  -11    1     -0.20      0.00
    5   11    0     -0.27      0.00
    5   11    1     -0.08      0.00
   -5  -12    8     -0.12      0.00
   -5  -12    7      0.04      0.00
   -5  -12    6     -0.01      0.00
   -5  -12    5     -0.04      0.00
   -5  -12    3      0.09      0.00
   -5  -12    2     -0.10      0.00
   -6   12    1     -0.39      0.00
   -6   12    0     -0.17      0.00
    6  -12    1      0.15      0.00
    6  -12    2     -0.03      0.00
    6  -12    4     -0.39      0.00
    6  -12    5      0.21      0.00
   -6   11    5      0.61      0.00
   -6   11    4      1.15      0.00
   -6   11    3      1.10      0.00
   -6   11    2      0.91      0.00
   -6   11    1      0.99      0.00
   -6   11    0      0.90      0.00
    6  -11    1      0.37      0.00
    6  -11    2      0.02      0.00
    6  -11    3      0.30      0.00
    6  -11    4      0.59      0.00
    6  -11    5      0.26      0.00
    6  -11    6     -0.34      0.00
    6  -11    7     -0.51      0.00
   -6   10    8     -0.45      0.00
   -6   10    7     -0.04      0.00
   -6   10    6      0.12      0.00
   -6   10    5     -0.03      0.00
   -6   10    4     -0.38      0.00
   -6   10    3     -0.61      0.00
   -6   10    2     -0.61      0.00
   -6   10    1     -0.66      0.00
   -6   10    0     -0.81      0.00
    6  -10    1     -0.70      0.00
    6  -10    2     -0.30      0.00
    6  -10    3     -0.08      0.00
    6  -10    4     -0.20      0.00
    6  -10    5     -0.32      0.00
    6  -10    6     -0.23      0.00
    6  -10    7     -0.07      0.00
    6  -10    8     -0.04      0.00
    6  -10    9     -0.10      0.00
   -6    9   11      0.27      0.00
   -6    9   10      0.65      0.00
   -6    9    9      0.83      0.00
   -6    9    8      0.55      0.00
   -6    9    7      0.30      0.00
   -6    9    6      0.33      0.00
   -6    9    5      0.24      0.00
   -6    9    4     -0.05      0.00
   -6    9    3     -0.10      0.00
   -6    9    2      0.13      0.00
   -6    9    1      0.27      0.00
   -6    9    0      0.22      0.00
    6   -9    1      0.19      0.00
    6   -9    2      0.18      0.00
    6   -9    3      0.07      0.00
    6   -9    4     -0.15      0.00
    6   -9    5     -0.23      0.00
    6   -9    6      0.03      0.00
    6   -9    7      0.33      0.00
    6   -9    8      0.33      0.00
    6   -9    9      0.17      0.00
    6   -9   10      0.16      0.00
    6   -9   11      0.24      0.00
   -6    8   12     -0.25      0.00
   -6    8   11     -0.11      0.00
   -6    8   10     -0.31      0.00
   -6    8    9     -0.58      0.00
   -6    8    8     -0.46      0.00
   -6    8    7     -0.25      0.00
   -6    8    6     -0.39      0.00
   -6    8    5     -0.49      0.00
   -6    8    4     -0.07      0.00
   -6    8    3      0.35      0.00
   -6    8    2      0.10      0.00
   -6    8    1     -0.46      0.00
   -6    8    0     -0.53      0.00
    6   -8    1     -0.11      0.00
    6   -8    2      0.19      0.00
    6   -8    3      0.14      0.00
    6   -8    4      0.18      0.00
    6   -8    5      0.46      0.00
    6   -8    6      0.48      0.00
    6   -8    7      0.09      0.00
    6   -8    8     -0.11      0.00
    6   -8    9      0.16      0.00
    6   -8   10      0.31      0.00
    6   -8   11      0.01      0.00
    6   -8   12     -0.31      0.00
   -6    7   13      0.26      0.00
   -6    7   12      0.20      0.00
   -6    7   11     -0.02      0.00
   -6    7   10     -0.03      0.00
   -6    7    9      0.16      0.00
   -6    7    8      0.27      0.00
   -6    7    7      0.25      0.00
   -6    7    6      0.26      0.00
   -6    7    5      0.20      0.00
   -6    7    4     -0.13      0.00
   -6    7    3     -0.54      0.00
   -6    7    2     -0.46      0.00
   -6    7    1      0.23      0.00
   -6    7    0      0.87      0.00
    6   -7    1      0.82      0.00
    6   -7    2      0.29      0.00
    6   -7    3     -0.06      0.00
    6   -7    4     -0.12      0.00
    6   -7    5     -0.29      0.00
    6   -7    6     -0.50      0.00
    6   -7    7     -0.31      0.00
    6   -7    8      0.00      0.00
    6   -7    9     -0.16      0.00
    6   -7   10     -0.59      0.00
    6   -7   11     -0.57      0.00
    6   -7   12     -0.11      0.00
   -6    6   14     -0.00      0.00
   -6    6   13     -0.02      0.00
   -6    6   12      0.12      0.00
   -6    6   11      0.25      0.00
   -6    6   10      0.16      0.00
   -6    6    9      0.01      0.00
   -6    6    8     -0.11      0.00
   -6    6    7     -0.37      0.00
   -6    6    6     -0.61      0.00
   -6    6    5     -0.37      0.00
   -6    6    4      0.19      0.00
   -6    6    3      0.53      0.00
   -6    6    2      0.48      0.00
   -6    6    1      0.16      0.00
   -6    6    0     -0.35      0.00
    6   -6    1     -0.78      0.00
    6   -6    2     -0.78      0.00
    6   -6    3     -0.41      0.00
    6   -6    4     -0.00      0.00
    6   -6    5      0.33      0.00
    6   -6    6      0.59      0.00
    6   -6    7      0.55      0.00
    6   -6    8      0.16      0.00
    6   -6    9     -0.10      0.00
    6   -6   10      0.16      0.00
    6   -6   11      0.51      0.00
    6   -6   12      0.43      0.00
    6   -6   13      0.09      0.00
   -6    5   15      0.41      0.00
   -6    5   14      0.34      0.00
   -6    5   13      0.19      0.00
   -6    5   12     -0.11      0.00
   -6    5   11     -0.37      0.00
   -6    5   10     -0.20      0.00
   -6    5    9      0.11      0.00
   -6    5    8      0.14      0.00
   -6    5    7      0.32      0.00
   -6    5    6      0.86      0.00
   -6    5    5      0.96      0.00
   -6    5    4      0.29      0.00
   -6    5    3     -0.32      0.00
   -6    5    2     -0.38      0.00
   -6    5    1     -0.31      0.00
   -6    5    0     -0.28      0.00
    6   -5    1     -0.04      0.00
    6   -5    2      0.35      0.00
    6   -5    3      0.54      0.00
    6   -5    4      0.30      0.00
    6   -5    5     -0.19      0.00
    6   -5    6     -0.58      0.00
    6   -5    7     -0.65      0.00
    6   -5    8     -0.40      0.00
    6   -5    9      0.02      0.00
    6   -5   10      0.21      0.00
    6   -5   11     -0.03      0.00
    6   -5   12     -0.30      0.00
    6   -5   13     -0.19      0.00
   -6    4   16     -0.54      0.00
   -6    4   15     -0.54      0.00
   -6    4   14     -0.36      0.00
   -6    4   13     -0.22      0.00
   -6    4   12     -0.12      0.00
   -6    4   11      0.14      0.00
   -6    4   10      0.29      0.00
   -6    4    9      0.16      0.00
   -6    4    8      0.17      0.00
   -6    4    7      0.18      0.00
   -6    4    6     -0.41      0.00
   -6    4    5     -1.17      0.00
   -6    4    4     -1.19      0.00
   -6    4    3     -0.67      0.00
   -6    4    2     -0.26      0.00
   -6    4    1      0.05      0.00
   -6    4    0      0.36      0.00
    6   -4    1      0.41      0.00
    6   -4    2      0.11      0.00
    6   -4    3     -0.35      0.00
    6   -4    4     -0.59      0.00
    6   -4    5     -0.33      0.00
    6   -4    6      0.14      0.00
    6   -4    7      0.30      0.00
    6   -4    8      0.19      0.00
    6   -4    9      0.05      0.00
    6   -4   10     -0.13      0.00
    6   -4   11     -0.15      0.00
    6   -4   12      0.16      0.00
    6   -4   13      0.34      0.00
   -6    3   17      1.05      0.00
   -6    3   16      1.14      0.00
   -6    3   15      1.06      0.00
   -6    3   14      0.65      0.00
   -6    3   13      0.21      0.00
   -6    3   12      0.27      0.00
   -6    3   11      0.47      0.00
   -6    3   10      0.30      0.00
   -6    3    9     -0.09      0.00
   -6    3    8     -0.54      0.00
   -6    3    7     -0.90      0.00
   -6    3    6     -0.64      0.00
   -6    3    5      0.33      0.00
   -6    3    4      1.24      0.00
   -6    3    3      1.65      0.00
   -6    3    2      1.60      0.00
   -6    3    1      0.97      0.00
   -6    3    0      0.10      0.00
    6   -3    1     -0.34      0.00
    6   -3    2     -0.31      0.00
    6   -3    3     -0.06      0.00
    6   -3    4      0.39      0.00
    6   -3    5      0.62      0.00
    6   -3    6      0.29      0.00
    6   -3    7     -0.01      0.00
    6   -3    8      0.11      0.00
    6   -3    9      0.17      0.00
    6   -3   10      0.10      0.00
    6   -3   11      0.15      0.00
    6   -3   12      0.04      0.00
    6   -3   13     -0.33      0.00
    6   -3   14     -0.39      0.00
   -6    2   17     -0.66      0.00
   -6    2   16     -1.06      0.00
   -6    2   15     -1.27      0.00
   -6    2   14     -1.08      0.00
   -6    2   13     -0.51      0.00
   -6    2   12     -0.31      0.00
   -6    2   11     -0.72      0.00
   -6    2   10     -0.98      0.00
   -6    2    9     -0.66      0.00
   -6    2    8      0.03      0.00
   -6    2    7      0.81      0.00
   -6    2    6      1.23      0.00
   -6    2    5      0.91      0.00
   -6    2    4      0.06      0.00
   -6    2    3     -1.08      0.00
   -6    2    2     -2.14      0.00
   -6    2    1     -2.22      0.00
   -6    2    0     -1.19      0.00
    6   -2    1     -0.24      0.00
    6   -2    2      0.12      0.00
    6   -2    3      0.33      0.00
    6   -2    4      0.24      0.00
    6   -2    5     -0.32      0.00
    6   -2    6     -0.54      0.00
    6   -2    7     -0.23      0.00
    6   -2    8     -0.21      0.00
    6   -2    9     -0.41      0.00
    6   -2   10     -0.31      0.00
    6   -2   11     -0.25      0.00
    6   -2   12     -0.40      0.00
    6   -2   13     -0.24      0.00
    6   -2   14      0.13      0.00
   -6    1   17     -0.21      0.00
   -6    1   16      0.06      0.00
   -6    1   15      0.30      0.00
   -6    1   14      0.42      0.00
   -6    1   13      0.19      0.00
   -6    1   12     -0.06      0.00
   -6    1   11      0.19      0.00
   -6    1   10      0.63      0.00
   -6    1    9      0.72      0.00
   -6    1    8      0.46      0.00
   -6    1    7     -0.08      0.00
   -6    1    6     -0.77      0.00
   -6    1    5     -1.31      0.00
   -6    1    4     -1.45      0.00
   -6    1    3     -0.76      0.00
   -6    1    2      0.92      0.00
   -6    1    1      2.33      0.00
   -6    1    0      2.14      0.00
    6   -1    1      1.11      0.00
    6   -1    2      0.55      0.00
    6   -1    3      0.13      0.00
    6   -1    4     -0.42      0.00
    6   -1    5     -0.32      0.00
    6   -1    6      0.22      0.00
    6   -1    7      0.25      0.00
    6   -1    8      0.06      0.00
    6   -1    9      0.17      0.00
    6   -1   10      0.15      0.00
    6   -1   11     -0.04      0.00
    6   -1   12      0.14      0.00
    6   -1   13      0.41      0.00
   -6    0   17      0.19      0.00
   -6    0   16      0.13      0.00
   -6    0   15      0.08      0.00
   -6    0   14      0.07      0.00
   -6    0   13      0.20      0.00
   -6    0   12      0.41      0.00
   -6    0   11      0.32      0.00
   -6    0   10     -0.07      0.00
   -6    0    9     -0.41      0.00
   -6    0    8     -0.58      0.00
   -6    0    7     -0.61      0.00
   -6    0    6     -0.34      0.00
   -6    0    5      0.31      0.00
   -6    0    4      1.26      0.00
   -6    0    3      1.82      0.00
   -6    0    2      0.89      0.00
   -6    0    1     -1.17      0.00
    6    0    0     -2.24      0.00
    6    0    1     -1.68      0.00
    6    0    2     -1.01      0.00
    6    0    3     -0.78      0.00
    6    0    4     -0.22      0.00
    6    0    5      0.32      0.00
    6    0    6      0.20      0.00
    6    0    7     -0.04      0.00
    6    0    8      0.05      0.00
    6    0    9      0.07      0.00
    6    0   10      0.10      0.00
    6    0   11      0.36      0.00
    6    0   12      0.41      0.00
    6    0   13      0.10      0.00
   -6   -1   18      0.27      0.00
   -6   -1   17     -0.06      0.00
   -6   -1   16     -0.07      0.00
   -6   -1   15      0.02      0.00
   -6   -1   14      0.09      0.00
   -6   -1   13      0.05      0.00
   -6   -1   12     -0.22      0.00
   -6   -1   11     -0.48      0.00
   -6   -1   10     -0.40      0.00
   -6   -1    9     -0.00      0.00
   -6   -1    8      0.51      0.00
   -6   -1    7      0.93      0.00
   -6   -1    6      1.06      0.00
   -6   -1    5      0.88      0.00
   -6   -1    4      0.24      0.00
   -6   -1    3     -0.88      0.00
   -6   -1    2     -1.33      0.00
   -6   -1    1     -0.05      0.00
    6    1    0      1.71      0.00
    6    1    1      2.01      0.00
    6    1    2      1.32      0.00
    6    1    3      0.97      0.00
    6    1    4      0.76      0.00
    6    1    5      0.21      0.00
    6    1    6     -0.11      0.00
    6    1    7     -0.00      0.00
    6    1    8      0.11      0.00
    6    1    9      0.16      0.00
    6    1   10      0.13      0.00
    6    1   11     -0.11      0.00
    6    1   12     -0.29      0.00
    6    1   13     -0.16      0.00
   -6   -2   18     -0.19      0.00
   -6   -2   17      0.12      0.00
   -6   -2   16      0.17      0.00
   -6   -2   15      0.12      0.00
   -6   -2   14      0.05      0.00
   -6   -2   13     -0.16      0.00
   -6   -2   12     -0.28      0.00
   -6   -2   11     -0.00      0.00
   -6   -2   10      0.47      0.00
   -6   -2    9      0.66      0.00
   -6   -2    8      0.28      0.00
   -6   -2    7     -0.35      0.00
   -6   -2    6     -0.65      0.00
   -6   -2    5     -0.61      0.00
   -6   -2    4     -0.55      0.00
   -6   -2    3     -0.13      0.00
   -6   -2    2      0.69      0.00
   -6   -2    1      0.65      0.00
    6    2    0     -0.65      0.00
    6    2    1     -1.68      0.00
    6    2    2     -1.52      0.00
    6    2    3     -1.06      0.00
    6    2    4     -0.81      0.00
    6    2    5     -0.41      0.00
    6    2    6      0.02      0.00
    6    2    7      0.09      0.00
    6    2    8     -0.13      0.00
    6    2    9     -0.35      0.00
    6    2   10     -0.38      0.00
    6    2   11     -0.11      0.00
    6    2   12      0.12      0.00
   -6   -3   18     -0.01      0.00
   -6   -3   17     -0.22      0.00
   -6   -3   16     -0.08      0.00
   -6   -3   15      0.09      0.00
   -6   -3   14     -0.05      0.00
   -6   -3   13     -0.10      0.00
   -6   -3   12      0.21      0.00
   -6   -3   11      0.53      0.00
   -6   -3   10      0.40      0.00
   -6   -3    9     -0.16      0.00
   -6   -3    8     -0.54      0.00
   -6   -3    7     -0.31      0.00
   -6   -3    6      0.05      0.00
   -6   -3    5     -0.03      0.00
   -6   -3    4     -0.13      0.00
   -6   -3    3      0.01      0.00
   -6   -3    2     -0.20      0.00
   -6   -3    1     -0.60      0.00
    6    3    0     -0.23      0.00
    6    3    1      0.70      0.00
    6    3    2      1.12      0.00
    6    3    3      1.00      0.00
    6    3    4      0.80      0.00
    6    3    5      0.44      0.00
    6    3    6     -0.04      0.00
    6    3    7     -0.26      0.00
    6    3    8     -0.08      0.00
    6    3    9      0.26      0.00
    6    3   10      0.43      0.00
    6    3   11      0.19      0.00
    6    3   12     -0.18      0.00
   -6   -4   18      0.39      0.00
   -6   -4   17      0.76      0.00
   -6   -4   16      0.60      0.00
   -6   -4   15      0.16      0.00
   -6   -4   14      0.14      0.00
   -6   -4   13      0.46      0.00
   -6   -4   12      0.54      0.00
   -6   -4   11      0.24      0.00
   -6   -4   10     -0.26      0.00
   -6   -4    9     -0.48      0.00
   -6   -4    8     -0.14      0.00
   -6   -4    7      0.27      0.00
   -6   -4    6      0.25      0.00
   -6   -4    5      0.21      0.00
   -6   -4    4      0.36      0.00
   -6   -4    3      0.30      0.00
   -6   -4    2      0.20      0.00
   -6   -4    1      0.45      0.00
    6    4    0      0.55      0.00
    6    4    1      0.10      0.00
    6    4    2     -0.37      0.00
    6    4    3     -0.51      0.00
    6    4    4     -0.51      0.00
    6    4    5     -0.36      0.00
    6    4    6     -0.01      0.00
    6    4    7      0.23      0.00
    6    4    8      0.20      0.00
    6    4    9     -0.05      0.00
    6    4   10     -0.33      0.00
    6    4   11     -0.32      0.00
   -6   -5   18     -0.26      0.00
   -6   -5   17     -0.64      0.00
   -6   -5   16     -0.68      0.00
   -6   -5   15     -0.35      0.00
   -6   -5   14     -0.29      0.00
   -6   -5   13     -0.55      0.00
   -6   -5   12     -0.72      0.00
   -6   -5   11     -0.79      0.00
   -6   -5   10     -0.65      0.00
   -6   -5    9     -0.07      0.00
   -6   -5    8      0.43      0.00
   -6   -5    7      0.27      0.00
   -6   -5    6     -0.11      0.00
   -6   -5    5     -0.25      0.00
   -6   -5    4     -0.33      0.00
   -6   -5    3     -0.34      0.00
   -6   -5    2     -0.27      0.00
   -6   -5    1     -0.42      0.00
    6    5    0     -0.63      0.00
    6    5    1     -0.43      0.00
    6    5    2     -0.01      0.00
    6    5    3      0.17      0.00
    6    5    4      0.18      0.00
    6    5    5      0.16      0.00
    6    5    6      0.08      0.00
    6    5    7      0.05      0.00
    6    5    8      0.07      0.00
    6    5    9      0.03      0.00
    6    5   10      0.07      0.00
    6    5   11      0.17      0.00
   -6   -6   16      0.27      0.00
   -6   -6   15     -0.09      0.00
   -6   -6   14     -0.09      0.00
   -6   -6   13      0.43      0.00
   -6   -6   12      0.68      0.00
   -6   -6   11      0.60      0.00
   -6   -6   10      0.72      0.00
   -6   -6    9      0.69      0.00
   -6   -6    8      0.10      0.00
   -6   -6    7     -0.41      0.00
   -6   -6    6     -0.29      0.00
   -6   -6    5      0.04      0.00
   -6   -6    4      0.22      0.00
   -6   -6    3      0.26      0.00
   -6   -6    2      0.22      0.00
   -6   -6    1      0.30      0.00
    6    6    0      0.51      0.00
    6    6    1      0.46      0.00
    6    6    2      0.15      0.00
    6    6    3     -0.00      0.00
    6    6    4      0.09      0.00
    6    6    5      0.20      0.00
    6    6    6      0.21      0.00
    6    6    7      0.02      0.00
    6    6    8     -0.24      0.00
    6    6    9     -0.22      0.00
   -6   -7   16     -0.51      0.00
   -6   -7   15     -0.06      0.00
   -6   -7   14      0.37      0.00
   -6   -7   13     -0.02      0.00
   -6   -7   12     -0.69      0.00
   -6   -7   11     -0.76      0.00
   -6   -7   10     -0.62      0.00
   -6   -7    9     -0.76      0.00
   -6   -7    8     -0.68      0.00
   -6   -7    7     -0.17      0.00
   -6   -7    6      0.11      0.00
   -6   -7    5     -0.05      0.00
   -6   -7    4     -0.26      0.00
   -6   -7    3     -0.24      0.00
   -6   -7    2     -0.11      0.00
   -6   -7    1     -0.11      0.00
    6    7    0     -0.24      0.00
    6    7    1     -0.21      0.00
    6    7    2      0.01      0.00
    6    7    3      0.04      0.00
    6    7    4     -0.23      0.00
    6    7    5     -0.52      0.00
    6    7    6     -0.64      0.00
    6    7    7     -0.49      0.00
    6    7    8     -0.11      0.00
   -6   -8   16      0.26      0.00
   -6   -8   15      0.27      0.00
   -6   -8   14     -0.18      0.00
   -6   -8   13     -0.39      0.00
   -6   -8   12      0.07      0.00
   -6   -8   11      0.47      0.00
   -6   -8   10      0.38      0.00
   -6   -8    9      0.34      0.00
   -6   -8    8      0.48      0.00
   -6   -8    7      0.37      0.00
   -6   -8    6      0.08      0.00
   -6   -8    5      0.08      0.00
   -6   -8    4      0.28      0.00
   -6   -8    3      0.20      0.00
   -6   -8    2     -0.16      0.00
   -6   -8    1     -0.34      0.00
    6    8    0     -0.21      0.00
    6    8    1     -0.18      0.00
    6    8    2     -0.46      0.00
    6    8    3     -0.58      0.00
    6    8    4     -0.26      0.00
    6    8    5      0.21      0.00
    6    8    6      0.48      0.00
   -6   -9   14     -0.09      0.00
   -6   -9   13      0.05      0.00
   -6   -9   12      0.03      0.00
   -6   -9   11     -0.20      0.00
   -6   -9   10     -0.20      0.00
   -6   -9    9     -0.04      0.00
   -6   -9    8     -0.14      0.00
   -6   -9    7     -0.36      0.00
   -6   -9    6     -0.30      0.00
   -6   -9    5     -0.21      0.00
   -6   -9    4     -0.42      0.00
   -6   -9    3     -0.54      0.00
   -6   -9    2     -0.13      0.00
   -6   -9    1      0.35      0.00
    6    9    0      0.34      0.00
    6    9    1      0.13      0.00
    6    9    2      0.29      0.00
    6    9    3      0.60      0.00
    6    9    4      0.55      0.00
    6    9    5      0.19      0.00
   -6  -10   13      0.23      0.00
   -6  -10   12      0.31      0.00
   -6  -10   11      0.42      0.00
   -6  -10   10      0.43      0.00
   -6  -10    9      0.19      0.00
   -6  -10    8      0.01      0.00
   -6  -10    7      0.20      0.00
   -6  -10    6      0.41      0.00
   -6  -10    5      0.37      0.00
   -6  -10    4      0.47      0.00
   -6  -10    3      0.81      0.00
   -6  -10    2      0.75      0.00
   -6  -10    1      0.20      0.00
    6   10    0     -0.11      0.00
    6   10    1      0.01      0.00
    6   10    2      0.06      0.00
   -6  -11    9     -0.30      0.00
   -6  -11    8      0.00      0.00
   -6  -11    7      0.19      0.00
   -6  -11    6      0.08      0.00
   -6  -11    5      0.02      0.00
   -6  -11    4      0.00      0.00
   -6  -11    3     -0.29      0.00
   -6  -11    2     -0.57      0.00
   -7   11    6      0.55      0.00
   -7   11    5      0.77      0.00
   -7   11    4      0.54      0.00
   -7   11    3      0.49      0.00
   -7   11    2      0.88      0.00
   -7   11    1      0.97      0.00
   -7   11    0      0.37      0.00
    7  -11    1     -0.10      0.00
    7  -11    2      0.11      0.00
    7  -11    3      0.40      0.00
    7  -11    4      0.13      0.00
    7  -11    5     -0.37      0.00
   -7   10    8     -0.15      0.00
   -7   10    7     -0.01      0.00
   -7   10    6     -0.17      0.00
   -7   10    5     -0.50      0.00
   -7   10    4     -0.55      0.00
   -7   10    3     -0.44      0.00
   -7   10    2     -0.73      0.00
   -7   10    1     -1.14      0.00
   -7   10    0     -0.84      0.00
    7  -10    1     -0.09      0.00
    7  -10    2      0.15      0.00
    7  -10    3     -0.22      0.00
    7  -10    4     -0.42      0.00
    7  -10    5     -0.12      0.00
    7  -10    6      0.13      0.00
    7  -10    7     -0.08      0.00
    7  -10    8     -0.36      0.00
   -7    9   10      0.41      0.00
   -7    9    9      0.29      0.00
   -7    9    8      0.18      0.00
   -7    9    7      0.14      0.00
   -7    9    6      0.02      0.00
   -7    9    5     -0.10      0.00
   -7    9    4     -0.17      0.00
   -7    9    3     -0.22      0.00
   -7    9    2     -0.10      0.00
   -7    9    1      0.24      0.00
   -7    9    0      0.38      0.00
    7   -9    1      0.07      0.00
    7   -9    2     -0.27      0.00
    7   -9    3     -0.26      0.00
    7   -9    4      0.02      0.00
    7   -9    5      0.26      0.00
    7   -9    6      0.40      0.00
    7   -9    7      0.59      0.00
    7   -9    8      0.84      0.00
    7   -9    9      0.75      0.00
   -7    8   12     -0.17      0.00
   -7    8   11     -0.24      0.00
   -7    8   10     -0.38      0.00
   -7    8    9     -0.24      0.00
   -7    8    8     -0.09      0.00
   -7    8    7     -0.29      0.00
   -7    8    6     -0.44      0.00
   -7    8    5     -0.18      0.00
   -7    8    4      0.16      0.00
   -7    8    3      0.15      0.00
   -7    8    2     -0.12      0.00
   -7    8    1     -0.23      0.00
   -7    8    0     -0.00      0.00
    7   -8    1      0.29      0.00
    7   -8    2      0.36      0.00
    7   -8    3      0.37      0.00
    7   -8    4      0.45      0.00
    7   -8    5      0.32      0.00
    7   -8    6     -0.12      0.00
    7   -8    7     -0.54      0.00
    7   -8    8     -0.79      0.00
    7   -8    9     -0.89      0.00
    7   -8   10     -0.70      0.00
   -7    7   13      0.44      0.00
   -7    7   12      0.28      0.00
   -7    7   11      0.15      0.00
   -7    7   10      0.21      0.00
   -7    7    9      0.19      0.00
   -7    7    8      0.07      0.00
   -7    7    7      0.16      0.00
   -7    7    6      0.32      0.00
   -7    7    5      0.09      0.00
   -7    7    4     -0.37      0.00
   -7    7    3     -0.36      0.00
   -7    7    2      0.35      0.00
   -7    7    1      0.99      0.00
   -7    7    0      0.74      0.00
    7   -7    1     -0.06      0.00
    7   -7    2     -0.42      0.00
    7   -7    3     -0.25      0.00
    7   -7    4     -0.27      0.00
    7   -7    5     -0.49      0.00
    7   -7    6     -0.35      0.00
    7   -7    7      0.03      0.00
    7   -7    8      0.17      0.00
    7   -7    9      0.21      0.00
    7   -7   10      0.37      0.00
    7   -7   11      0.41      0.00
   -7    6   14      0.07      0.00
   -7    6   13     -0.04      0.00
   -7    6   12     -0.03      0.00
   -7    6   11     -0.02      0.00
   -7    6   10     -0.05      0.00
   -7    6    9     -0.08      0.00
   -7    6    8     -0.21      0.00
   -7    6    7     -0.45      0.00
   -7    6    6     -0.43      0.00
   -7    6    5      0.06      0.00
   -7    6    4      0.73      0.00
   -7    6    3      0.98      0.00
   -7    6    2      0.43      0.00
   -7    6    1     -0.57      0.00
   -7    6    0     -1.04      0.00
    7   -6    1     -0.53      0.00
    7   -6    2      0.19      0.00
    7   -6    3      0.29      0.00
    7   -6    4      0.12      0.00
    7   -6    5      0.25      0.00
    7   -6    6      0.34      0.00
    7   -6    7      0.09      0.00
    7   -6    8     -0.03      0.00
    7   -6    9      0.20      0.00
    7   -6   10      0.27      0.00
    7   -6   11      0.03      0.00
   -7    5   15     -0.04      0.00
   -7    5   14     -0.12      0.00
   -7    5   13     -0.40      0.00
   -7    5   12     -0.62      0.00
   -7    5   11     -0.33      0.00
   -7    5   10      0.17      0.00
   -7    5    9      0.39      0.00
   -7    5    8      0.60      0.00
   -7    5    7      1.14      0.00
   -7    5    6      1.41      0.00
   -7    5    5      0.86      0.00
   -7    5    4      0.00      0.00
   -7    5    3     -0.47      0.00
   -7    5    2     -0.45      0.00
   -7    5    1     -0.06      0.00
   -7    5    0      0.41      0.00
    7   -5    1      0.51      0.00
    7   -5    2      0.14      0.00
    7   -5    3     -0.19      0.00
    7   -5    4     -0.27      0.00
    7   -5    5     -0.33      0.00
    7   -5    6     -0.39      0.00
    7   -5    7     -0.15      0.00
    7   -5    8      0.25      0.00
    7   -5    9      0.26      0.00
    7   -5   10     -0.10      0.00
    7   -5   11     -0.27      0.00
    7   -5   12     -0.09      0.00
   -7    4   16     -0.13      0.00
   -7    4   15     -0.28      0.00
   -7    4   14     -0.36      0.00
   -7    4   13      0.04      0.00
   -7    4   12      0.79      0.00
   -7    4   11      0.98      0.00
   -7    4   10      0.37      0.00
   -7    4    9     -0.17      0.00
   -7    4    8     -0.41      0.00
   -7    4    7     -0.98      0.00
   -7    4    6     -1.68      0.00
   -7    4    5     -1.59      0.00
   -7    4    4     -0.84      0.00
   -7    4    3     -0.29      0.00
   -7    4    2     -0.14      0.00
   -7    4    1     -0.06      0.00
   -7    4    0     -0.03      0.00
    7   -4    1     -0.15      0.00
    7   -4    2     -0.32      0.00
    7   -4    3     -0.29      0.00
    7   -4    4     -0.04      0.00
    7   -4    5      0.27      0.00
    7   -4    6      0.46      0.00
    7   -4    7      0.39      0.00
    7   -4    8     -0.02      0.00
    7   -4    9     -0.47      0.00
    7   -4   10     -0.43      0.00
    7   -4   11      0.02      0.00
   -7    3   16      0.38      0.00
   -7    3   15      0.47      0.00
   -7    3   14      0.69      0.00
   -7    3   13      0.73      0.00
   -7    3   12      0.20      0.00
   -7    3   11     -0.50      0.00
   -7    3   10     -0.68      0.00
   -7    3    9     -0.58      0.00
   -7    3    8     -0.55      0.00
   -7    3    7     -0.11      0.00
   -7    3    6      0.85      0.00
   -7    3    5      1.43      0.00
   -7    3    4      1.18      0.00
   -7    3    3      0.62      0.00
   -7    3    2      0.23      0.00
   -7    3    1      0.02      0.00
   -7    3    0     -0.10      0.00
    7   -3    1     -0.10      0.00
    7   -3    2      0.17      0.00
    7   -3    3      0.57      0.00
    7   -3    4      0.59      0.00
    7   -3    5      0.15      0.00
    7   -3    6     -0.26      0.00
    7   -3    7     -0.40      0.00
    7   -3    8     -0.35      0.00
    7   -3    9     -0.03      0.00
    7   -3   10      0.32      0.00
    7   -3   11      0.12      0.00
    7   -3   12     -0.37      0.00
    7   -3   13     -0.39      0.00
   -7    2   17     -0.52      0.00
   -7    2   16     -0.57      0.00
   -7    2   15     -0.65      0.00
   -7    2   14     -0.74      0.00
   -7    2   13     -0.96      0.00
   -7    2   12     -1.12      0.00
   -7    2   11     -0.93      0.00
   -7    2   10     -0.49      0.00
   -7    2    9      0.13      0.00
   -7    2    8      0.80      0.00
   -7    2    7      0.90      0.00
   -7    2    6      0.10      0.00
   -7    2    5     -0.91      0.00
   -7    2    4     -1.38      0.00
   -7    2    3     -1.22      0.00
   -7    2    2     -0.61      0.00
   -7    2    1      0.04      0.00
   -7    2    0      0.24      0.00
    7   -2    1      0.15      0.00
    7   -2    2      0.08      0.00
    7   -2    3     -0.21      0.00
    7   -2    4     -0.61      0.00
    7   -2    5     -0.51      0.00
    7   -2    6     -0.07      0.00
    7   -2    7      0.14      0.00
    7   -2    8      0.18      0.00
    7   -2    9      0.13      0.00
    7   -2   10     -0.17      0.00
    7   -2   11     -0.33      0.00
    7   -2   12      0.03      0.00
   -7    1   17     -0.26      0.00
   -7    1   16     -0.16      0.00
   -7    1   15      0.09      0.00
   -7    1   14      0.25      0.00
   -7    1   13      0.39      0.00
   -7    1   12      0.72      0.00
   -7    1   11      1.05      0.00
   -7    1   10      1.05      0.00
   -7    1    9      0.55      0.00
   -7    1    8     -0.35      0.00
   -7    1    7     -0.98      0.00
   -7    1    6     -0.79      0.00
   -7    1    5     -0.08      0.00
   -7    1    4      0.68      0.00
   -7    1    3      1.30      0.00
   -7    1    2      1.28      0.00
   -7    1    1      0.50      0.00
   -7    1    0     -0.04      0.00
    7   -1    1      0.12      0.00
    7   -1    2      0.13      0.00
    7   -1    3     -0.16      0.00
    7   -1    4     -0.03      0.00
    7   -1    5      0.31      0.00
    7   -1    6      0.20      0.00
    7   -1    7     -0.06      0.00
    7   -1    8     -0.12      0.00
    7   -1    9     -0.10      0.00
    7   -1   10      0.08      0.00
    7   -1   11      0.43      0.00
    7   -1   12      0.46      0.00
   -7    0   17      0.33      0.00
   -7    0   16      0.41      0.00
   -7    0   15      0.30      0.00
   -7    0   14      0.18      0.00
   -7    0   13      0.08      0.00
   -7    0   12     -0.25      0.00
   -7    0   11     -0.69      0.00
   -7    0   10     -0.84      0.00
   -7    0    9     -0.57      0.00
   -7    0    8     -0.00      0.00
   -7    0    7      0.49      0.00
   -7    0    6      0.61      0.00
   -7    0    5      0.62      0.00
   -7    0    4      0.51      0.00
   -7    0    3     -0.23      0.00
   -7    0    2     -1.20      0.00
   -7    0    1     -1.21      0.00
    7    0    0     -0.55      0.00
    7    0    1     -0.51      0.00
    7    0    2     -0.74      0.00
    7    0    3     -0.27      0.00
    7    0    4      0.30      0.00
    7    0    5      0.14      0.00
    7    0    6     -0.15      0.00
    7    0    7     -0.02      0.00
    7    0    8      0.25      0.00
    7    0    9      0.40      0.00
    7    0   10      0.35      0.00
    7    0   11      0.02      0.00
    7    0   12     -0.27      0.00
   -7   -1   17      0.04      0.00
   -7   -1   16      0.07      0.00
   -7   -1   15      0.21      0.00
   -7   -1   14      0.18      0.00
   -7   -1   13     -0.04      0.00
   -7   -1   12      0.06      0.00
   -7   -1   11      0.61      0.00
   -7   -1   10      1.01      0.00
   -7   -1    9      0.91      0.00
   -7   -1    8      0.53      0.00
   -7   -1    7      0.30      0.00
   -7   -1    6      0.36      0.00
   -7   -1    5      0.20      0.00
   -7   -1    4     -0.49      0.00
   -7   -1    3     -0.69      0.00
   -7   -1    2      0.36      0.00
   -7   -1    1      1.38      0.00
    7    1    0      1.20      0.00
    7    1    1      0.75      0.00
    7    1    2      0.83      0.00
    7    1    3      0.67      0.00
    7    1    4     -0.02      0.00
    7    1    5     -0.33      0.00
    7    1    6     -0.01      0.00
    7    1    7      0.22      0.00
    7    1    8      0.03      0.00
    7    1    9     -0.34      0.00
    7    1   10     -0.52      0.00
    7    1   11     -0.33      0.00
   -7   -2   18      0.17      0.00
   -7   -2   17      0.36      0.00
   -7   -2   16      0.31      0.00
   -7   -2   15     -0.07      0.00
   -7   -2   14     -0.38      0.00
   -7   -2   13     -0.17      0.00
   -7   -2   12      0.20      0.00
   -7   -2   11      0.07      0.00
   -7   -2   10     -0.39      0.00
   -7   -2    9     -0.67      0.00
   -7   -2    8     -0.63      0.00
   -7   -2    7     -0.50      0.00
   -7   -2    6     -0.59      0.00
   -7   -2    5     -0.69      0.00
   -7   -2    4     -0.12      0.00
   -7   -2    3      0.76      0.00
   -7   -2    2      0.59      0.00
   -7   -2    1     -0.60      0.00
    7    2    0     -1.26      0.00
    7    2    1     -0.94      0.00
    7    2    2     -0.61      0.00
    7    2    3     -0.48      0.00
    7    2    4     -0.11      0.00
    7    2    5      0.25      0.00
    7    2    6      0.15      0.00
    7    2    7     -0.22      0.00
    7    2    8     -0.36      0.00
    7    2    9     -0.09      0.00
    7    2   10      0.27      0.00
    7    2   11      0.27      0.00
   -7   -3   17     -0.21      0.00
   -7   -3   16     -0.34      0.00
   -7   -3   15     -0.19      0.00
   -7   -3   14      0.26      0.00
   -7   -3   13      0.51      0.00
   -7   -3   12      0.33      0.00
   -7   -3   11      0.09      0.00
   -7   -3   10      0.06      0.00
   -7   -3    9      0.15      0.00
   -7   -3    8      0.33      0.00
   -7   -3    7      0.43      0.00
   -7   -3    6      0.39      0.00
   -7   -3    5      0.40      0.00
   -7   -3    4      0.29      0.00
   -7   -3    3     -0.27      0.00
   -7   -3    2     -0.65      0.00
   -7   -3    1     -0.13      0.00
    7    3    0      0.72      0.00
    7    3    1      1.00      0.00
    7    3    2      0.82      0.00
    7    3    3      0.60      0.00
    7    3    4      0.38      0.00
    7    3    5      0.16      0.00
    7    3    6      0.14      0.00
    7    3    7      0.35      0.00
    7    3    8      0.61      0.00
    7    3    9      0.57      0.00
    7    3   10      0.14      0.00
    7    3   11     -0.15      0.00
   -7   -4   17      0.08      0.00
   -7   -4   16     -0.00      0.00
   -7   -4   15      0.00      0.00
   -7   -4   14     -0.10      0.00
   -7   -4   13     -0.33      0.00
   -7   -4   12     -0.47      0.00
   -7   -4   11     -0.56      0.00
   -7   -4   10     -0.57      0.00
   -7   -4    9     -0.38      0.00
   -7   -4    8     -0.27      0.00
   -7   -4    7     -0.44      0.00
   -7   -4    6     -0.51      0.00
   -7   -4    5     -0.35      0.00
   -7   -4    4     -0.26      0.00
   -7   -4    3     -0.18      0.00
   -7   -4    2      0.03      0.00
   -7   -4    1      0.05      0.00
    7    4    0     -0.30      0.00
    7    4    1     -0.65      0.00
    7    4    2     -0.79      0.00
    7    4    3     -0.75      0.00
    7    4    4     -0.58      0.00
    7    4    5     -0.42      0.00
    7    4    6     -0.37      0.00
    7    4    7     -0.39      0.00
    7    4    8     -0.55      0.00
    7    4    9     -0.70      0.00
    7    4   10     -0.48      0.00
   -7   -5   16     -0.29      0.00
   -7   -5   15     -0.21      0.00
   -7   -5   14     -0.26      0.00
   -7   -5   13     -0.22      0.00
   -7   -5   12     -0.20      0.00
   -7   -5   11     -0.17      0.00
   -7   -5   10      0.08      0.00
   -7   -5    9      0.21      0.00
   -7   -5    8      0.07      0.00
   -7   -5    7      0.07      0.00
   -7   -5    6      0.24      0.00
   -7   -5    5      0.17      0.00
   -7   -5    4     -0.02      0.00
   -7   -5    3     -0.01      0.00
   -7   -5    2      0.04      0.00
   -7   -5    1      0.00      0.00
    7    5    0      0.02      0.00
    7    5    1      0.15      0.00
    7    5    2      0.33      0.00
    7    5    3      0.45      0.00
    7    5    4      0.39      0.00
    7    5    5      0.29      0.00
    7    5    6      0.33      0.00
    7    5    7      0.32      0.00
    7    5    8      0.26      0.00
    7    5    9      0.35      0.00
   -7   -6   16      0.15      0.00
   -7   -6   15      0.16      0.00
   -7   -6   14      0.48      0.00
   -7   -6   13      0.52      0.00
   -7   -6   12      0.37      0.00
   -7   -6   11      0.47      0.00
   -7   -6   10      0.60      0.00
   -7   -6    9      0.44      0.00
   -7   -6    8      0.28      0.00
   -7   -6    7      0.21      0.00
   -7   -6    6      0.06      0.00
   -7   -6    5      0.01      0.00
   -7   -6    4      0.18      0.00
   -7   -6    3      0.27      0.00
   -7   -6    2      0.18      0.00
   -7   -6    1      0.14      0.00
    7    6    0      0.18      0.00
    7    6    1      0.18      0.00
    7    6    2      0.07      0.00
    7    6    3     -0.06      0.00
    7    6    4     -0.04      0.00
    7    6    5      0.06      0.00
    7    6    6     -0.07      0.00
    7    6    7     -0.28      0.00
   -7   -7   15      0.25      0.00
   -7   -7   14     -0.22      0.00
   -7   -7   13     -0.71      0.00
   -7   -7   12     -0.52      0.00
   -7   -7   11     -0.24      0.00
   -7   -7   10     -0.40      0.00
   -7   -7    9     -0.55      0.00
   -7   -7    8     -0.39      0.00
   -7   -7    7     -0.19      0.00
   -7   -7    6     -0.09      0.00
   -7   -7    5     -0.07      0.00
   -7   -7    4     -0.16      0.00
   -7   -7    3     -0.23      0.00
   -7   -7    2     -0.16      0.00
   -7   -7    1     -0.04      0.00
    7    7    0     -0.01      0.00
    7    7    1     -0.06      0.00
    7    7    2     -0.12      0.00
    7    7    3     -0.15      0.00
    7    7    4     -0.25      0.00
    7    7    5     -0.45      0.00
    7    7    6     -0.43      0.00
   -7   -8   14     -0.26      0.00
   -7   -8   13      0.34      0.00
   -7   -8   12      0.56      0.00
   -7   -8   11      0.20      0.00
   -7   -8   10      0.03      0.00
   -7   -8    9      0.19      0.00
   -7   -8    8      0.13      0.00
   -7   -8    7     -0.13      0.00
   -7   -8    6     -0.15      0.00
   -7   -8    5      0.07      0.00
   -7   -8    4      0.22      0.00
   -7   -8    3      0.18      0.00
   -7   -8    2      0.05      0.00
   -7   -8    1     -0.09      0.00
    7    8    0     -0.26      0.00
    7    8    1     -0.41      0.00
    7    8    2     -0.37      0.00
    7    8    3     -0.17      0.00
    7    8    4      0.06      0.00
    7    8    5      0.31      0.00
   -7   -9   13      0.04      0.00
   -7   -9   12     -0.27      0.00
   -7   -9   11     -0.15      0.00
   -7   -9   10      0.10      0.00
   -7   -9    9     -0.01      0.00
   -7   -9    8     -0.09      0.00
   -7   -9    7      0.22      0.00
   -7   -9    6      0.43      0.00
   -7   -9    5      0.08      0.00
   -7   -9    4     -0.33      0.00
   -7   -9    3     -0.28      0.00
   -7   -9    2     -0.02      0.00
   -7   -9    1      0.03      0.00
    7    9    0      0.03      0.00
    7    9    1      0.25      0.00
    7    9    2      0.48      0.00
   -7  -10   11      0.21      0.00
   -7  -10   10     -0.02      0.00
   -7  -10    9     -0.00      0.00
   -7  -10    8      0.28      0.00
   -7  -10    7      0.22      0.00
   -7  -10    6     -0.15      0.00
   -7  -10    5     -0.06      0.00
   -7  -10    4      0.48      0.00
   -7  -10    3      0.59      0.00
   -7  -10    2      0.18      0.00
   -7  -10    1     -0.03      0.00
   -8   10    7     -0.12      0.00
   -8   10    6     -0.24      0.00
   -8   10    5     -0.08      0.00
   -8   10    4      0.08      0.00
   -8   10    3     -0.23      0.00
   -8   10    2     -0.63      0.00
   -8   10    1     -0.43      0.00
   -8   10    0      0.08      0.00
    8  -10    1      0.12      0.00
    8  -10    2     -0.23      0.00
    8  -10    3     -0.28      0.00
    8  -10    4      0.06      0.00
    8  -10    5      0.23      0.00
    8  -10    6      0.00      0.00
   -8    9    9      0.04      0.00
   -8    9    8      0.00      0.00
   -8    9    7     -0.13      0.00
   -8    9    6     -0.12      0.00
   -8    9    5     -0.11      0.00
   -8    9    4     -0.23      0.00
   -8    9    3     -0.17      0.00
   -8    9    2      0.20      0.00
   -8    9    1      0.33      0.00
   -8    9    0      0.03      0.00
    8   -9    1     -0.16      0.00
    8   -9    2      0.11      0.00
    8   -9    3      0.42      0.00
    8   -9    4      0.35      0.00
    8   -9    5      0.16      0.00
    8   -9    6      0.32      0.00
    8   -9    7      0.69      0.00
   -8    8   10      0.01      0.00
   -8    8    9      0.11      0.00
   -8    8    8      0.03      0.00
   -8    8    7     -0.05      0.00
   -8    8    6     -0.03      0.00
   -8    8    5      0.01      0.00
   -8    8    4      0.09      0.00
   -8    8    3      0.17      0.00
   -8    8    2      0.19      0.00
   -8    8    1      0.23      0.00
   -8    8    0      0.31      0.00
    8   -8    1      0.26      0.00
    8   -8    2      0.09      0.00
    8   -8    3     -0.05      0.00
    8   -8    4     -0.14      0.00
    8   -8    5     -0.28      0.00
    8   -8    6     -0.60      0.00
    8   -8    7     -1.11      0.00
    8   -8    8     -1.34      0.00
   -8    7   11      0.21      0.00
   -8    7   10      0.22      0.00
   -8    7    9      0.00      0.00
   -8    7    8     -0.08      0.00
   -8    7    7      0.06      0.00
   -8    7    6      0.15      0.00
   -8    7    5      0.10      0.00
   -8    7    4      0.11      0.00
   -8    7    3      0.28      0.00
   -8    7    2      0.34      0.00
   -8    7    1     -0.05      0.00
   -8    7    0     -0.58      0.00
    8   -7    1     -0.61      0.00
    8   -7    2     -0.25      0.00
    8   -7    3     -0.19      0.00
    8   -7    4     -0.39      0.00
    8   -7    5     -0.34      0.00
    8   -7    6      0.02      0.00
    8   -7    7      0.49      0.00
    8   -7    8      0.96      0.00
    8   -7    9      1.06      0.00
   -8    6   12     -0.26      0.00
   -8    6   11     -0.18      0.00
   -8    6   10     -0.20      0.00
   -8    6    9     -0.18      0.00
   -8    6    8     -0.15      0.00
   -8    6    7     -0.12      0.00
   -8    6    6      0.07      0.00
   -8    6    5      0.43      0.00
   -8    6    4      0.62      0.00
   -8    6    3      0.27      0.00
   -8    6    2     -0.41      0.00
   -8    6    1     -0.58      0.00
   -8    6    0      0.08      0.00
    8   -6    1      0.63      0.00
    8   -6    2      0.40      0.00
    8   -6    3      0.02      0.00
    8   -6    4      0.13      0.00
    8   -6    5      0.30      0.00
    8   -6    6      0.17      0.00
    8   -6    7      0.07      0.00
    8   -6    8     -0.00      0.00
    8   -6    9     -0.27      0.00
    8   -6   10     -0.44      0.00
   -8    5   14     -0.25      0.00
   -8    5   13     -0.09      0.00
   -8    5   12      0.13      0.00
   -8    5   11      0.34      0.00
   -8    5   10      0.40      0.00
   -8    5    9      0.46      0.00
   -8    5    8      0.77      0.00
   -8    5    7      1.03      0.00
   -8    5    6      0.79      0.00
   -8    5    5      0.08      0.00
   -8    5    4     -0.60      0.00
   -8    5    3     -0.72      0.00
   -8    5    2     -0.13      0.00
   -8    5    1      0.59      0.00
   -8    5    0      0.60      0.00
    8   -5    1     -0.02      0.00
    8   -5    2     -0.31      0.00
    8   -5    3     -0.06      0.00
    8   -5    4      0.13      0.00
    8   -5    5      0.15      0.00
    8   -5    6      0.33      0.00
    8   -5    7      0.42      0.00
    8   -5    8      0.07      0.00
    8   -5    9     -0.25      0.00
    8   -5   10     -0.12      0.00
   -8    4   15     -0.11      0.00
   -8    4   14      0.15      0.00
   -8    4   13      0.64      0.00
   -8    4   12      0.66      0.00
   -8    4   11      0.01      0.00
   -8    4   10     -0.57      0.00
   -8    4    9     -0.72      0.00
   -8    4    8     -0.97      0.00
   -8    4    7     -1.49      0.00
   -8    4    6     -1.65      0.00
   -8    4    5     -1.14      0.00
   -8    4    4     -0.43      0.00
   -8    4    3      0.01      0.00
   -8    4    2      0.03      0.00
   -8    4    1     -0.33      0.00
   -8    4    0     -0.66      0.00
    8   -4    1     -0.56      0.00
    8   -4    2     -0.16      0.00
    8   -4    3      0.09      0.00
    8   -4    4      0.12      0.00
    8   -4    5      0.05      0.00
    8   -4    6     -0.19      0.00
    8   -4    7     -0.55      0.00
    8   -4    8     -0.57      0.00
    8   -4    9     -0.10      0.00
    8   -4   10      0.28      0.00
   -8    3   16      0.22      0.00
   -8    3   15      0.70      0.00
   -8    3   14      0.79      0.00
   -8    3   13      0.03      0.00
   -8    3   12     -0.82      0.00
   -8    3   11     -0.78      0.00
   -8    3   10     -0.15      0.00
   -8    3    9      0.19      0.00
   -8    3    8      0.32      0.00
   -8    3    7      0.70      0.00
   -8    3    6      1.05      0.00
   -8    3    5      0.90      0.00
   -8    3    4      0.46      0.00
   -8    3    3      0.16      0.00
   -8    3    2      0.07      0.00
   -8    3    1      0.09      0.00
   -8    3    0      0.24      0.00
    8   -3    1      0.48      0.00
    8   -3    2      0.53      0.00
    8   -3    3      0.24      0.00
    8   -3    4     -0.15      0.00
    8   -3    5     -0.35      0.00
    8   -3    6     -0.35      0.00
    8   -3    7     -0.20      0.00
    8   -3    8      0.06      0.00
    8   -3    9      0.10      0.00
    8   -3   10     -0.25      0.00
    8   -3   11     -0.51      0.00
   -8    2   16     -0.03      0.00
   -8    2   15     -0.55      0.00
   -8    2   14     -1.08      0.00
   -8    2   13     -0.95      0.00
   -8    2   12     -0.28      0.00
   -8    2   11      0.17      0.00
   -8    2   10      0.21      0.00
   -8    2    9      0.26      0.00
   -8    2    8      0.27      0.00
   -8    2    7     -0.09      0.00
   -8    2    6     -0.59      0.00
   -8    2    5     -0.71      0.00
   -8    2    4     -0.37      0.00
   -8    2    3      0.07      0.00
   -8    2    2      0.25      0.00
   -8    2    1      0.14      0.00
   -8    2    0     -0.04      0.00
    8   -2    1     -0.26      0.00
    8   -2    2     -0.57      0.00
    8   -2    3     -0.64      0.00
    8   -2    4     -0.30      0.00
    8   -2    5      0.07      0.00
    8   -2    6      0.23      0.00
    8   -2    7      0.33      0.00
    8   -2    8      0.33      0.00
    8   -2    9      0.14      0.00
    8   -2   10      0.13      0.00
    8   -2   11      0.43      0.00
   -8    1   17     -0.44      0.00
   -8    1   16     -0.33      0.00
   -8    1   15      0.07      0.00
   -8    1   14      0.53      0.00
   -8    1   13      0.68      0.00
   -8    1   12      0.60      0.00
   -8    1   11      0.60      0.00
   -8    1   10      0.52      0.00
   -8    1    9      0.03      0.00
   -8    1    8     -0.41      0.00
   -8    1    7     -0.17      0.00
   -8    1    6      0.54      0.00
   -8    1    5      1.06      0.00
   -8    1    4      1.05      0.00
   -8    1    3      0.46      0.00
   -8    1    2     -0.26      0.00
   -8    1    1     -0.41      0.00
   -8    1    0     -0.03      0.00
    8   -1    1      0.24      0.00
    8   -1    2      0.32      0.00
    8   -1    3      0.43      0.00
    8   -1    4      0.40      0.00
    8   -1    5      0.13      0.00
    8   -1    6     -0.09      0.00
    8   -1    7     -0.17      0.00
    8   -1    8     -0.19      0.00
    8   -1    9     -0.02      0.00
    8   -1   10      0.17      0.00
    8   -1   11      0.06      0.00
   -8    0   16      0.57      0.00
   -8    0   15      0.17      0.00
   -8    0   14     -0.29      0.00
   -8    0   13     -0.45      0.00
   -8    0   12     -0.37      0.00
   -8    0   11     -0.45      0.00
   -8    0   10     -0.57      0.00
   -8    0    9     -0.19      0.00
   -8    0    8      0.44      0.00
   -8    0    7      0.51      0.00
   -8    0    6     -0.05      0.00
   -8    0    5     -0.68      0.00
   -8    0    4     -1.13      0.00
   -8    0    3     -1.07      0.00
   -8    0    2     -0.31      0.00
   -8    0    1      0.35      0.00
    8    0    0      0.10      0.00
    8    0    1     -0.40      0.00
    8    0    2     -0.31      0.00
    8    0    3      0.02      0.00
    8    0    4      0.02      0.00
    8    0    5     -0.06      0.00
    8    0    6      0.11      0.00
    8    0    7      0.39      0.00
    8    0    8      0.48      0.00
    8    0    9      0.23      0.00
    8    0   10     -0.14      0.00
    8    0   11     -0.23      0.00
   -8   -1   17     -0.09      0.00
   -8   -1   16     -0.06      0.00
   -8   -1   15      0.09      0.00
   -8   -1   14      0.39      0.00
   -8   -1   13      0.73      0.00
   -8   -1   12      0.89      0.00
   -8   -1   11      0.87      0.00
   -8   -1   10      0.75      0.00
   -8   -1    9      0.37      0.00
   -8   -1    8     -0.16      0.00
   -8   -1    7     -0.28      0.00
   -8   -1    6      0.01      0.00
   -8   -1    5      0.23      0.00
   -8   -1    4      0.47      0.00
   -8   -1    3      0.91      0.00
   -8   -1    2      0.90      0.00
   -8   -1    1      0.30      0.00
    8    1    0      0.09      0.00
    8    1    1      0.51      0.00
    8    1    2      0.58      0.00
    8    1    3     -0.00      0.00
    8    1    4     -0.36      0.00
    8    1    5     -0.08      0.00
    8    1    6      0.16      0.00
    8    1    7     -0.17      0.00
    8    1    8     -0.66      0.00
    8    1    9     -0.61      0.00
    8    1   10     -0.12      0.00
   -8   -2   17      0.12      0.00
   -8   -2   16     -0.16      0.00
   -8   -2   15     -0.38      0.00
   -8   -2   14     -0.32      0.00
   -8   -2   13     -0.35      0.00
   -8   -2   12     -0.68      0.00
   -8   -2   11     -1.01      0.00
   -8   -2   10     -1.00      0.00
   -8   -2    9     -0.62      0.00
   -8   -2    8     -0.15      0.00
   -8   -2    7     -0.09      0.00
   -8   -2    6     -0.37      0.00
   -8   -2    5     -0.34      0.00
   -8   -2    4      0.01      0.00
   -8   -2    3     -0.09      0.00
   -8   -2    2     -0.59      0.00
   -8   -2    1     -0.67      0.00
    8    2    0     -0.38      0.00
    8    2    1     -0.33      0.00
    8    2    2     -0.38      0.00
    8    2    3      0.01      0.00
    8    2    4      0.55      0.00
    8    2    5      0.50      0.00
    8    2    6     -0.00      0.00
    8    2    7     -0.09      0.00
    8    2    8      0.45      0.00
    8    2    9      0.79      0.00
    8    2   10      0.42      0.00
   -8   -3   16     -0.26      0.00
   -8   -3   15      0.30      0.00
   -8   -3   14      0.50      0.00
   -8   -3   13      0.30      0.00
   -8   -3   12      0.28      0.00
   -8   -3   11      0.56      0.00
   -8   -3   10      0.75      0.00
   -8   -3    9      0.64      0.00
   -8   -3    8      0.38      0.00
   -8   -3    7      0.30      0.00
   -8   -3    6      0.53      0.00
   -8   -3    5      0.60      0.00
   -8   -3    4      0.19      0.00
   -8   -3    3     -0.19      0.00
   -8   -3    2      0.02      0.00
   -8   -3    1      0.49      0.00
    8    3    0      0.69      0.00
    8    3    1      0.61      0.00
    8    3    2      0.48      0.00
    8    3    3      0.29      0.00
    8    3    4      0.00      0.00
    8    3    5     -0.16      0.00
    8    3    6      0.08      0.00
    8    3    7      0.38      0.00
    8    3    8      0.11      0.00
    8    3    9     -0.45      0.00
   -8   -4   16      0.27      0.00
   -8   -4   15     -0.13      0.00
   -8   -4   14     -0.58      0.00
   -8   -4   13     -0.63      0.00
   -8   -4   12     -0.57      0.00
   -8   -4   11     -0.68      0.00
   -8   -4   10     -0.75      0.00
   -8   -4    9     -0.69      0.00
   -8   -4    8     -0.65      0.00
   -8   -4    7     -0.65      0.00
   -8   -4    6     -0.67      0.00
   -8   -4    5     -0.74      0.00
   -8   -4    4     -0.68      0.00
   -8   -4    3     -0.45      0.00
   -8   -4    2     -0.28      0.00
   -8   -4    1     -0.38      0.00
    8    4    0     -0.69      0.00
    8    4    1     -0.95      0.00
    8    4    2     -0.93      0.00
    8    4    3     -0.81      0.00
    8    4    4     -0.77      0.00
    8    4    5     -0.70      0.00
    8    4    6     -0.61      0.00
    8    4    7     -0.71      0.00
    8    4    8     -0.70      0.00
   -8   -5   15     -0.15      0.00
   -8   -5   14      0.17      0.00
   -8   -5   13      0.24      0.00
   -8   -5   12      0.17      0.00
   -8   -5   11      0.26      0.00
   -8   -5   10      0.37      0.00
   -8   -5    9      0.33      0.00
   -8   -5    8      0.39      0.00
   -8   -5    7      0.54      0.00
   -8   -5    6      0.48      0.00
   -8   -5    5      0.31      0.00
   -8   -5    4      0.36      0.00
   -8   -5    3      0.58      0.00
   -8   -5    2      0.59      0.00
   -8   -5    1      0.34      0.00
    8    5    0      0.25      0.00
    8    5    1      0.47      0.00
    8    5    2      0.64      0.00
    8    5    3      0.59      0.00
    8    5    4      0.63      0.00
    8    5    5      0.75      0.00
    8    5    6      0.62      0.00
    8    5    7      0.43      0.00
   -8   -6   14      0.09      0.00
   -8   -6   13     -0.09      0.00
   -8   -6   12      0.12      0.00
   -8   -6   11      0.38      0.00
   -8   -6   10      0.45      0.00
   -8   -6    9      0.42      0.00
   -8   -6    8      0.20      0.00
   -8   -6    7     -0.19      0.00
   -8   -6    6     -0.28      0.00
   -8   -6    5      0.08      0.00
   -8   -6    4      0.29      0.00
   -8   -6    3     -0.00      0.00
   -8   -6    2     -0.34      0.00
   -8   -6    1     -0.23      0.00
    8    6    0      0.09      0.00
    8    6    1      0.09      0.00
    8    6    2     -0.11      0.00
    8    6    3     -0.09      0.00
    8    6    4     -0.06      0.00
    8    6    5     -0.31      0.00
    8    6    6     -0.42      0.00
   -8   -7   14     -0.39      0.00
   -8   -7   13     -0.01      0.00
   -8   -7   12      0.16      0.00
   -8   -7   11     -0.15      0.00
   -8   -7   10     -0.55      0.00
   -8   -7    9     -0.72      0.00
   -8   -7    8     -0.53      0.00
   -8   -7    7     -0.02      0.00
   -8   -7    6      0.34      0.00
   -8   -7    5      0.11      0.00
   -8   -7    4     -0.30      0.00
   -8   -7    3     -0.25      0.00
   -8   -7    2      0.15      0.00
   -8   -7    1      0.26      0.00
    8    7    0     -0.03      0.00
    8    7    1     -0.21      0.00
    8    7    2     -0.10      0.00
    8    7    3     -0.12      0.00
    8    7    4     -0.32      0.00
    8    7    5     -0.24      0.00
   -8   -8   13      0.39      0.00
   -8   -8   12     -0.06      0.00
   -8   -8   11     -0.20      0.00
   -8   -8   10      0.05      0.00
   -8   -8    9      0.26      0.00
   -8   -8    8      0.24      0.00
   -8   -8    7      0.01      0.00
   -8   -8    6     -0.20      0.00
   -8   -8    5     -0.11      0.00
   -8   -8    4      0.21      0.00
   -8   -8    3      0.29      0.00
   -8   -8    2     -0.04      0.00
   -8   -8    1     -0.37      0.00
    8    8    0     -0.31      0.00
    8    8    1     -0.07      0.00
    8    8    2     -0.04      0.00
    8    8    3     -0.05      0.00
   -8   -9   11      0.23      0.00
   -8   -9   10      0.19      0.00
   -8   -9    9      0.14      0.00
   -8   -9    8      0.31      0.00
   -8   -9    7      0.43      0.00
   -8   -9    6      0.25      0.00
   -8   -9    5     -0.08      0.00
   -8   -9    4     -0.33      0.00
   -8   -9    3     -0.39      0.00
   -8   -9    2     -0.21      0.00
   -8   -9    1      0.11      0.00
    8    9    0      0.32      0.00
    8    9    1      0.27      0.00
   -8  -10    8     -0.14      0.00
   -8  -10    7     -0.50      0.00
   -9   10    3     -0.00      0.00
   -9   10    2      0.02      0.00
   -9   10    1      0.09      0.00
   -9   10    0     -0.06      0.00
    9  -10    1     -0.19      0.00
   -9    9    7     -0.11      0.00
   -9    9    6     -0.05      0.00
   -9    9    5     -0.13      0.00
   -9    9    4     -0.12      0.00
   -9    9    3      0.05      0.00
   -9    9    2      0.10      0.00
   -9    9    1      0.02      0.00
   -9    9    0      0.18      0.00
    9   -9    1      0.51      0.00
    9   -9    2      0.52      0.00
    9   -9    3      0.12      0.00
    9   -9    4     -0.19      0.00
    9   -9    5     -0.07      0.00
   -9    8    9      0.07      0.00
   -9    8    8      0.08      0.00
   -9    8    7      0.07      0.00
   -9    8    6     -0.06      0.00
   -9    8    5     -0.11      0.00
   -9    8    4      0.00      0.00
   -9    8    3      0.11      0.00
   -9    8    2      0.16      0.00
   -9    8    1      0.16      0.00
   -9    8    0     -0.08      0.00
    9   -8    1     -0.47      0.00
    9   -8    2     -0.65      0.00
    9   -8    3     -0.45      0.00
    9   -8    4     -0.17      0.00
    9   -8    5     -0.22      0.00
   -9    7   10     -0.10      0.00
   -9    7    9     -0.24      0.00
   -9    7    8     -0.14      0.00
   -9    7    7      0.06      0.00
   -9    7    6      0.28      0.00
   -9    7    5      0.36      0.00
   -9    7    4      0.20      0.00
   -9    7    3     -0.17      0.00
   -9    7    2     -0.61      0.00
   -9    7    1     -0.83      0.00
   -9    7    0     -0.52      0.00
    9   -7    1      0.03      0.00
    9   -7    2      0.22      0.00
    9   -7    3     -0.00      0.00
    9   -7    4     -0.18      0.00
    9   -7    5     -0.04      0.00
    9   -7    6      0.40      0.00
    9   -7    7      0.83      0.00
   -9    6   11     -0.18      0.00
   -9    6   10     -0.15      0.00
   -9    6    9      0.07      0.00
   -9    6    8      0.15      0.00
   -9    6    7      0.04      0.00
   -9    6    6     -0.16      0.00
   -9    6    5     -0.28      0.00
   -9    6    4     -0.29      0.00
   -9    6    3     -0.15      0.00
   -9    6    2      0.26      0.00
   -9    6    1      0.82      0.00
   -9    6    0      0.88      0.00
    9   -6    1      0.29      0.00
    9   -6    2     -0.15      0.00
    9   -6    3      0.03      0.00
    9   -6    4      0.30      0.00
    9   -6    5      0.28      0.00
    9   -6    6      0.13      0.00
    9   -6    7     -0.14      0.00
   -9    5   12      0.40      0.00
   -9    5   11      0.31      0.00
   -9    5   10      0.26      0.00
   -9    5    9      0.26      0.00
   -9    5    8      0.31      0.00
   -9    5    7      0.26      0.00
   -9    5    6      0.08      0.00
   -9    5    5     -0.11      0.00
   -9    5    4     -0.15      0.00
   -9    5    3      0.07      0.00
   -9    5    2      0.30      0.00
   -9    5    1      0.07      0.00
   -9    5    0     -0.36      0.00
    9   -5    1     -0.28      0.00
    9   -5    2      0.17      0.00
    9   -5    3      0.33      0.00
    9   -5    4      0.28      0.00
    9   -5    5      0.36      0.00
    9   -5    6      0.26      0.00
    9   -5    7     -0.16      0.00
    9   -5    8     -0.32      0.00
   -9    4   13     -0.21      0.00
   -9    4   12     -0.61      0.00
   -9    4   11     -0.78      0.00
   -9    4   10     -0.59      0.00
   -9    4    9     -0.45      0.00
   -9    4    8     -0.66      0.00
   -9    4    7     -0.87      0.00
   -9    4    6     -0.68      0.00
   -9    4    5     -0.19      0.00
   -9    4    4      0.19      0.00
   -9    4    3      0.16      0.00
   -9    4    2     -0.27      0.00
   -9    4    1     -0.61      0.00
   -9    4    0     -0.45      0.00
    9   -4    1     -0.08      0.00
    9   -4    2      0.02      0.00
    9   -4    3     -0.10      0.00
    9   -4    4     -0.29      0.00
    9   -4    5     -0.67      0.00
    9   -4    6     -0.91      0.00
    9   -4    7     -0.44      0.00
    9   -4    8      0.36      0.00
    9   -4    9      0.58      0.00
   -9    3   14      0.01      0.00
   -9    3   13     -0.32      0.00
   -9    3   12     -0.04      0.00
   -9    3   11      0.60      0.00
   -9    3   10      0.81      0.00
   -9    3    9      0.49      0.00
   -9    3    8      0.28      0.00
   -9    3    7      0.45      0.00
   -9    3    6      0.57      0.00
   -9    3    5      0.36      0.00
   -9    3    4      0.03      0.00
   -9    3    3     -0.12      0.00
   -9    3    2     -0.02      0.00
   -9    3    1      0.25      0.00
   -9    3    0      0.41      0.00
    9   -3    1      0.19      0.00
    9   -3    2     -0.20      0.00
    9   -3    3     -0.43      0.00
    9   -3    4     -0.34      0.00
    9   -3    5      0.02      0.00
    9   -3    6      0.42      0.00
    9   -3    7      0.43      0.00
    9   -3    8     -0.10      0.00
    9   -3    9     -0.61      0.00
   -9    2   15     -0.62      0.00
   -9    2   14     -0.57      0.00
   -9    2   13     -0.03      0.00
   -9    2   12      0.28      0.00
   -9    2   11     -0.01      0.00
   -9    2   10     -0.45      0.00
   -9    2    9     -0.42      0.00
   -9    2    8     -0.02      0.00
   -9    2    7      0.21      0.00
   -9    2    6      0.14      0.00
   -9    2    5      0.05      0.00
   -9    2    4      0.07      0.00
   -9    2    3      0.05      0.00
   -9    2    2     -0.03      0.00
   -9    2    1     -0.10      0.00
   -9    2    0     -0.18      0.00
    9   -2    1     -0.20      0.00
    9   -2    2      0.03      0.00
    9   -2    3      0.36      0.00
    9   -2    4      0.43      0.00
    9   -2    5      0.23      0.00
    9   -2    6      0.04      0.00
    9   -2    7      0.03      0.00
    9   -2    8      0.20      0.00
    9   -2    9      0.44      0.00
   -9    1   16     -0.21      0.00
   -9    1   15      0.19      0.00
   -9    1   14      0.38      0.00
   -9    1   13      0.26      0.00
   -9    1   12      0.15      0.00
   -9    1   11      0.18      0.00
   -9    1   10      0.26      0.00
   -9    1    9      0.29      0.00
   -9    1    8      0.18      0.00
   -9    1    7     -0.02      0.00
   -9    1    6     -0.06      0.00
   -9    1    5      0.05      0.00
   -9    1    4      0.03      0.00
   -9    1    3     -0.10      0.00
   -9    1    2     -0.03      0.00
   -9    1    1      0.19      0.00
   -9    1    0      0.31      0.00
    9   -1    1      0.34      0.00
    9   -1    2      0.27      0.00
    9   -1    3      0.04      0.00
    9   -1    4     -0.13      0.00
    9   -1    5     -0.06      0.00
    9   -1    6      0.07      0.00
    9   -1    7      0.07      0.00
    9   -1    8     -0.05      0.00
    9   -1    9     -0.16      0.00
   -9    0   16      0.19      0.00
   -9    0   15     -0.21      0.00
   -9    0   14     -0.26      0.00
   -9    0   13     -0.03      0.00
   -9    0   12     -0.10      0.00
   -9    0   11     -0.41      0.00
   -9    0   10     -0.39      0.00
   -9    0    9     -0.13      0.00
   -9    0    8     -0.07      0.00
   -9    0    7     -0.18      0.00
   -9    0    6     -0.31      0.00
   -9    0    5     -0.51      0.00
   -9    0    4     -0.50      0.00
   -9    0    3     -0.05      0.00
   -9    0    2      0.35      0.00
   -9    0    1      0.20      0.00
    9    0    0     -0.17      0.00
    9    0    1     -0.25      0.00
    9    0    2     -0.09      0.00
    9    0    3      0.03      0.00
    9    0    4      0.12      0.00
    9    0    5      0.25      0.00
    9    0    6      0.33      0.00
    9    0    7      0.23      0.00
    9    0    8      0.04      0.00
    9    0    9     -0.01      0.00
   -9   -1   16     -0.15      0.00
   -9   -1   15      0.41      0.00
   -9   -1   14      0.79      0.00
   -9   -1   13      0.57      0.00
   -9   -1   12      0.32      0.00
   -9   -1   11      0.49      0.00
   -9   -1   10      0.52      0.00
   -9   -1    9      0.15      0.00
   -9   -1    8     -0.07      0.00
   -9   -1    7      0.12      0.00
   -9   -1    6      0.38      0.00
   -9   -1    5      0.64      0.00
   -9   -1    4      0.85      0.00
   -9   -1    3      0.61      0.00
   -9   -1    2     -0.01      0.00
   -9   -1    1     -0.23      0.00
    9    1    0      0.17      0.00
    9    1    1      0.41      0.00
    9    1    2      0.10      0.00
    9    1    3     -0.21      0.00
    9    1    4     -0.08      0.00
    9    1    5      0.01      0.00
    9    1    6     -0.35      0.00
    9    1    7     -0.64      0.00
    9    1    8     -0.35      0.00
   -9   -2   15     -0.25      0.00
   -9   -2   14     -0.70      0.00
   -9   -2   13     -0.89      0.00
   -9   -2   12     -0.74      0.00
   -9   -2   11     -0.67      0.00
   -9   -2   10     -0.59      0.00
   -9   -2    9     -0.25      0.00
   -9   -2    8      0.02      0.00
   -9   -2    7     -0.11      0.00
   -9   -2    6     -0.32      0.00
   -9   -2    5     -0.38      0.00
   -9   -2    4     -0.51      0.00
   -9   -2    3     -0.63      0.00
   -9   -2    2     -0.43      0.00
   -9   -2    1     -0.14      0.00
    9    2    0     -0.23      0.00
    9    2    1     -0.46      0.00
    9    2    2     -0.17      0.00
    9    2    3      0.45      0.00
    9    2    4      0.51      0.00
    9    2    5      0.03      0.00
    9    2    6      0.04      0.00
    9    2    7      0.62      0.00
   -9   -3   15      0.21      0.00
   -9   -3   14      0.31      0.00
   -9   -3   13      0.48      0.00
   -9   -3   12      0.54      0.00
   -9   -3   11      0.54      0.00
   -9   -3   10      0.53      0.00
   -9   -3    9      0.39      0.00
   -9   -3    8      0.25      0.00
   -9   -3    7      0.34      0.00
   -9   -3    6      0.50      0.00
   -9   -3    5      0.42      0.00
   -9   -3    4      0.20      0.00
   -9   -3    3      0.15      0.00
   -9   -3    2      0.31      0.00
   -9   -3    1      0.43      0.00
    9    3    0      0.44      0.00
    9    3    1      0.43      0.00
    9    3    2      0.25      0.00
    9    3    3     -0.33      0.00
    9    3    4     -0.78      0.00
    9    3    5     -0.49      0.00
    9    3    6     -0.09      0.00
    9    3    7     -0.42      0.00
   -9   -4   14     -0.33      0.00
   -9   -4   13     -0.38      0.00
   -9   -4   12     -0.43      0.00
   -9   -4   11     -0.44      0.00
   -9   -4   10     -0.46      0.00
   -9   -4    9     -0.54      0.00
   -9   -4    8     -0.63      0.00
   -9   -4    7     -0.74      0.00
   -9   -4    6     -0.86      0.00
   -9   -4    5     -0.90      0.00
   -9   -4    4     -0.70      0.00
   -9   -4    3     -0.34      0.00
   -9   -4    2     -0.22      0.00
   -9   -4    1     -0.55      0.00
    9    4    0     -0.90      0.00
    9    4    1     -0.90      0.00
    9    4    2     -0.77      0.00
    9    4    3     -0.54      0.00
    9    4    4     -0.14      0.00
    9    4    5      0.02      0.00
    9    4    6     -0.24      0.00
   -9   -5   14      0.14      0.00
   -9   -5   13      0.17      0.00
   -9   -5   12      0.23      0.00
   -9   -5   11      0.27      0.00
   -9   -5   10      0.28      0.00
   -9   -5    9      0.39      0.00
   -9   -5    8      0.57      0.00
   -9   -5    7      0.60      0.00
   -9   -5    6      0.55      0.00
   -9   -5    5      0.65      0.00
   -9   -5    4      0.86      0.00
   -9   -5    3      0.71      0.00
   -9   -5    2      0.25      0.00
   -9   -5    1      0.16      0.00
    9    5    0      0.55      0.00
    9    5    1      0.78      0.00
    9    5    2      0.71      0.00
    9    5    3      0.73      0.00
    9    5    4      0.69      0.00
    9    5    5      0.40      0.00
    9    5    6      0.29      0.00
   -9   -6   13     -0.09      0.00
   -9   -6   12      0.05      0.00
   -9   -6   11      0.11      0.00
   -9   -6   10      0.08      0.00
   -9   -6    9     -0.15      0.00
   -9   -6    8     -0.46      0.00
   -9   -6    7     -0.44      0.00
   -9   -6    6     -0.06      0.00
   -9   -6    5      0.14      0.00
   -9   -6    4     -0.19      0.00
   -9   -6    3     -0.52      0.00
   -9   -6    2     -0.24      0.00
   -9   -6    1      0.20      0.00
    9    6    0      0.13      0.00
    9    6    1     -0.12      0.00
    9    6    2     -0.09      0.00
    9    6    3     -0.13      0.00
   -9   -7   12      0.09      0.00
   -9   -7   11     -0.27      0.00
   -9   -7   10     -0.49      0.00
   -9   -7    9     -0.26      0.00
   -9   -7    8      0.34      0.00
   -9   -7    7      0.67      0.00
   -9   -7    6      0.30      0.00
   -9   -7    5     -0.26      0.00
   -9   -7    4     -0.25      0.00
   -9   -7    3      0.18      0.00
   -9   -7    2      0.23      0.00
   -9   -7    1     -0.16      0.00
    9    7    0     -0.30      0.00
    9    7    1     -0.11      0.00
   -9   -8   11      0.10      0.00
   -9   -8   10      0.50      0.00
   -9   -8    9      0.60      0.00
   -9   -8    8      0.15      0.00
   -9   -8    7     -0.44      0.00
   -9   -8    6     -0.48      0.00
   -9   -8    5     -0.01      0.00
   -9   -8    4      0.24      0.00
   -9   -8    3     -0.02      0.00
   -9   -8    2     -0.23      0.00
   -9   -8    1     -0.02      0.00
    9    8    0      0.20      0.00
  -10    8    6     -0.20      0.00
  -10    8    5     -0.15      0.00
  -10    8    4     -0.06      0.00
  -10    8    3      0.01      0.00
  -10    8    2      0.00      0.00
  -10    8    1     -0.23      0.00
  -10    8    0     -0.57      0.00
   10   -8    1     -0.64      0.00
   10   -8    2     -0.32      0.00
  -10    7    8     -0.03      0.00
  -10    7    7      0.03      0.00
  -10    7    6      0.08      0.00
  -10    7    5      0.01      0.00
  -10    7    4     -0.15      0.00
  -10    7    3     -0.32      0.00
  -10    7    2     -0.40      0.00
  -10    7    1     -0.19      0.00
  -10    7    0      0.22      0.00
   10   -7    1      0.45      0.00
   10   -7    2      0.30      0.00
   10   -7    3      0.04      0.00
   10   -7    4     -0.04      0.00
  -10    6    9      0.20      0.00
  -10    6    8      0.05      0.00
  -10    6    7     -0.17      0.00
  -10    6    6     -0.27      0.00
  -10    6    5     -0.12      0.00
  -10    6    4      0.17      0.00
  -10    6    3      0.50      0.00
  -10    6    2      0.74      0.00
  -10    6    1      0.61      0.00
  -10    6    0      0.08      0.00
   10   -6    1     -0.34      0.00
   10   -6    2     -0.30      0.00
   10   -6    3     -0.07      0.00
   10   -6    4      0.04      0.00
   10   -6    5     -0.01      0.00
  -10    5   11      0.12      0.00
  -10    5   10      0.06      0.00
  -10    5    9     -0.02      0.00
  -10    5    8     -0.04      0.00
  -10    5    7      0.07      0.00
  -10    5    6      0.26      0.00
  -10    5    5      0.30      0.00
  -10    5    4      0.14      0.00
  -10    5    3     -0.07      0.00
  -10    5    2     -0.35      0.00
  -10    5    1     -0.50      0.00
  -10    5    0     -0.22      0.00
   10   -5    1      0.26      0.00
   10   -5    2      0.41      0.00
   10   -5    3      0.31      0.00
   10   -5    4      0.25      0.00
   10   -5    5      0.08      0.00
   10   -5    6     -0.16      0.00
  -10    4   12     -0.47      0.00
  -10    4   11     -0.18      0.00
  -10    4   10      0.01      0.00
  -10    4    9     -0.03      0.00
  -10    4    8     -0.08      0.00
  -10    4    7      0.03      0.00
  -10    4    6      0.11      0.00
  -10    4    5      0.08      0.00
  -10    4    4      0.01      0.00
  -10    4    3     -0.11      0.00
  -10    4    2     -0.22      0.00
  -10    4    1     -0.15      0.00
  -10    4    0     -0.05      0.00
   10   -4    1     -0.14      0.00
   10   -4    2     -0.24      0.00
   10   -4    3     -0.30      0.00
   10   -4    4     -0.51      0.00
   10   -4    5     -0.59      0.00
   10   -4    6     -0.12      0.00
  -10    3   13      0.43      0.00
  -10    3   12      0.79      0.00
  -10    3   11      0.67      0.00
  -10    3   10      0.17      0.00
  -10    3    9     -0.12      0.00
  -10    3    8     -0.02      0.00
  -10    3    7      0.02      0.00
  -10    3    6     -0.17      0.00
  -10    3    5     -0.32      0.00
  -10    3    4     -0.32      0.00
  -10    3    3     -0.21      0.00
  -10    3    2      0.01      0.00
  -10    3    1      0.20      0.00
  -10    3    0      0.16      0.00
   10   -3    1     -0.02      0.00
   10   -3    2     -0.14      0.00
   10   -3    3     -0.13      0.00
   10   -3    4      0.16      0.00
   10   -3    5      0.59      0.00
   10   -3    6      0.56      0.00
   10   -3    7     -0.05      0.00
  -10    2   13     -0.01      0.00
  -10    2   12     -0.36      0.00
  -10    2   11     -0.77      0.00
  -10    2   10     -0.65      0.00
  -10    2    9     -0.05      0.00
  -10    2    8      0.31      0.00
  -10    2    7      0.21      0.00
  -10    2    6      0.07      0.00
  -10    2    5      0.06      0.00
  -10    2    4      0.04      0.00
  -10    2    3      0.05      0.00
  -10    2    2      0.14      0.00
  -10    2    1      0.19      0.00
  -10    2    0      0.23      0.00
   10   -2    1      0.37      0.00
   10   -2    2      0.50      0.00
   10   -2    3      0.49      0.00
   10   -2    4      0.28      0.00
   10   -2    5     -0.05      0.00
   10   -2    6     -0.21      0.00
   10   -2    7      0.00      0.00
  -10    1   14      0.22      0.00
  -10    1   13      0.13      0.00
  -10    1   12      0.01      0.00
  -10    1   11      0.25      0.00
  -10    1   10      0.61      0.00
  -10    1    9      0.36      0.00
  -10    1    8     -0.32      0.00
  -10    1    7     -0.58      0.00
  -10    1    6     -0.24      0.00
  -10    1    5      0.17      0.00
  -10    1    4      0.37      0.00
  -10    1    3      0.44      0.00
  -10    1    2      0.34      0.00
  -10    1    1      0.09      0.00
  -10    1    0     -0.14      0.00
   10   -1    1     -0.28      0.00
   10   -1    2     -0.38      0.00
   10   -1    3     -0.36      0.00
   10   -1    4     -0.16      0.00
   10   -1    5      0.09      0.00
   10   -1    6      0.16      0.00
  -10    0   14     -0.07      0.00
  -10    0   13     -0.25      0.00
  -10    0   12     -0.21      0.00
  -10    0   11     -0.10      0.00
  -10    0   10     -0.31      0.00
  -10    0    9     -0.47      0.00
  -10    0    8      0.01      0.00
  -10    0    7      0.60      0.00
  -10    0    6      0.48      0.00
  -10    0    5     -0.07      0.00
  -10    0    4     -0.32      0.00
  -10    0    3     -0.25      0.00
  -10    0    2     -0.20      0.00
  -10    0    1     -0.16      0.00
   10    0    0     -0.01      0.00
   10    0    1      0.16      0.00
   10    0    2      0.21      0.00
   10    0    3      0.22      0.00
   10    0    4      0.22      0.00
   10    0    5      0.10      0.00
   10    0    6     -0.11      0.00
  -10   -1   14      0.27      0.00
  -10   -1   13      0.30      0.00
  -10   -1   12      0.48      0.00
  -10   -1   11      0.45      0.00
  -10   -1   10      0.42      0.00
  -10   -1    9      0.62      0.00
  -10   -1    8      0.56      0.00
  -10   -1    7      0.05      0.00
  -10   -1    6     -0.16      0.00
  -10   -1    5      0.23      0.00
  -10   -1    4      0.53      0.00
  -10   -1    3      0.28      0.00
  -10   -1    2     -0.03      0.00
  -10   -1    1      0.01      0.00
   10    1    0      0.08      0.00
   10    1    1     -0.10      0.00
   10    1    2     -0.20      0.00
   10    1    3     -0.06      0.00
   10    1    4     -0.08      0.00
   10    1    5     -0.36      0.00
   10    1    6     -0.36      0.00
  -10   -2   14     -0.59      0.00
  -10   -2   13     -0.46      0.00
  -10   -2   12     -0.52      0.00
  -10   -2   11     -0.57      0.00
  -10   -2   10     -0.45      0.00
  -10   -2    9     -0.46      0.00
  -10   -2    8     -0.60      0.00
  -10   -2    7     -0.47      0.00
  -10   -2    6     -0.20      0.00
  -10   -2    5     -0.29      0.00
  -10   -2    4     -0.62      0.00
  -10   -2    3     -0.60      0.00
  -10   -2    2     -0.26      0.00
  -10   -2    1     -0.16      0.00
   10    2    0     -0.32      0.00
   10    2    1     -0.14      0.00
   10    2    2      0.28      0.00
   10    2    3      0.21      0.00
   10    2    4     -0.19      0.00
   10    2    5     -0.06      0.00
  -10   -3   13      0.24      0.00
  -10   -3   12      0.18      0.00
  -10   -3   11      0.27      0.00
  -10   -3   10      0.26      0.00
  -10   -3    9      0.17      0.00
  -10   -3    8      0.21      0.00
  -10   -3    7      0.27      0.00
  -10   -3    6      0.17      0.00
  -10   -3    5      0.03      0.00
  -10   -3    4      0.10      0.00
  -10   -3    3      0.32      0.00
  -10   -3    2      0.37      0.00
  -10   -3    1      0.28      0.00
   10    3    0      0.30      0.00
   10    3    1      0.16      0.00
   10    3    2     -0.47      0.00
   10    3    3     -0.90      0.00
   10    3    4     -0.49      0.00
  -10   -4   13     -0.06      0.00
  -10   -4   12      0.06      0.00
  -10   -4   11     -0.03      0.00
  -10   -4   10     -0.23      0.00
  -10   -4    9     -0.36      0.00
  -10   -4    8     -0.38      0.00
  -10   -4    7     -0.40      0.00
  -10   -4    6     -0.45      0.00
  -10   -4    5     -0.35      0.00
  -10   -4    4     -0.09      0.00
  -10   -4    3     -0.07      0.00
  -10   -4    2     -0.41      0.00
  -10   -4    1     -0.66      0.00
   10    4    0     -0.64      0.00
   10    4    1     -0.50      0.00
   10    4    2     -0.05      0.00
   10    4    3      0.60      0.00
  -10   -5   12     -0.05      0.00
  -10   -5   11     -0.04      0.00
  -10   -5   10      0.14      0.00
  -10   -5    9      0.37      0.00
  -10   -5    8      0.47      0.00
  -10   -5    7      0.42      0.00
  -10   -5    6      0.50      0.00
  -10   -5    5      0.66      0.00
  -10   -5    4      0.46      0.00
  -10   -5    3      0.02      0.00
  -10   -5    2      0.06      0.00
  -10   -5    1      0.53      0.00
   10    5    0      0.74      0.00
   10    5    1      0.66      0.00
   10    5    2      0.52      0.00
  -10   -6   11     -0.07      0.00
  -10   -6   10     -0.22      0.00
  -10   -6    9     -0.35      0.00
  -10   -6    8     -0.29      0.00
  -10   -6    7     -0.05      0.00
  -10   -6    6      0.04      0.00
  -10   -6    5     -0.25      0.00
  -10   -6    4     -0.43      0.00
  -10   -6    3     -0.02      0.00
  -10   -6    2      0.39      0.00
  -10   -6    1      0.20      0.00
   10    6    0     -0.12      0.00
   10    6    1     -0.13      0.00
  -10   -7    7      0.17      0.00
  -10   -7    6     -0.22      0.00
  -10   -7    5     -0.14      0.00
  -11    7    5      0.07      0.00
  -11    7    4      0.15      0.00
  -11    6    6      0.42      0.00
  -11    6    5      0.31      0.00
  -11    6    4      0.05      0.00
  -11    6    3     -0.06      0.00
  -11    6    2      0.04      0.00
  -11    6    1      0.06      0.00
  -11    6    0     -0.10      0.00
  -11    5    8     -0.14      0.00
  -11    5    7     -0.11      0.00
  -11    5    6     -0.20      0.00
  -11    5    5     -0.31      0.00
  -11    5    4     -0.19      0.00
  -11    5    3     -0.04      0.00
  -11    5    2     -0.12      0.00
  -11    5    1     -0.21      0.00
  -11    5    0     -0.04      0.00
   11   -5    1      0.25      0.00
   11   -5    2      0.40      0.00
  -11    4    9      0.17      0.00
  -11    4    8      0.37      0.00
  -11    4    7      0.32      0.00
  -11    4    6      0.16      0.00
  -11    4    5      0.16      0.00
  -11    4    4      0.14      0.00
  -11    4    3     -0.06      0.00
  -11    4    2     -0.12      0.00
  -11    4    1      0.07      0.00
  -11    4    0      0.17      0.00
   11   -4    1      0.06      0.00
   11   -4    2     -0.11      0.00
   11   -4    3     -0.22      0.00
  -11    3   10     -0.26      0.00
  -11    3    9     -0.22      0.00
  -11    3    8     -0.45      0.00
  -11    3    7     -0.69      0.00
  -11    3    6     -0.59      0.00
  -11    3    5     -0.42      0.00
  -11    3    4     -0.36      0.00
  -11    3    3     -0.14      0.00
  -11    3    2      0.24      0.00
  -11    3    1      0.37      0.00
  -11    3    0      0.22      0.00
   11   -3    1      0.05      0.00
   11   -3    2     -0.03      0.00
   11   -3    3      0.05      0.00
   11   -3    4      0.26      0.00
  -11    2   11     -0.24      0.00
  -11    2   10      0.07      0.00
  -11    2    9      0.10      0.00
  -11    2    8      0.09      0.00
  -11    2    7      0.28      0.00
  -11    2    6      0.39      0.00
  -11    2    5      0.31      0.00
  -11    2    4      0.33      0.00
  -11    2    3      0.41      0.00
  -11    2    2      0.24      0.00
  -11    2    1     -0.06      0.00
  -11    2    0     -0.17      0.00
   11   -2    1     -0.09      0.00
   11   -2    2      0.07      0.00
   11   -2    3      0.17      0.00
   11   -2    4      0.06      0.00
   11   -2    5     -0.17      0.00
  -11    1   12      0.14      0.00
  -11    1   11      0.41      0.00
  -11    1   10      0.27      0.00
  -11    1    9     -0.07      0.00
  -11    1    8     -0.05      0.00
  -11    1    7      0.20      0.00
  -11    1    6      0.35      0.00
  -11    1    5      0.40      0.00
  -11    1    4      0.36      0.00
  -11    1    3      0.11      0.00
  -11    1    2     -0.16      0.00
  -11    1    1     -0.23      0.00
  -11    1    0     -0.15      0.00
   11   -1    1     -0.08      0.00
   11   -1    2     -0.08      0.00
   11   -1    3     -0.12      0.00
  -11    0   13     -0.01      0.00
  -11    0   12      0.22      0.00
  -11    0   11     -0.09      0.00
  -11    0   10     -0.31      0.00
  -11    0    9      0.17      0.00
  -11    0    8      0.65      0.00
  -11    0    7      0.37      0.00
  -11    0    6     -0.27      0.00
  -11    0    5     -0.57      0.00
  -11    0    4     -0.50      0.00
  -11    0    3     -0.30      0.00
  -11    0    2     -0.06      0.00
  -11    0    1      0.13      0.00
   11    0    0      0.17      0.00
   11    0    1      0.08      0.00
   11    0    2      0.02      0.00
   11    0    3      0.03      0.00
  -11   -1   13      0.38      0.00
  -11   -1   12      0.10      0.00
  -11   -1   11      0.20      0.00
  -11   -1   10      0.69      0.00
  -11   -1    9      0.53      0.00
  -11   -1    8     -0.33      0.00
  -11   -1    7     -0.66      0.00
  -11   -1    6     -0.07      0.00
  -11   -1    5      0.51      0.00
  -11   -1    4      0.40      0.00
  -11   -1    3     -0.00      0.00
  -11   -1    2     -0.19      0.00
  -11   -1    1     -0.23      0.00
   11    1    0     -0.27      0.00
   11    1    1     -0.17      0.00
   11    1    2     -0.02      0.00
   11    1    3     -0.10      0.00
  -11   -2   11     -0.35      0.00
  -11   -2   10     -0.81      0.00
  -11   -2    9     -1.17      0.00
  -11   -2    8     -0.71      0.00
  -11   -2    7     -0.03      0.00
  -11   -2    6     -0.10      0.00
  -11   -2    5     -0.67      0.00
  -11   -2    4     -0.76      0.00
  -11   -2    3     -0.27      0.00
  -11   -2    2      0.09      0.00
  -11   -2    1      0.06      0.00
   11    2    0      0.10      0.00
   11    2    1      0.19      0.00
   11    2    2     -0.02      0.00
  -11   -3   11      0.01      0.00
  -11   -3   10      0.08      0.00
  -11   -3    9      0.42      0.00
  -11   -3    8      0.49      0.00
  -11   -3    7      0.16      0.00
  -11   -3    6     -0.07      0.00
  -11   -3    5      0.18      0.00
  -11   -3    4      0.51      0.00
  -11   -3    3      0.39      0.00
  -11   -3    2      0.06      0.00
  -11   -3    1      0.04      0.00
   11    3    0      0.04      0.00
   11    3    1     -0.31      0.00
   11    3    2     -0.45      0.00
  -11   -4   11      0.03      0.00
  -11   -4   10      0.11      0.00
  -11   -4    9      0.09      0.00
  -11   -4    8      0.02      0.00
  -11   -4    7     -0.00      0.00
  -11   -4    6      0.09      0.00
  -11   -4    5      0.16      0.00
  -11   -4    4     -0.02      0.00
  -11   -4    3     -0.28      0.00
  -11   -4    2     -0.27      0.00
  -11   -4    1     -0.20      0.00
   11    4    0     -0.20      0.00
   11    4    1      0.12      0.00
  -11   -5    8      0.11      0.00
  -11   -5    7      0.15      0.00
  -11   -5    6      0.26      0.00
  -11   -5    5      0.13      0.00
  -11   -5    4     -0.08      0.00
  -11   -5    1      0.42      0.00
  -12    4    4     -0.13      0.00
  -12    4    3     -0.28      0.00
  -12    4    2      0.15      0.00
  -12    4    1      0.56      0.00
  -12    3    5     -0.42      0.00
  -12    3    4     -0.15      0.00
  -12    3    3      0.33      0.00
  -12    3    2      0.32      0.00
  -12    3    1     -0.12      0.00
  -12    3    0     -0.36      0.00
  -12    2    6      0.32      0.00
  -12    2    5      0.40      0.00
  -12    2    4      0.44      0.00
  -12    2    3      0.01      0.00
  -12    2    2     -0.47      0.00
  -12    2    1     -0.50      0.00
  -12    2    0     -0.26      0.00
  -12    1   10      0.09      0.00
  -12    1    9      0.25      0.00
  -12    1    8      0.17      0.00
  -12    1    7      0.01      0.00
  -12    1    6      0.02      0.00
  -12    1    5     -0.02      0.00
  -12    1    4     -0.22      0.00
  -12    1    3     -0.21      0.00
  -12    1    2      0.12      0.00
  -12    1    1      0.39      0.00
  -12    1    0      0.40      0.00
  -12    0   10      0.17      0.00
  -12    0    9      0.15      0.00
  -12    0    8     -0.15      0.00
  -12    0    7     -0.36      0.00
  -12    0    6     -0.31      0.00
  -12    0    5     -0.16      0.00
  -12    0    4      0.03      0.00
  -12    0    3      0.13      0.00
  -12    0    2      0.05      0.00
  -12    0    1     -0.12      0.00
   12    0    0     -0.21      0.00
  -12   -1    9     -0.50      0.00
  -12   -1    8     -0.50      0.00
  -12   -1    7      0.02      0.00
  -12   -1    6      0.30      0.00
  -12   -1    5      0.04      0.00
  -12   -1    4     -0.35      0.00
  -12   -1    3     -0.46      0.00
  -12   -1    2     -0.33      0.00
  -12   -1    1     -0.15      0.00
  -12   -2    1      0.12      0.00
    1    0    0     23.37      0.00
   -1    1    0     -0.28      0.00
    0    1    0    -29.63      0.00
    1    1    0    -34.36      0.00
   12    1    0     -0.01      0.00
    1    2    0     21.29      0.00
   12    2    0      0.00      0.00
  -12    4    0      0.44      0.00
   11    5    0      0.39      0.00
  -11    7    0      0.10      0.00
  -10    9    0      0.47      0.00
    7   10    0      0.17      0.00
   -8   11    0     -0.07      0.00
    6   11    0      0.00      0.00
   -7   12    0      0.03      0.00
    5   12    0      0.11      0.00
   -5   13    0     -0.16      0.00
   -4   13    0      0.05      0.00
    2   13    0     -0.10      0.00
   -3  -13    1      0.18      0.00
    4  -13    1     -0.13      0.00
    5  -13    1     -0.26      0.00
   -5  -12    1     -0.07      0.00
    7  -12    1      0.07      0.00
   -6  -11    1     -0.35      0.00
    8  -11    1      0.04      0.00
   10   -9    1      0.27      0.00
  -10   -7    1     -0.37      0.00
   11   -7    1      0.11      0.00
   11   -6    1     -0.26      0.00
   12   -4    1      0.06      0.00
   12   -3    1     -0.26      0.00
   12   -2    1     -0.07      0.00
   -1   -1    1    -33.01      0.00
    0   -1    1    -10.17      0.00
    1   -1    1      8.21      0.00
   12   -1    1      0.28      0.00
   -1    0    1     36.37      0.00
    0    0    1     36.62      0.00
    1    0    1      6.04      0.00
   12    0    1     -0.20      0.00
   -1    1    1    -14.45      0.00
    0    1    1    -36.44      0.00
   12    1    1      0.01      0.00
  -12    5    1     -0.32      0.00
  -11    7    1      0.02      0.00
    9    8    1      0.07      0.00
  -10    9    1      0.30      0.00
    7   10    1      0.24      0.00
   -8   11    1      0.18      0.00
    6   11    1      0.08      0.00
   -7   12    1     -0.29      0.00
    4   12    1      0.24      0.00
   -5   13    1     -0.10      0.00
   -4   13    1      0.19      0.00
    1   13    1     -0.46      0.00
    2   13    1     -0.24      0.00
   -3  -13    2      0.32      0.00
    4  -13    2     -0.18      0.00
    5  -13    2     -0.10      0.00
    7  -12    2     -0.08      0.00
    8  -11    2      0.13      0.00
   -8  -10    2      0.21      0.00
    9  -10    2     -0.00      0.00
  -10   -7    2     -0.29      0.00
   11   -7    2      0.04      0.00
   11   -6    2     -0.29      0.00
  -11   -5    2      0.35      0.00
  -12   -3    2     -0.11      0.00
  -12   -2    2      0.30      0.00
   -2   -2    2     12.79      0.00
   12   -2    2      0.07      0.00
   -2   -1    2    -22.82      0.00
    0   -1    2      5.46      0.00
   12   -1    2      0.08      0.00
   -1    0    2     33.55      0.00
    0    0    2     15.81      0.00
   -1    1    2    -23.87      0.00
  -12    5    2     -0.15      0.00
   10    6    2     -0.12      0.00
  -11    7    2      0.00      0.00
    9    7    2     -0.13      0.00
  -10    9    2      0.04      0.00
   -8   11    2      0.48      0.00
    5   11    2      0.18      0.00
   -7   12    2     -0.37      0.00
   -6   12    2     -0.27      0.00
    4   12    2      0.16      0.00
   -4   13    2      0.34      0.00
   -1   13    2      0.19      0.00
    1   13    2     -0.52      0.00
    1  -14    3     -0.22      0.00
    1  -13    3      0.32      0.00
    4  -13    3     -0.01      0.00
    5  -13    3      0.30      0.00
    6  -12    3     -0.46      0.00
   -7  -11    3     -0.65      0.00
    8  -11    3     -0.01      0.00
   -8  -10    3      0.32      0.00
    9  -10    3      0.25      0.00
   -9   -9    3     -0.11      0.00
   10   -8    3      0.05      0.00
  -10   -7    3      0.13      0.00
  -11   -6    3      0.35      0.00
   11   -6    3     -0.20      0.00
  -11   -5    3      0.06      0.00
   11   -5    3      0.35      0.00
  -12   -3    3     -0.13      0.00
  -12   -2    3      0.40      0.00
   -2    0    3     19.60      0.00
   11    2    3     -0.21      0.00
   11    3    3     -0.04      0.00
  -12    5    3      0.28      0.00
   10    5    3      0.18      0.00
  -11    7    3      0.10      0.00
    9    7    3     -0.25      0.00
  -10    9    3     -0.11      0.00
    7    9    3      0.42      0.00
    6   10    3     -0.13      0.00
   -8   11    3      0.30      0.00
    5   11    3      0.39      0.00
   -6   12    3     -0.32      0.00
    3   12    3      0.06      0.00
   -4   13    3      0.48      0.00
   -3   13    3      0.22      0.00
   -2   13    3      0.24      0.00
   -1   13    3     -0.01      0.00
    0   13    3     -0.42      0.00
    1  -14    4     -0.12      0.00
   -4  -13    4      0.23      0.00
    4  -13    4      0.18      0.00
    5  -13    4      0.47      0.00
   -5  -12    4      0.11      0.00
   -7  -11    4     -0.31      0.00
   -8  -10    4      0.38      0.00
   -9   -9    4     -0.23      0.00
   10   -8    4      0.10      0.00
  -10   -7    4      0.20      0.00
  -11   -6    4      0.07      0.00
   11   -5    4      0.12      0.00
   11   -4    4     -0.14      0.00
  -12   -3    4      0.30      0.00
  -12   -2    4      0.06      0.00
   11   -1    4     -0.11      0.00
   11    0    4     -0.06      0.00
   11    1    4     -0.25      0.00
   11    2    4      0.02      0.00
   10    4    4      0.67      0.00
  -12    5    4      0.38      0.00
    9    6    4     -0.38      0.00
    8    8    4      0.17      0.00
  -10    9    4     -0.19      0.00
    7    9    4      0.16      0.00
   -9   10    4      0.25      0.00
    6   10    4     -0.24      0.00
   -8   11    4     -0.13      0.00
   -6   12    4     -0.63      0.00
   -2   13    4      0.12      0.00
   -1   13    4     -0.17      0.00
   -4  -13    5      0.16      0.00
   -3  -13    5     -0.43      0.00
   -7  -11    5      0.10      0.00
   -8  -10    5      0.09      0.00
   -9   -9    5     -0.01      0.00
  -10   -8    5      0.15      0.00
   10   -7    5      0.11      0.00
  -11   -6    5     -0.28      0.00
   11   -4    5      0.13      0.00
  -12   -3    5      0.62      0.00
   11   -3    5      0.29      0.00
  -12   -2    5     -0.51      0.00
   11   -1    5     -0.06      0.00
   11    0    5     -0.19      0.00
   10    3    5     -0.07      0.00
  -12    4    5      0.31      0.00
   10    4    5      0.19      0.00
  -12    5    5     -0.03      0.00
    9    6    5     -0.32      0.00
   -9   10    5      0.41      0.00
    4   11    5      0.25      0.00
    1   12    5      0.38      0.00
    2   12    5     -0.16      0.00
   -3  -13    6     -0.49      0.00
    4  -13    6      0.10      0.00
    6  -12    6      0.60      0.00
   -7  -11    6     -0.01      0.00
    7  -11    6     -0.43      0.00
   -8  -10    6     -0.41      0.00
   -9   -9    6      0.21      0.00
  -10   -8    6     -0.01      0.00
    9   -8    6     -0.58      0.00
  -11   -6    6     -0.20      0.00
   10   -6    6     -0.18      0.00
  -12   -3    6      0.37      0.00
  -12   -2    6     -0.56      0.00
   10    2    6      0.36      0.00
  -12    3    6     -0.30      0.00
   10    3    6     -0.34      0.00
  -12    4    6      0.42      0.00
  -12    5    6     -0.45      0.00
  -11    7    6     -0.03      0.00
    7    8    6      0.45      0.00
    6    9    6     -0.09      0.00
    4   10    6      0.29      0.00
   -6   11    6     -0.08      0.00
   -5   11    6     -0.53      0.00
    3   11    6     -0.04      0.00
   -5   12    6      0.39      0.00
   -4   12    6      0.44      0.00
   -2   12    6      0.20      0.00
   -1   12    6     -0.56      0.00
    0   12    6      0.05      0.00
    1   12    6      0.41      0.00
   -3  -13    7     -0.59      0.00
    3  -13    7     -0.22      0.00
   -7  -11    7     -0.20      0.00
   -9   -9    7      0.13      0.00
    9   -8    7     -0.72      0.00
  -11   -6    7      0.00      0.00
   10   -5    7     -0.16      0.00
   10   -4    7      0.48      0.00
  -12   -3    7      0.05      0.00
  -12   -2    7     -0.05      0.00
   10   -1    7     -0.03      0.00
   10    0    7     -0.12      0.00
   10    1    7     -0.05      0.00
  -12    2    7      0.50      0.00
  -12    3    7     -0.34      0.00
  -12    4    7      0.27      0.00
    9    4    7     -0.24      0.00
  -11    6    7      0.32      0.00
    8    6    7     -0.18      0.00
    7    7    7     -0.11      0.00
  -10    8    7     -0.10      0.00
    6    8    7      0.50      0.00
    5    9    7      0.01      0.00
    4   10    7      0.26      0.00
   -6   11    7     -0.26      0.00
    2   11    7     -0.03      0.00
   -3   12    7      0.16      0.00
   -2   12    7     -0.25      0.00
   -1   12    7     -0.50      0.00
   -3  -13    8     -0.58      0.00
    3  -13    8     -0.03      0.00
    5  -12    8      0.13      0.00
   -7  -11    8     -0.04      0.00
    5  -11    8     -0.16      0.00
    6  -11    8     -0.23      0.00
   -9   -9    8     -0.08      0.00
    8   -9    8      0.64      0.00
  -10   -7    8      0.54      0.00
    9   -7    8      0.78      0.00
  -11   -6    8     -0.02      0.00
    9   -6    8     -0.46      0.00
   10   -4    8      0.54      0.00
  -12   -3    8      0.23      0.00
   10   -3    8     -0.53      0.00
  -12   -2    8      0.17      0.00
   10   -2    8      0.31      0.00
   10   -1    8     -0.20      0.00
  -12    2    8      0.49      0.00
    9    2    8      0.71      0.00
  -12    3    8     -0.53      0.00
    9    3    8     -0.85      0.00
  -12    4    8      0.27      0.00
    8    5    8      0.48      0.00
  -11    6    8      0.18      0.00
    7    6    8     -0.21      0.00
   -9    9    8     -0.13      0.00
    4    9    8     -0.05      0.00
    3   10    8     -0.02      0.00
    1   11    8      0.22      0.00
   -1  -13    9     -0.23      0.00
    0  -13    9     -0.40      0.00
    2  -13    9     -0.46      0.00
   -5  -12    9     -0.19      0.00
    4  -12    9     -0.22      0.00
    5  -11    9     -0.22      0.00
    6  -11    9     -0.01      0.00
   -8  -10    9      0.04      0.00
    7  -10    9     -0.21      0.00
   -9   -9    9     -0.11      0.00
    8   -8    9     -0.86      0.00
  -10   -7    9      0.53      0.00
    9   -6    9     -0.44      0.00
  -11   -5    9      0.17      0.00
    9   -5    9     -0.03      0.00
  -12   -3    9      0.62      0.00
  -12   -2    9     -0.34      0.00
    9    1    9      0.07      0.00
  -12    2    9      0.15      0.00
  -12    3    9     -0.39      0.00
    8    4    9     -0.27      0.00
  -11    5    9     -0.13      0.00
  -10    7    9     -0.09      0.00
    6    7    9      0.14      0.00
    5    8    9      0.35      0.00
    4    9    9     -0.16      0.00
   -7   10    9     -0.32      0.00
   -6   10    9     -0.80      0.00
    2   10    9     -0.34      0.00
   -4   11    9      0.25      0.00
   -3   11    9      0.23      0.00
   -2   11    9      0.13      0.00
   -1   11    9     -0.00      0.00
   -1  -13   10     -0.07      0.00
    0  -13   10     -0.24      0.00
   -4  -12   10      0.03      0.00
    3  -12   10      0.01      0.00
   -6  -11   10     -0.33      0.00
    5  -11   10     -0.18      0.00
    6  -10   10     -0.08      0.00
    7   -9   10      0.25      0.00
  -10   -7   10      0.24      0.00
    8   -7   10      0.56      0.00
  -11   -5   10      0.17      0.00
    9   -4   10      0.21      0.00
    9   -3   10     -0.54      0.00
  -12   -2   10     -0.83      0.00
    9   -2   10      0.50      0.00
  -12   -1   10      0.03      0.00
    9   -1   10     -0.20      0.00
  -12    2   10     -0.01      0.00
    8    3   10     -0.48      0.00
  -11    4   10      0.06      0.00
  -11    5   10     -0.05      0.00
    7    5   10      0.41      0.00
  -10    6   10      0.15      0.00
    6    6   10      0.02      0.00
    5    7   10      0.20      0.00
   -9    8   10      0.14      0.00
    4    8   10      0.47      0.00
    3    9   10     -0.19      0.00
   -6   10   10     -0.75      0.00
   -1   10   10     -0.58      0.00
    0   10   10     -0.05      0.00
    1   10   10     -0.16      0.00
   -4  -12   11     -0.10      0.00
   -3  -12   11      0.35      0.00
   -2  -12   11      0.17      0.00
    2  -12   11      0.43      0.00
    3  -12   11     -0.12      0.00
   -6  -11   11     -0.19      0.00
    4  -11   11     -0.18      0.00
    5  -10   11      0.17      0.00
    7   -8   11     -0.26      0.00
  -10   -7   11      0.01      0.00
    8   -6   11     -0.20      0.00
  -11   -5   11      0.09      0.00
    8   -5   11      0.11      0.00
    8   -4   11      0.20      0.00
    8    1   11      0.16      0.00
  -11    3   11     -0.22      0.00
  -11    4   11      0.11      0.00
  -10    6   11     -0.02      0.00
    5    6   11     -0.03      0.00
   -9    7   11      0.08      0.00
    4    7   11      0.08      0.00
   -8    8   11     -0.08      0.00
    3    8   11      0.36      0.00
   -7    9   11      0.34      0.00
   -4   10   11      0.48      0.00
   -3   10   11      0.03      0.00
   -2   10   11     -0.41      0.00
   -1   10   11     -0.08      0.00
   -3  -12   12      0.22      0.00
   -2  -12   12     -0.02      0.00
   -1  -12   12     -0.23      0.00
    0  -12   12      0.11      0.00
    1  -12   12      0.44      0.00
   -5  -11   12      0.40      0.00
    3  -11   12     -0.04      0.00
   -7  -10   12      0.22      0.00
    5  -10   12     -0.08      0.00
   -8   -9   12     -0.07      0.00
   -9   -8   12     -0.18      0.00
    7   -7   12      0.21      0.00
  -10   -6   12     -0.01      0.00
    7   -6   12     -0.13      0.00
  -11   -4   12      0.03      0.00
    7   -4   12      0.23      0.00
  -11   -3   12      0.16      0.00
    8   -3   12     -0.37      0.00
  -11   -2   12     -0.40      0.00
    8   -2   12      0.53      0.00
    7    1   12     -0.01      0.00
  -11    2   12     -0.46      0.00
    7    2   12     -0.02      0.00
  -11    3   12      0.10      0.00
    6    4   12     -0.02      0.00
  -10    5   12      0.07      0.00
   -9    6   12     -0.01      0.00
    4    6   12     -0.18      0.00
   -8    7   12      0.10      0.00
    3    7   12     -0.01      0.00
   -5    9   12     -0.09      0.00
   -4    9   12     -0.01      0.00
   -3    9   12      0.11      0.00
   -2    9   12     -0.18      0.00
   -1    9   12     -0.36      0.00
    0    9   12     -0.37      0.00
    4  -10   13      0.03      0.00
    5   -9   13      0.36      0.00
   -9   -7   13      0.34      0.00
    6   -7   13      0.19      0.00
  -10   -5   13      0.04      0.00
    7   -5   13      0.03      0.00
    7   -4   13      0.04      0.00
  -11   -3   13      0.12      0.00
  -11   -2   13     -0.47      0.00
    7   -2   13      0.38      0.00
    7   -1   13      0.15      0.00
    7    0   13     -0.26      0.00
  -11    1   13     -0.06      0.00
  -11    2   13     -0.31      0.00
    6    2   13      0.03      0.00
  -10    4   13     -0.56      0.00
    5    4   13     -0.13      0.00
   -9    5   13      0.48      0.00
   -9    6   13      0.00      0.00
   -8    6   13     -0.41      0.00
   -8    7   13      0.22      0.00
    2    7   13     -0.06      0.00
   -6    8   13     -0.37      0.00
   -5    8   13     -0.28      0.00
   -4    8   13     -0.24      0.00
   -1    8   13      0.46      0.00
    0    8   13      0.03      0.00
   -3  -11   14     -0.03      0.00
   -2  -11   14     -0.23      0.00
   -1  -11   14      0.01      0.00
    0  -11   14      0.05      0.00
    1  -11   14      0.09      0.00
   -5  -10   14     -0.08      0.00
    3  -10   14      0.15      0.00
   -7   -9   14      0.23      0.00
    4   -9   14     -0.03      0.00
   -8   -8   14      0.50      0.00
    5   -8   14     -0.14      0.00
    5   -7   14     -0.32      0.00
   -9   -6   14     -0.22      0.00
    6   -6   14     -0.06      0.00
    6   -5   14      0.06      0.00
  -10   -4   14     -0.15      0.00
    6   -4   14      0.08      0.00
  -10   -3   14      0.34      0.00
    6   -1   14      0.27      0.00
    6    0   14     -0.07      0.00
    6    1   14     -0.04      0.00
  -10    2   14      0.00      0.00
    5    2   14      0.20      0.00
  -10    3   14      0.01      0.00
    5    3   14     -0.37      0.00
   -9    4   14      0.08      0.00
    4    4   14     -0.47      0.00
   -9    5   14      0.40      0.00
   -8    6   14     -0.31      0.00
   -6    7   14      0.03      0.00
   -5    7   14      0.03      0.00
    1    7   14     -0.22      0.00
   -4    8   14     -0.35      0.00
   -3    8   14     -0.58      0.00
   -2    8   14      0.15      0.00
   -4  -10   15      0.04      0.00
   -3  -10   15     -0.07      0.00
   -2  -10   15      0.17      0.00
   -1  -10   15     -0.06      0.00
    1  -10   15      0.08      0.00
   -6   -9   15      0.00      0.00
    3   -9   15     -0.35      0.00
   -7   -8   15     -0.26      0.00
    4   -8   15      0.44      0.00
   -8   -7   15     -0.36      0.00
   -2   -7   15     -0.36      0.00
    4   -7   15     -0.68      0.00
   -8   -6   15      0.36      0.00
    5   -6   15      0.15      0.00
   -9   -5   15      0.04      0.00
    5   -5   15     -0.06      0.00
   -9   -4   15     -0.22      0.00
  -10   -3   15      0.16      0.00
  -10   -2   15     -0.48      0.00
  -10   -1   15      0.37      0.00
  -10    0   15      0.04      0.00
  -10    1   15      0.08      0.00
    3    1   15     -0.67      0.00
    5    1   15      0.17      0.00
    4    2   15      0.44      0.00
   -9    3   15      0.38      0.00
    4    3   15     -0.22      0.00
    3    4   15     -0.51      0.00
   -8    5   15     -0.33      0.00
   -6    6   15     -0.00      0.00
   -5    6   15     -0.41      0.00
    1    6   15     -0.12      0.00
   -4    7   15      0.62      0.00
   -3    7   15     -0.12      0.00
   -2    7   15     -0.46      0.00
   -5   -9   16     -0.10      0.00
   -4   -9   16     -0.14      0.00
   -3   -9   16      0.09      0.00
   -2   -9   16      0.16      0.00
   -1   -9   16      0.18      0.00
    0   -9   16     -0.32      0.00
    1   -9   16     -0.38      0.00
    2   -8   16      0.28      0.00
   -7   -7   16      0.02      0.00
   -2   -7   16      0.00      0.00
    3   -7   16     -0.26      0.00
   -8   -6   16      0.32      0.00
    4   -6   16      0.24      0.00
   -8   -5   16     -0.29      0.00
    4   -5   16     -0.09      0.00
   -9   -4   16      0.04      0.00
   -9   -3   16      0.17      0.00
   -9   -2   16     -0.05      0.00
    4    0   16     -0.34      0.00
    4    1   16      0.36      0.00
   -9    2   16     -0.16      0.00
    3    2   16      0.53      0.00
    2    3   16      0.53      0.00
   -6    5   16      0.35      0.00
   -5    5   16      0.38      0.00
   -4    5   16     -0.19      0.00
   -4    6   16      0.26      0.00
   -3    6   16      0.77      0.00
   -2    6   16      0.27      0.00
   -2   -9   17      0.09      0.00
   -5   -8   17      0.31      0.00
   -4   -8   17      0.37      0.00
   -3   -8   17      0.01      0.00
   -2   -8   17     -0.37      0.00
   -1   -8   17     -0.00      0.00
    0   -8   17      0.68      0.00
    1   -8   17      0.27      0.00
   -6   -7   17     -0.48      0.00
    1   -7   17     -0.56      0.00
    2   -7   17      0.14      0.00
   -7   -6   17      0.35      0.00
   -6   -6   17      0.32      0.00
    2   -6   17     -0.30      0.00
   -7   -5   17     -0.52      0.00
    3   -5   17      0.14      0.00
   -8   -4   17      0.18      0.00
   -8   -3   17     -0.50      0.00
    3   -1   17      0.20      0.00
   -8    0   17      0.64      0.00
    3    0   17     -0.34      0.00
    2    1   17     -0.39      0.00
   -8    2   17      0.08      0.00
    1    2   17     -0.19      0.00
    2    2   17      0.22      0.00
   -7    3   17      0.43      0.00
    1    3   17      0.01      0.00
   -6    4   17     -0.52      0.00
    0    4   17      0.19      0.00
   -4   -7   18     -0.55      0.00
   -3   -7   18     -0.16      0.00
   -2   -7   18      0.26      0.00
   -1   -7   18     -0.30      0.00
    0   -7   18     -0.81      0.00
   -6   -6   18      0.15      0.00
    0   -6   18      0.88      0.00
    1   -6   18      0.34      0.00
    1   -5   18     -0.39      0.00
   -7   -4   18      0.08      0.00
    2   -4   18      0.08      0.00
   -7   -3   18     -0.02      0.00
    2   -3   18     -0.16      0.00
    2   -2   18      0.15      0.00
   -7   -1   18      0.11      0.00
    1   -1   18      0.39      0.00
    2   -1   18     -0.00      0.00
   -7    0   18      0.19      0.00
   -6    0   18      0.01      0.00
    1    0   18     -0.29      0.00
   -7    1   18     -0.27      0.00
   -6    1   18     -0.38      0.00
    0    1   18      0.26      0.00
    1    1   18      0.11      0.00
   -6    2   18     -0.11      0.00
   -5    2   18      0.34      0.00
   -1    2   18      0.09      0.00
    0    2   18      0.01      0.00
   -5    3   18     -0.21      0.00
   -4    3   18     -0.05      0.00
   -3    3   18      0.37      0.00
   -2    3   18      0.01      0.00
   -4   -5   19      0.07      0.00
   -1   -5   19     -0.24      0.00
   -5   -4   19      0.20      0.00
    0   -4   19      0.07      0.00
   -6   -3   19      0.15      0.00
   -5   -3   19     -0.05      0.00
   -4   -3   19      0.30      0.00
   -1   -3   19      0.18      0.00
    0   -3   19      0.13      0.00
   -6   -2   19     -0.34      0.00
   -5   -2   19     -0.14      0.00
   -4   -2   19     -0.50      0.00
   -3   -2   19     -0.64      0.00
   -2   -2   19      0.00      0.00
   -1   -2   19     -0.21      0.00
    0   -2   19     -0.38      0.00
   -6   -1   19      0.57      0.00
   -5   -1   19      0.35      0.00
   -4   -1   19      0.22      0.00
   -3   -1   19      0.53      0.00
   -2   -1   19     -0.03      0.00
   -1   -1   19      0.00      0.00
    0   -1   19      0.44      0.00
   -5    0   19     -0.67      0.00
   -4    0   19     -0.38      0.00
   -3    0   19     -0.49      0.00
   -2    0   19     -0.06      0.00
   -1    0   19      0.00      0.00
   -4    1   19      0.68      0.00
   -3    1   19      0.71      0.00
   -2    1   19      0.35      0.00
    0    0    0      0.00      0.00
# SQUEEZE RESULTS (Version = 141217)
# Note: Data are Listed for all Voids in the P1 Unit Cell
# i.e. Centre of Gravity, Solvent Accessible Volume,
# Recovered number of Electrons in the Void and
# Details about the Squeezed Material
loop_
  _platon_squeeze_void_nr
  _platon_squeeze_void_average_x
  _platon_squeeze_void_average_y
  _platon_squeeze_void_average_z
  _platon_squeeze_void_volume
  _platon_squeeze_void_count_electrons
  _platon_squeeze_void_content
   1 -0.000  0.500 -0.000       233        44 ' '
# Missing Reflections Below sin(th)/lambda = 0.25
loop_
  _platon_missing_refln_index_h
  _platon_missing_refln_index_k
  _platon_missing_refln_index_l
  _platon_missing_refln_theta
    1    0    0     2.158
   -1    1    0     2.748
    0    1    0     1.936
    1    1    0     3.044
    1    2    0     4.626
   -1   -1    1     2.957
    0   -1    1     2.175
    1   -1    1     3.169
   -1    0    1     2.270
    0    0    1     1.412
    1    0    1     2.857
   -1    1    1     3.010
    0    1    1     2.600
   -2   -2    2     5.923
   -2   -1    2     4.908
    0   -1    2     3.116
   -1    0    2     3.105
    0    0    2     2.826
   -1    1    2     3.817
   -2    0    3     5.257
_platon_squeeze_void_probe_radius                  1.20
_platon_squeeze_details
)
TITL rp-z34_a.res in P-1
CELL    9.7530   10.7232   15.0866     99.56    103.46     93.42
SPGR P-1
# Solvent Accessible Volume =       234
# Electrons Found in S.A.V. =        43
# Note: Atoms in Void are Labelled as Cxxx and Qxxx for all Others
C101 0.065 0.470 0.018 !       2.50 eA-3
C102 0.237 0.339 0.128 !       2.22 eA-3
Q103 0.687 0.811 0.094 !       2.17 eA-3
C104 0.082 0.392 0.077 !       2.13 eA-3
Q105 0.690 0.954 0.374 !       1.18 eA-3
Q106 0.559 0.733 0.122 !       1.12 eA-3
Q107 0.797 0.010 0.438 !       1.00 eA-3
Q108 0.620 0.822 0.158 !       0.78 eA-3
Q109 0.599 0.836 0.127 !       0.76 eA-3
Q110 0.236 0.896 0.075 !       0.73 eA-3
Q111 0.769 0.048 0.358 !       0.61 eA-3
Q112 0.786 0.966 0.372 !       0.59 eA-3
Q113 0.963 0.776 0.438 !       0.59 eA-3
Q114 0.051 0.715 0.404 !       0.56 eA-3
Q115 0.102 0.969 0.093 !       0.54 eA-3
Q116 0.059 0.534 0.471 !       0.52 eA-3
)
;
_shelx_fab_checksum              91329
loop_
_space_group_symop_operation_xyz
'x, y, z'
'-x, -y, -z'
loop_
_atom_site_label
_atom_site_type_symbol
_atom_site_fract_x
_atom_site_fract_y
_atom_site_fract_z
_atom_site_U_iso_or_equiv
_atom_site_adp_type
_atom_site_occupancy
_atom_site_site_symmetry_order
_atom_site_calc_flag
_atom_site_refinement_flags_posn
_atom_site_refinement_flags_adp
_atom_site_refinement_flags_occupancy
_atom_site_disorder_assembly
_atom_site_disorder_group
Sn1 Sn 0.000000 0.500000 0.500000 0.03621(11) Uani 1 2 d S . P . .
I1 I -0.76098(4) 1.01453(4) 0.61848(3) 0.07025(14) Uani 1 1 d . . . . .
I2 I 0.60545(5) 0.81428(5) 1.12501(3) 0.1038(2) Uani 1 1 d . . . . .
Cl1 Cl -0.1017(3) 0.0410(2) 0.90431(13) 0.1234(8) Uani 1 1 d . . . . .
O1 O -0.0714(3) 0.3654(3) 0.5694(2) 0.0507(7) Uani 1 1 d . . . . .
N1 N 0.2009(3) 0.4675(3) 0.5712(2) 0.0393(7) Uani 1 1 d . . . . .
N2 N -0.0070(3) 0.6472(3) 0.6093(2) 0.0400(7) Uani 1 1 d . . . . .
O2 O -0.2502(4) 0.4507(4) 0.6159(3) 0.0731(10) Uani 1 1 d . . . . .
C11 C -0.3642(4) 0.7798(4) 0.5699(3) 0.0421(9) Uani 1 1 d . . . . .
C10 C -0.2488(4) 0.7036(4) 0.5476(3) 0.0401(8) Uani 1 1 d . . . . .
C9 C -0.1215(4) 0.7131(4) 0.6158(3) 0.0427(9) Uani 1 1 d . . . . .
C4 C 0.2673(4) 0.5234(4) 0.6606(3) 0.0430(9) Uani 1 1 d . . . . .
C14 C -0.5872(5) 0.9150(4) 0.6014(3) 0.0455(9) Uani 1 1 d . . . . .
C1 C 0.2820(4) 0.3767(4) 0.5401(3) 0.0417(9) Uani 1 1 d . . . . .
C12 C -0.3457(4) 0.9111(4) 0.5952(3) 0.0451(9) Uani 1 1 d . . . . .
H12 H -0.257531 0.954361 0.601301 0.054 Uiso 1 1 calc R U . . .
C5 C 0.2190(4) 0.6198(4) 0.7166(3) 0.0433(9) Uani 1 1 d . . . . .
C17 C 0.3098(4) 0.6657(4) 0.8118(3) 0.0480(10) Uani 1 1 d . . . . .
C13 C -0.4566(5) 0.9789(4) 0.6115(3) 0.0497(10) Uani 1 1 d . . . . .
H13 H -0.442842 1.066981 0.629120 0.060 Uiso 1 1 calc R U . . .
C6 C 0.0918(4) 0.6755(4) 0.6925(3) 0.0435(9) Uani 1 1 d . . . . .
C8 C -0.0915(5) 0.7878(4) 0.7069(3) 0.0535(11) Uani 1 1 d . . . . .
H8 H -0.151275 0.841504 0.730369 0.064 Uiso 1 1 calc R U . . .
C16 C -0.4975(5) 0.7176(4) 0.5628(3) 0.0521(11) Uani 1 1 d . . . . .
H16 H -0.511570 0.629381 0.547230 0.063 Uiso 1 1 calc R U . . .
C3 C 0.3963(5) 0.4654(4) 0.6858(3) 0.0538(11) Uani 1 1 d . . . . .
H3 H 0.462714 0.485484 0.742611 0.065 Uiso 1 1 calc R U . . .
C2 C 0.4047(5) 0.3782(4) 0.6140(3) 0.0505(10) Uani 1 1 d . . . . .
H2 H 0.477982 0.326907 0.612142 0.061 Uiso 1 1 calc R U . . .
C24 C -0.1436(5) 0.2918(4) 0.6908(3) 0.0539(11) Uani 1 1 d . . . . .
C15 C -0.6075(5) 0.7844(4) 0.5784(3) 0.0538(11) Uani 1 1 d . . . . .
H15 H -0.695598 0.741693 0.573536 0.065 Uiso 1 1 calc R U . . .
C7 C 0.0381(5) 0.7671(4) 0.7528(3) 0.0552(11) Uani 1 1 d . . . . .
H7 H 0.084802 0.805425 0.813130 0.066 Uiso 1 1 calc R U . . .
C23 C -0.1589(5) 0.3775(4) 0.6207(3) 0.0526(11) Uani 1 1 d . . . . .
C18 C 0.3904(6) 0.7812(5) 0.8351(4) 0.0727(15) Uani 1 1 d . . . . .
H18 H 0.388702 0.831884 0.790529 0.087 Uiso 1 1 calc R U . . .
C20 C 0.4785(6) 0.7516(6) 0.9895(3) 0.0658(14) Uani 1 1 d . . . . .
C25 C -0.0402(6) 0.2120(5) 0.7012(4) 0.0702(14) Uani 1 1 d . . . . .
H25 H 0.022907 0.209486 0.663446 0.084 Uiso 1 1 calc R U . . .
C22 C 0.3159(6) 0.5936(5) 0.8798(3) 0.0643(13) Uani 1 1 d . . . . .
H22 H 0.263332 0.514518 0.865891 0.077 Uiso 1 1 calc R U . . .
C21 C 0.4000(6) 0.6374(6) 0.9694(4) 0.0744(15) Uani 1 1 d . . . . .
H21 H 0.402018 0.588529 1.015103 0.089 Uiso 1 1 calc R U . . .
C27 C -0.1180(7) 0.1375(5) 0.8209(4) 0.0738(16) Uani 1 1 d . . . . .
C29 C -0.2379(6) 0.2923(6) 0.7458(4) 0.0713(14) Uani 1 1 d . . . . .
H29 H -0.310901 0.344615 0.738755 0.086 Uiso 1 1 calc R U . . .
C28 C -0.2245(7) 0.2151(6) 0.8118(4) 0.0828(17) Uani 1 1 d . . . . .
H28 H -0.287498 0.216127 0.849557 0.099 Uiso 1 1 calc R U . . .
C26 C -0.0268(7) 0.1350(6) 0.7662(4) 0.0802(17) Uani 1 1 d . . . . .
H26 H 0.044977 0.081336 0.772363 0.096 Uiso 1 1 calc R U . . .
C19 C 0.4742(7) 0.8234(6) 0.9242(4) 0.0834(18) Uani 1 1 d . . . . .
H19 H 0.527889 0.901976 0.938778 0.100 Uiso 1 1 calc R U . . .
loop_
_atom_site_aniso_label
_atom_site_aniso_U_11
_atom_site_aniso_U_22
_atom_site_aniso_U_33
_atom_site_aniso_U_23
_atom_site_aniso_U_13
_atom_site_aniso_U_12
Sn1 0.0329(2) 0.0381(2) 0.0355(2) 0.00442(14) 0.00457(15) 0.00860(14)
I1 0.0640(2) 0.0847(3) 0.0688(2) 0.01184(18) 0.02369(18) 0.03893(19)
I2 0.0931(3) 0.1406(4) 0.0517(2) -0.0028(2) -0.0192(2) 0.0105(3)
Cl1 0.199(2) 0.1067(14) 0.0800(12) 0.0485(10) 0.0375(14) 0.0346(14)
O1 0.0534(18) 0.0507(17) 0.0527(17) 0.0133(13) 0.0190(15) 0.0083(13)
N1 0.0371(17) 0.0407(17) 0.0375(17) 0.0049(13) 0.0034(14) 0.0126(13)
N2 0.0347(17) 0.0415(17) 0.0411(18) 0.0027(14) 0.0059(14) 0.0106(13)
O2 0.060(2) 0.081(2) 0.091(3) 0.034(2) 0.027(2) 0.0260(19)
C11 0.039(2) 0.044(2) 0.043(2) 0.0083(17) 0.0093(17) 0.0109(17)
C10 0.039(2) 0.039(2) 0.043(2) 0.0074(16) 0.0090(17) 0.0111(16)
C9 0.044(2) 0.043(2) 0.041(2) 0.0061(17) 0.0084(18) 0.0138(17)
C4 0.037(2) 0.045(2) 0.044(2) 0.0095(17) 0.0033(17) 0.0100(16)
C14 0.045(2) 0.053(2) 0.039(2) 0.0031(17) 0.0123(18) 0.0189(18)
C1 0.034(2) 0.039(2) 0.052(2) 0.0089(17) 0.0078(17) 0.0086(15)
C12 0.040(2) 0.044(2) 0.049(2) 0.0055(18) 0.0075(18) 0.0062(17)
C5 0.045(2) 0.045(2) 0.036(2) 0.0035(16) 0.0038(17) 0.0100(17)
C17 0.046(2) 0.052(2) 0.040(2) 0.0017(18) 0.0014(19) 0.0156(19)
C13 0.055(3) 0.038(2) 0.051(2) 0.0014(18) 0.006(2) 0.0122(18)
C6 0.043(2) 0.046(2) 0.038(2) 0.0050(17) 0.0038(17) 0.0096(17)
C8 0.060(3) 0.056(3) 0.041(2) -0.0008(19) 0.006(2) 0.025(2)
C16 0.050(3) 0.041(2) 0.068(3) 0.007(2) 0.022(2) 0.0058(18)
C3 0.042(2) 0.060(3) 0.050(3) 0.004(2) -0.0055(19) 0.016(2)
C2 0.042(2) 0.054(2) 0.052(3) 0.006(2) 0.0044(19) 0.0166(19)
C24 0.051(3) 0.055(3) 0.052(3) 0.011(2) 0.007(2) 0.000(2)
C15 0.048(3) 0.055(3) 0.061(3) 0.007(2) 0.021(2) 0.004(2)
C7 0.062(3) 0.059(3) 0.035(2) -0.0027(19) -0.002(2) 0.021(2)
C23 0.048(3) 0.050(2) 0.058(3) 0.012(2) 0.006(2) 0.005(2)
C18 0.090(4) 0.062(3) 0.051(3) 0.009(2) -0.010(3) -0.003(3)
C20 0.059(3) 0.083(4) 0.042(3) -0.001(2) -0.007(2) 0.013(3)
C25 0.070(4) 0.070(3) 0.084(4) 0.024(3) 0.036(3) 0.020(3)
C22 0.065(3) 0.072(3) 0.051(3) 0.013(2) 0.003(2) 0.007(3)
C21 0.074(4) 0.097(4) 0.048(3) 0.019(3) 0.002(3) 0.012(3)
C27 0.103(5) 0.066(3) 0.052(3) 0.020(2) 0.014(3) 0.009(3)
C29 0.060(3) 0.090(4) 0.068(3) 0.023(3) 0.014(3) 0.024(3)
C28 0.088(4) 0.102(5) 0.071(4) 0.024(3) 0.040(3) 0.008(4)
C26 0.087(4) 0.072(4) 0.088(4) 0.027(3) 0.021(4) 0.032(3)
C19 0.096(5) 0.071(4) 0.060(3) 0.001(3) -0.016(3) -0.004(3)
loop_
_atom_type_symbol
_atom_type_description
_atom_type_scat_dispersion_real
_atom_type_scat_dispersion_imag
_atom_type_scat_source
C C 0.0033 0.0016 'International Tables Vol C Tables 4.2.6.8 and 6.1.1.4'
H H 0.0000 0.0000 'International Tables Vol C Tables 4.2.6.8 and 6.1.1.4'
Cl Cl 0.1484 0.1585 'International Tables Vol C Tables 4.2.6.8 and 6.1.1.4'
I I -0.4742 1.8119 'International Tables Vol C Tables 4.2.6.8 and 6.1.1.4'
N N 0.0061 0.0033 'International Tables Vol C Tables 4.2.6.8 and 6.1.1.4'
O O 0.0106 0.0060 'International Tables Vol C Tables 4.2.6.8 and 6.1.1.4'
Sn Sn -0.6537 1.4246 'International Tables Vol C Tables 4.2.6.8 and 6.1.1.4'
loop_
_geom_angle_atom_site_label_1
_geom_angle_atom_site_label_2
_geom_angle_atom_site_label_3
_geom_angle
_geom_angle_site_symmetry_1
_geom_angle_site_symmetry_3
_geom_angle_publ_flag
N1 Sn1 N1 180.0 2_566 . ?
N1 Sn1 O1 84.31(13) 2_566 2_566 ?
N1 Sn1 O1 95.69(13) . 2_566 ?
N1 Sn1 O1 95.69(13) 2_566 . ?
N1 Sn1 O1 84.31(13) . . ?
O1 Sn1 O1 180.00(10) 2_566 . ?
N1 Sn1 N2 89.74(12) 2_566 . ?
N1 Sn1 N2 90.26(12) . . ?
O1 Sn1 N2 89.50(12) 2_566 . ?
O1 Sn1 N2 90.50(12) . . ?
N1 Sn1 N2 90.26(12) 2_566 2_566 ?
N1 Sn1 N2 89.74(12) . 2_566 ?
O1 Sn1 N2 90.50(12) 2_566 2_566 ?
O1 Sn1 N2 89.50(12) . 2_566 ?
N2 Sn1 N2 180.00(13) . 2_566 ?
C23 O1 Sn1 128.0(3) . . ?
C4 N1 C1 108.8(3) . . ?
C4 N1 Sn1 125.2(3) . . ?
C1 N1 Sn1 125.7(3) . . ?
C6 N2 C9 108.8(3) . . ?
C6 N2 Sn1 124.6(3) . . ?
C9 N2 Sn1 125.5(3) . . ?
C12 C11 C16 118.1(4) . . ?
C12 C11 C10 122.6(4) . . ?
C16 C11 C10 119.3(4) . . ?
C9 C10 C1 125.8(4) . 2_566 ?
C9 C10 C11 118.3(3) . . ?
C1 C10 C11 115.8(4) 2_566 . ?
N2 C9 C10 126.5(4) . . ?
N2 C9 C8 107.7(4) . . ?
C10 C9 C8 125.8(4) . . ?
N1 C4 C5 126.4(4) . . ?
N1 C4 C3 107.2(4) . . ?
C5 C4 C3 126.4(4) . . ?
C13 C14 C15 120.8(4) . . ?
C13 C14 I1 120.7(3) . . ?
C15 C14 I1 118.5(3) . . ?
N1 C1 C10 126.3(4) . 2_566 ?
N1 C1 C2 107.2(3) . . ?
C10 C1 C2 126.5(4) 2_566 . ?
C13 C12 C11 121.0(4) . . ?
C13 C12 H12 119.5 . . ?
C11 C12 H12 119.5 . . ?
C4 C5 C6 126.5(4) . . ?
C4 C5 C17 116.6(4) . . ?
C6 C5 C17 116.9(3) . . ?
C18 C17 C22 117.6(4) . . ?
C18 C17 C5 121.4(4) . . ?
C22 C17 C5 121.0(4) . . ?
C14 C13 C12 119.4(4) . . ?
C14 C13 H13 120.3 . . ?
C12 C13 H13 120.3 . . ?
N2 C6 C5 126.5(4) . . ?
N2 C6 C7 107.5(3) . . ?
C5 C6 C7 126.0(4) . . ?
C7 C8 C9 108.0(4) . . ?
C7 C8 H8 126.0 . . ?
C9 C8 H8 126.0 . . ?
C15 C16 C11 121.1(4) . . ?
C15 C16 H16 119.4 . . ?
C11 C16 H16 119.4 . . ?
C2 C3 C4 108.4(4) . . ?
C2 C3 H3 125.8 . . ?
C4 C3 H3 125.8 . . ?
C3 C2 C1 108.4(4) . . ?
C3 C2 H2 125.8 . . ?
C1 C2 H2 125.8 . . ?
C25 C24 C29 118.5(5) . . ?
C25 C24 C23 122.2(5) . . ?
C29 C24 C23 119.3(5) . . ?
C16 C15 C14 119.6(4) . . ?
C16 C15 H15 120.2 . . ?
C14 C15 H15 120.2 . . ?
C8 C7 C6 108.0(4) . . ?
C8 C7 H7 126.0 . . ?
C6 C7 H7 126.0 . . ?
O2 C23 O1 125.2(4) . . ?
O2 C23 C24 120.0(5) . . ?
O1 C23 C24 114.8(4) . . ?
C17 C18 C19 120.9(5) . . ?
C17 C18 H18 119.5 . . ?
C19 C18 H18 119.5 . . ?
C19 C20 C21 120.4(5) . . ?
C19 C20 I2 120.9(4) . . ?
C21 C20 I2 118.7(4) . . ?
C24 C25 C26 121.5(5) . . ?
C24 C25 H25 119.2 . . ?
C26 C25 H25 119.2 . . ?
C17 C22 C21 120.9(5) . . ?
C17 C22 H22 119.5 . . ?
C21 C22 H22 119.5 . . ?
C20 C21 C22 119.6(5) . . ?
C20 C21 H21 120.2 . . ?
C22 C21 H21 120.2 . . ?
C26 C27 C28 120.6(5) . . ?
C26 C27 Cl1 120.2(5) . . ?
C28 C27 Cl1 119.2(5) . . ?
C24 C29 C28 120.2(5) . . ?
C24 C29 H29 119.9 . . ?
C28 C29 H29 119.9 . . ?
C27 C28 C29 119.5(5) . . ?
C27 C28 H28 120.2 . . ?
C29 C28 H28 120.2 . . ?
C27 C26 C25 119.6(5) . . ?
C27 C26 H26 120.2 . . ?
C25 C26 H26 120.2 . . ?
C20 C19 C18 120.5(6) . . ?
C20 C19 H19 119.8 . . ?
C18 C19 H19 119.8 . . ?
loop_
_geom_bond_atom_site_label_1
_geom_bond_atom_site_label_2
_geom_bond_distance
_geom_bond_site_symmetry_2
_geom_bond_publ_flag
Sn1 N1 2.084(3) 2_566 ?
Sn1 N1 2.084(3) . ?
Sn1 O1 2.094(3) 2_566 ?
Sn1 O1 2.094(3) . ?
Sn1 N2 2.101(3) . ?
Sn1 N2 2.101(3) 2_566 ?
I1 C14 2.099(4) . ?
I2 C20 2.105(5) . ?
Cl1 C27 1.743(5) . ?
O1 C23 1.277(5) . ?
N1 C4 1.369(5) . ?
N1 C1 1.380(5) . ?
N2 C6 1.368(5) . ?
N2 C9 1.370(5) . ?
O2 C23 1.219(5) . ?
C11 C12 1.385(6) . ?
C11 C16 1.398(6) . ?
C11 C10 1.498(5) . ?
C10 C9 1.403(6) . ?
C10 C1 1.409(6) 2_566 ?
C9 C8 1.426(6) . ?
C4 C5 1.400(6) . ?
C4 C3 1.437(6) . ?
C14 C13 1.373(6) . ?
C14 C15 1.376(6) . ?
C1 C2 1.431(6) . ?
C12 C13 1.385(6) . ?
C12 H12 0.9300 . ?
C5 C6 1.407(6) . ?
C5 C17 1.486(6) . ?
C17 C18 1.374(7) . ?
C17 C22 1.377(7) . ?
C13 H13 0.9300 . ?
C6 C7 1.432(6) . ?
C8 C7 1.344(6) . ?
C8 H8 0.9300 . ?
C16 C15 1.369(6) . ?
C16 H16 0.9300 . ?
C3 C2 1.329(6) . ?
C3 H3 0.9300 . ?
C2 H2 0.9300 . ?
C24 C25 1.360(7) . ?
C24 C29 1.374(7) . ?
C24 C23 1.500(6) . ?
C15 H15 0.9300 . ?
C7 H7 0.9300 . ?
C18 C19 1.386(7) . ?
C18 H18 0.9300 . ?
C20 C19 1.343(8) . ?
C20 C21 1.354(8) . ?
C25 C26 1.371(8) . ?
C25 H25 0.9300 . ?
C22 C21 1.395(7) . ?
C22 H22 0.9300 . ?
C21 H21 0.9300 . ?
C27 C26 1.346(8) . ?
C27 C28 1.365(9) . ?
C29 C28 1.385(8) . ?
C29 H29 0.9300 . ?
C28 H28 0.9300 . ?
C26 H26 0.9300 . ?
C19 H19 0.9300 . ?
