#------------------------------------------------------------------------------
#$Date: 2021-12-07 04:55:11 +0200 (Tue, 07 Dec 2021) $
#$Revision: 271162 $
#$URL: file:///home/coder/svn-repositories/cod/cif/7/24/36/7243658.cif $
#------------------------------------------------------------------------------
#
# This file is available in the Crystallography Open Database (COD),
# http://www.crystallography.net/
#
# All data on this site have been placed in the public domain by the
# contributors.
#
data_7243658
loop_
_publ_author_name
'Chen, Chen'
'Li, Dan'
'Cao, Guanyue'
'Qin, Zhonghe'
'Xu, Yi'
'Liu, Xiujun'
'Li, Qizhao'
'Xie, Yongshu'
'Li, Chengjie'
_publ_section_title
;
 Solvent-regulated biomorphs from the intense \p,\p-mediated assemblies of
 tetracenequinone fused porphyrin
;
_journal_issue                   43
_journal_name_full               CrystEngComm
_journal_page_first              7565
_journal_page_last               7569
_journal_paper_doi               10.1039/D1CE01173A
_journal_volume                  23
_journal_year                    2021
_chemical_formula_moiety         '0.998(C140.6 H117.831 N4 Ni O8)'
_chemical_formula_sum            'C140.3 H117.1 N4 Ni O8'
_chemical_formula_weight         2045.79
_chemical_name_systematic        Ni4TQ
_space_group_crystal_system      tetragonal
_space_group_IT_number           81
_space_group_name_Hall           'P -4'
_space_group_name_H-M_alt        'P -4'
_atom_sites_solution_hydrogens   geom
_atom_sites_solution_primary     dual
_audit_creation_date             2021-06-14
_audit_creation_method
;
Olex2 1.3
(compiled 2020.11.12 svn.r5f609507 for OlexSys, GUI svn.r6272)
;
_audit_update_record
;
2021-08-16 deposited with the CCDC.	2021-10-01 downloaded from the CCDC.
;
_cell_angle_alpha                90
_cell_angle_beta                 90
_cell_angle_gamma                90
_cell_formula_units_Z            2
_cell_length_a                   20.4751(3)
_cell_length_b                   20.4751(3)
_cell_length_c                   13.4593(10)
_cell_measurement_reflns_used    5584
_cell_measurement_temperature    100.00(10)
_cell_measurement_theta_max      67.9430
_cell_measurement_theta_min      3.0020
_cell_volume                     5642.5(4)
_computing_cell_refinement       'CrysAlisPro 1.171.40.82a (Rigaku OD, 2020)'
_computing_data_collection       'CrysAlisPro 1.171.40.82a (Rigaku OD, 2020)'
_computing_data_reduction        'CrysAlisPro 1.171.40.82a (Rigaku OD, 2020)'
_computing_molecular_graphics    'Olex2 1.3 (Dolomanov et al., 2009)'
_computing_publication_material  'Olex2 1.3 (Dolomanov et al., 2009)'
_computing_structure_refinement  'SHELXL 2014/7 (Sheldrick, 2015)'
_computing_structure_solution    'SHELXT 2014/5 (Sheldrick, 2014)'
_diffrn_ambient_environment      N~2~
_diffrn_ambient_temperature      100.00(10)
_diffrn_detector                 'Hybrid Pixel Array Detector'
_diffrn_detector_area_resol_mean 10.0000
_diffrn_detector_type            HyPix
_diffrn_measured_fraction_theta_full 0.983
_diffrn_measured_fraction_theta_max 0.946
_diffrn_measurement_details
;
List of Runs (angles in degrees, time in seconds):

  # Type    Start    End  Width  t~exp~   \w     \q     \k     \f   Frames
#--------------------------------------------------------------------------
  1  \w   -108.00 -11.00   0.50    0.05    --  -36.74 -47.00  -3.00  194
  2  \w     12.00  98.00   0.50    0.05    --   36.74-121.00 127.00  172
  3  \w   -167.00 -91.00   0.50    0.13    -- -100.00 -47.00  -3.00  152
  4  \w   -112.00 -35.00   0.50    0.13    -- -100.00 121.00-149.00  154
  5  \w   -157.00 -98.00   0.50    0.13    -- -100.00 -74.00-160.00  118
  6  \w   -121.00 -76.00   0.50    0.05    --  -36.74-179.00-150.00   90
  7  \w    -73.00 -48.00   0.50    0.05    --  -36.74-179.00   0.00   50
  8  \w    -19.00  65.00   0.50    0.05    --   36.74 -57.00 -60.00  168
  9  \w   -132.00 -99.00   0.50    0.13    -- -100.00  61.00   0.00   66
 10  \w    -55.00 -28.00   0.50    0.13    -- -100.00  61.00   0.00   54
 11  \w   -120.00 -90.00   0.50    0.13    -- -100.00-111.00   0.00   60
 12  \w     30.00  55.00   0.50    0.13    --  110.24 -94.00 -60.00   50
 13  \w     34.00  78.00   0.50    0.13    --  110.24 -94.00-180.00   88
 14  \w     27.00 111.00   0.50    0.13    --  110.24-111.00 150.00  168
 15  \w     28.00 112.00   0.50    0.13    --  110.24-111.00 -30.00  168
 16  \w     26.00 101.00   0.50    0.13    --  110.24 -94.00 -30.00  150
 17  \w     25.00 104.00   0.50    0.13    --  110.24 -94.00 150.00  158
;
_diffrn_measurement_device       'four-circle diffractometer'
_diffrn_measurement_device_type  'ROD, Synergy Custom system, HyPix'
_diffrn_measurement_method       '\w scans'
_diffrn_orient_matrix_type
'CrysAlisPro convention (1999,Acta A55,543-557)'
_diffrn_orient_matrix_UB_11      -0.0067455000
_diffrn_orient_matrix_UB_12      0.0147644000
_diffrn_orient_matrix_UB_13      0.1117787000
_diffrn_orient_matrix_UB_21      -0.0611860000
_diffrn_orient_matrix_UB_22      0.0415796000
_diffrn_orient_matrix_UB_23      -0.0213941000
_diffrn_orient_matrix_UB_31      -0.0433101000
_diffrn_orient_matrix_UB_32      -0.0608821000
_diffrn_orient_matrix_UB_33      0.0125763000
_diffrn_radiation_monochromator  mirror
_diffrn_radiation_probe          x-ray
_diffrn_radiation_type           'Cu K\a'
_diffrn_radiation_wavelength     1.54184
_diffrn_reflns_av_R_equivalents  0.0368
_diffrn_reflns_av_unetI/netI     0.0411
_diffrn_reflns_Laue_measured_fraction_full 0.983
_diffrn_reflns_Laue_measured_fraction_max 0.946
_diffrn_reflns_limit_h_max       18
_diffrn_reflns_limit_h_min       -24
_diffrn_reflns_limit_k_max       15
_diffrn_reflns_limit_k_min       -24
_diffrn_reflns_limit_l_max       16
_diffrn_reflns_limit_l_min       -16
_diffrn_reflns_number            23848
_diffrn_reflns_point_group_measured_fraction_full 0.872
_diffrn_reflns_point_group_measured_fraction_max 0.822
_diffrn_reflns_theta_full        67.684
_diffrn_reflns_theta_max         73.443
_diffrn_reflns_theta_min         2.158
_diffrn_source                   'Rotating-anode X-ray tube'
_diffrn_source_type              'Rigaku (Cu) X-ray Source'
_exptl_absorpt_coefficient_mu    0.729
_exptl_absorpt_correction_T_max  1.00000
_exptl_absorpt_correction_T_min  0.58260
_exptl_absorpt_correction_type   multi-scan
_exptl_absorpt_process_details
;
CrysAlisPro 1.171.40.82a (Rigaku Oxford Diffraction, 2020)
Empirical absorption correction using spherical harmonics,
implemented in SCALE3 ABSPACK scaling algorithm.
;
_exptl_crystal_colour            black
_exptl_crystal_colour_primary    black
_exptl_crystal_density_diffrn    1.204
_exptl_crystal_description       block
_exptl_crystal_F_000             2158
_exptl_crystal_size_max          0.2
_exptl_crystal_size_mid          0.2
_exptl_crystal_size_min          0.15
_refine_diff_density_max         1.046
_refine_diff_density_min         -0.258
_refine_diff_density_rms         0.062
_refine_ls_abs_structure_details
;
 Flack x determined using 2298 quotients [(I+)-(I-)]/[(I+)+(I-)]
 (Parsons, Flack and Wagner, Acta Cryst. B69 (2013) 249-259).
;
_refine_ls_abs_structure_Flack   0.50(5)
_refine_ls_extinction_method     none
_refine_ls_goodness_of_fit_ref   1.059
_refine_ls_hydrogen_treatment    constr
_refine_ls_matrix_type           full
_refine_ls_number_parameters     838
_refine_ls_number_reflns         9343
_refine_ls_number_restraints     992
_refine_ls_restrained_S_all      1.196
_refine_ls_R_factor_all          0.0909
_refine_ls_R_factor_gt           0.0708
_refine_ls_shift/su_max          0.000
_refine_ls_shift/su_mean         0.000
_refine_ls_structure_factor_coef Fsqd
_refine_ls_weighting_details
'w=1/[\s^2^(Fo^2^)+(0.1453P)^2^+0.4544P] where P=(Fo^2^+2Fc^2^)/3'
_refine_ls_weighting_scheme      calc
_refine_ls_wR_factor_gt          0.1993
_refine_ls_wR_factor_ref         0.2207
_reflns_Friedel_coverage         0.661
_reflns_Friedel_fraction_full    0.749
_reflns_Friedel_fraction_max     0.686
_reflns_number_gt                6673
_reflns_number_total             9343
_reflns_threshold_expression     'I > 2\s(I)'
_cod_data_source_file            d1ce01173a2.cif
_cod_data_source_block           ni
_cod_depositor_comments
'Adding full bibliography for 7243657--7243658.cif.'
_cod_original_cell_volume        5642.5(5)
_cod_original_formula_sum        'C140.30 H117.10 N4 Ni O8'
_cod_database_code               7243658
_shelx_shelxl_version_number     2014/7
_chemical_oxdiff_formula         C140H116N4NiO8
_shelx_space_group_comment
;
The symmetry employed for this shelxl refinement is uniquely defined
by the following loop, which should always be used as a source of
symmetry information in preference to the above space-group names.
They are only intended as comments.
;
_shelx_estimated_absorpt_t_max   0.898
_shelx_estimated_absorpt_t_min   0.868
_reflns_odcompleteness_completeness 98.76
_reflns_odcompleteness_iscentric 1
_reflns_odcompleteness_theta     66.49
_olex2_refinement_description
;
1. Fixed Uiso
 At 1.2 times of:
  All C(H) groups, All C(H,H) groups
 At 1.5 times of:
  All C(H,H,H) groups
2. Restrained distances
 C4-C2 = C4-C1
 1.57 with sigma of 0.02
 C024-C01A = C01W-C01A = C021-C01A
 1.57 with sigma of 0.02
 C4-C2
 1.6 with sigma of 0.02
 C4-C3
 1.57 with sigma of 0.02
 C4-C1
 1.6 with sigma of 0.02
 C4-C3 = C4-C2
 1.7 with sigma of 0.02
 C4-C3 = C4-C2 = C4-C1
 1.7 with sigma of 0.02
 C1-C2
 2.44 with sigma of 0.04
 C3-C1
 2.44 with sigma of 0.04
 C2A-C3A
 1.7 with sigma of 0.04
 C3-C2
 2.7 with sigma of 0.04
 C018-C12
 3 with sigma of 0.04
 C11-C12
 2.7 with sigma of 0.04
 C0-C12
 2.7 with sigma of 0.04
 C01S-C16
 2.7 with sigma of 0.04
 C16-C01Y
 2.7 with sigma of 0.04
 C01T-C01V
 2.7 with sigma of 0.04
 C01X-C01V
 2.7 with sigma of 0.04
 C14-C025
 2.6 with sigma of 0.04
 C7-C01V
 2.6 with sigma of 0.04
 C025-C022 \\sim C022-C01U \\sim C14-C022
 with sigma of 0.02
 C024-C01A \\sim C01W-C01A \\sim C021-C01A
 with sigma of 0.02
 C01J-C010 \\sim C01B-C010 \\sim C01B-C00G \\sim C00P-C00G \\sim C018-C00P
\\sim C01J-C018
 with sigma of 0.02
 C4-C2 \\sim C4-C1 \\sim C4-C3
 with sigma of 0.02
 C9-C10 \\sim C9-C10A
 with sigma of 0.02
 C8-C6 \\sim C8-C6A
 with sigma of 0.04
 C10-C5 \\sim C10A-C5A
 with sigma of 0.02
 C7-C6 \\sim C7A-C6A
 with sigma of 0.02
 C8-C7 \\sim C8-C7A
 with sigma of 0.02
 C6-C4 \\sim C6A-C4
 with sigma of 0.04
 C9-C5 \\sim C9-C5A
 with sigma of 0.04
 C10-C6 \\sim C10A-C6A
 with sigma of 0.04
 C7-C5 \\sim C7A-C5A
 with sigma of 0.04
 C10-C4 \\sim C10A-C4
 with sigma of 0.04
 C01Q-C6 \\sim C01Q-C6A
 with sigma of 0.04
 C6-C5 \\sim C6A-C5A
 with sigma of 0.02
 C7-C01Q \\sim C7A-C01Q
 with sigma of 0.02
 C5-C4 \\sim C5A-C4
 with sigma of 0.02
 C3-C2 \\sim C3A-C2A
 with sigma of 0.02
 C4-C2 \\sim C4-C2A
 with sigma of 0.02
 C1-C4 \\sim C1A-C4
 with sigma of 0.02
 C3-C4 \\sim C3A-C4
 with sigma of 0.04
 C4-C3A \\sim C4-C2A \\sim C4-C1A
 with sigma of 0.02
 C01X-C01Q \\sim C01S-C01Q \\sim C01V-C01Q
 with sigma of 0.02
 C5-C4 \\sim C5A-C2A
 with sigma of 0.02
 C01A-C01W \\sim C01A-C11
 with sigma of 0.02
 C01A-C021 \\sim C01A-C0
 with sigma of 0.02
 C01A-C024 \\sim C01A-C12
 with sigma of 0.02
 C01W-C01A \\sim C11-C01A \\sim C024-C01A \\sim C12-C01A \\sim C021-C01A \\sim
C01A-C0
 with sigma of 0.02
 C01U-C022 \\sim C15-C022
 with sigma of 0.02
 C14-C022 \\sim C14A-C022
 with sigma of 0.02
 C022-C025 \\sim C022-C13
 with sigma of 0.02
 C14-C022 \\sim C13-C022 \\sim C025-C022 \\sim C15-C022 \\sim C14A-C022 \\sim
C022-C01U
 with sigma of 0.02
 C01T-C01Q \\sim C01S-C01Q
 with sigma of 0.02
 C01S-C01Q \\sim C01Y-C01Q \\sim C16-C01Q
 with sigma of 0.02
 C01V-C01Q \\sim C01T-C01Q \\sim C01X-C01Q
 with sigma of 0.02
3. Uiso/Uaniso restraints and constraints
C00G \\sim C00P \\sim C01B \\sim C01J \\sim C010 \\sim C018: within 2A with
sigma of 0.04 and sigma for terminal atoms of 0.08 within 2A
Uanis(C01A) \\sim Ueq: with sigma of 0.1 and sigma for terminal atoms of 0.2
Uanis(C10) = Uanis(C10A)
Uanis(C4) = Uanis(C4A)
Uanis(C12) = Uanis(C024)
Uanis(C01S) = Uanis(C01T)
Uanis(C01X) = Uanis(C01Y)
Uanis(C01V) = Uanis(C16)
4. Rigid body (RIGU) restrains
 All non-hydrogen atoms
 with sigma for 1-2 distances of 0.004 and sigma for 1-3 distances of 0.004
5. Others
 Sof(C5A)=Sof(C6A)=Sof(H6A)=Sof(C7A)=Sof(H8B)=Sof(C10A)=Sof(H10A)=1-FVAR(1)
 Sof(C5)=Sof(C6)=Sof(H6)=Sof(C7)=Sof(H8A)=Sof(C10)=Sof(H10)=FVAR(1)
 Sof(C1A)=Sof(H1AB)=Sof(H1AC)=Sof(C2A)=Sof(C3A)=Sof(H3AA)=Sof(H3AB)=Sof(H3AC)=
 1-FVAR(2)
 Sof(C1)=Sof(H1A)=Sof(H1B)=Sof(H1C)=Sof(C2)=Sof(H2A)=Sof(H2B)=Sof(H2C)=Sof(C3)=
 Sof(H3A)=Sof(H3B)=Sof(H3C)=FVAR(2)
 Sof(C4)=1-FVAR(3)
 Sof(C4A)=FVAR(3)
 Sof(C11)=Sof(H11A)=Sof(H11B)=Sof(H11C)=Sof(C12)=Sof(H12A)=Sof(H12B)=Sof(H12C)=
 1-FVAR(4)
 Sof(C01W)=Sof(H01Z)=Sof(HB)=Sof(HC)=Sof(C021)=Sof(H02A)=Sof(H02B)=Sof(H02C)=
 FVAR(4)
 Sof(C13)=Sof(H13A)=Sof(H13B)=Sof(H13C)=Sof(C14A)=Sof(C15)=Sof(H15A)=Sof(H15B)=
 Sof(H15C)=1-FVAR(5)
 Sof(C01U)=Sof(H01Y)=Sof(H)=Sof(HA)=Sof(C14)=Sof(H14B)=Sof(H14C)=Sof(C025)=
 FVAR(5)
 Sof(C01Y)=Sof(H01M)=Sof(H01O)=Sof(H01Q)=1-FVAR(6)
 Sof(C01X)=Sof(H01J)=Sof(H01K)=Sof(H01L)=FVAR(6)
 Sof(C01S)=Sof(H01A)=Sof(H01B)=Sof(H01C)=FVAR(7)
 Sof(C01T)=Sof(H01D)=Sof(H01E)=Sof(H01F)=FVAR(8)
 Fixed Sof: H1AA(0.75) C01V(0.5) H01G(0.5) H01H(0.5) H01I(0.5) H4AA(0.5)
 H4AB(0.5) H4AC(0.5) C16(0.5) H16A(0.5) H16B(0.5) H16C(0.5) C0(0.5) H0A(0.5)
 H0B(0.5) H0C(0.5) H14A(0.8) H14D(0.75) H14E(0.5) H14F(0.5) C024(0.5) H02D(0.5)
 H02E(0.5) H02F(0.5) H02G(0.3) H02H(0.3) H02I(0.3)
6.a Aromatic/amide H refined with riding coordinates:
 C00M(H00M), C00O(H00O), C00R(H00R), C00U(H00U), C00Z(H00Z), C01N(H01N),
 C01P(H01P), C6(H6), C6A(H6A), C8(H8A), C8(H8B), C009(H009), C10(H10),
 C10A(H10A), C00C(H00C), C00P(H00P), C00Q(H00Q), C01B(H01R), C01C(H01S),
 C01E(H01T), C01I(H01U), C01J(H01V), C01M(H01W), C01O(H01X), C012(H012)
6.b Idealised Me refined as rotating group:
 C1(H1A,H1B,H1C), C1A(H1AA,H1AB,H1AC), C01S(H01A,H01B,H01C), C01T(H01D,H01E,
 H01F), C01V(H01G,H01H,H01I), C01X(H01J,H01K,H01L), C01Y(H01M,H01O,H01Q),
 C2(H2A,H2B,H2C), C3(H3A,H3B,H3C), C3A(H3AA,H3AB,H3AC), C4A(H4AA,H4AB,H4AC),
 C16(H16A,H16B,H16C), C0(H0A,H0B,H0C), C01U(H01Y,H,HA), C01W(H01Z,HB,HC),
 C11(H11A,H11B,H11C), C12(H12A,H12B,H12C), C13(H13A,H13B,H13C), C14(H14A,H14B,
 H14C), C14A(H14D,H14E,H14F), C15(H15A,H15B,H15C), C021(H02A,H02B,H02C),
 C024(H02D,H02E,H02F), C025(H02G,H02H,H02I)
;
_smtbx_masks_void_probe_radius   1.2
_smtbx_masks_void_truncation_radius 1.2
_shelx_res_file
;
    ni.res created by SHELXL-2014/7

TITL ni_b.res in P-4
REM Old TITL hh-cc-100k_a_a.res in P4(2)/n
REM SHELXT solution in P-4
REM R1 0.298, Rweak 0.010, Alpha 0.052, Orientation as input
REM Flack x = 0.492 ( 0.026 ) from Parsons' quotients
REM Formula found by SHELXT: C124 N16 Ni O10
CELL 1.54184 20.4751 20.4751 13.4593 90 90 90
ZERR 2 0.0003 0.0003 0.001 0 0 0
LATT -1
SYMM -X,-Y,+Z
SYMM +Y,-X,-Z
SYMM -Y,+X,-Z
SFAC C H N Ni O
UNIT 280.6 234.21 8 2 16
SADI C025 C022 C022 C01U C14 C022
SADI C024 C01A C01W C01A C021 C01A
SIMU C00G C00P C01B C01J C010 C018
SADI C01J C010 C01B C010 C01B C00G C00P C00G C018 C00P C01J C018
SADI C4 C2 C4 C1 C4 C3
DFIX 1.57 C4 C2 C4 C1
DANG 2.44 C1 C2
DANG 2.44 C3 C1
DFIX 1.57 C024 C01A C01W C01A C021 C01A
DFIX 1.6 C4 C2
DFIX 1.57 C4 C3
DFIX 1.6 C4 C1
DFIX 1.7 C4 C3 C4 C2
SADI C9 C10 C9 C10A
SADI 0.04 C8 C6 C8 C6A
SADI C10 C5 C10A C5A
SADI C7 C6 C7A C6A
SADI C8 C7 C8 C7A
SADI 0.04 C6 C4 C6A C4
SADI 0.04 C9 C5 C9 C5A
SADI 0.04 C10 C6 C10A C6A
SADI 0.04 C7 C5 C7A C5A
SADI 0.04 C10 C4 C10A C4
SADI 0.04 C01Q C6 C01Q C6A
SADI C6 C5 C6A C5A
SADI C7 C01Q C7A C01Q
EADP C10 C10A
SADI C5 C4 C5A C4
SADI C3 C2 C3A C2A
SADI C4 C2 C4 C2A
SADI C1 C4 C1A C4
SADI 0.04 C3 C4 C3A C4
DFIX 1.7 C4 C3 C4 C2 C4 C1
SADI C4 C3A C4 C2A C4 C1A
SADI C01X C01Q C01S C01Q C01V C01Q
EADP C4 C4A
DANG 1.7 C2A C3A
SADI C5 C4 C5A C2A
DANG 2.7 C3 C2
ISOR C01A
SADI C01A C01W C01A C11
SADI C01A C021 C01A C0
SADI C01A C024 C01A C12
DANG 3 C018 C12
DANG 2.7 C11 C12
DANG 2.7 C0 C12
EADP C12 C024
SADI C01W C01A C11 C01A C024 C01A C12 C01A C021 C01A C01A C0
SADI C01U C022 C15 C022
SADI C14 C022 C14A C022
SADI C022 C025 C022 C13
SADI C14 C022 C13 C022 C025 C022 C15 C022 C14A C022 C022 C01U
SADI C01T C01Q C01S C01Q
EADP C01S C01T
EADP C01X C01Y
SADI C01S C01Q C01Y C01Q C16 C01Q
DANG 2.7 C01S C16
DANG 2.7 C16 C01Y
DANG 2.7 C01T C01V
DANG 2.7 C01X C01V
SADI C01V C01Q C01T C01Q C01X C01Q
RIGU
DANG 2.6 C14 C025
DANG 2.6 C7 C01V
EADP C01V C16

L.S. 21
PLAN  1
SIZE 0.15 0.2 0.2
CONF
LIST 4
MORE -1
ABIN
BOND $H
fmap 2
acta
OMIT 3 1 1
OMIT -1 3 1
OMIT -1 2 1
OMIT 2 1 1
OMIT 3 4 0
OMIT -4 6 0
OMIT -3 8 0
OMIT 2 3 0
OMIT 1 13 0
OMIT -2 4 0
OMIT -4 7 1
REM <olex2.extras>
REM <HklSrc "%.\\ni.hkl">
REM </olex2.extras>

WGHT    0.145300    0.454400
FVAR       0.34344   0.45722   0.43937   0.60924   0.52307   0.35556   0.16036
FVAR       0.77763   0.37249
NI01  4    0.500000    0.500000    0.500000    10.25000    0.02003    0.02003 =
         0.11711    0.00000    0.00000    0.00000
O003  5    0.586592    0.862478    0.718560    11.00000    0.05929    0.03345 =
         0.14828   -0.01379   -0.00055   -0.00771
O004  5    0.810135    0.739903    0.610882    11.00000    0.03378    0.04409 =
         0.14245    0.00793   -0.00678   -0.01020
N008  3    0.547380    0.577775    0.513924    11.00000    0.02939    0.02549 =
         0.10344    0.00610   -0.00359    0.00530
C00B  1    0.456592    0.653652    0.547705    11.00000    0.03337    0.03549 =
         0.11202   -0.00134    0.00877   -0.00527
C00F  1    0.761180    0.834743    0.675611    11.00000    0.04415    0.03248 =
         0.10826    0.01353   -0.01485   -0.00668
C00H  1    0.693436    0.739525    0.610638    11.00000    0.04168    0.02729 =
         0.11286    0.00787   -0.00449   -0.01588
C00J  1    0.631138    0.650309    0.545894    11.00000    0.03793    0.03100 =
         0.12031    0.01501   -0.00924   -0.00264
C00K  1    0.636990    0.769639    0.644385    11.00000    0.04641    0.02979 =
         0.09531    0.00911   -0.01043   -0.00855
C00M  1    0.885168    1.022083    0.783973    11.00000    0.07104    0.04935 =
         0.17898    0.01699   -0.03643   -0.03900
AFIX  43
H00M  2    0.925141    1.042767    0.793271    11.00000   -1.20000
AFIX   0
C00O  1    0.576182    0.737601    0.632471    11.00000    0.03437    0.02673 =
         0.12576    0.01097   -0.00918   -0.00665
AFIX  43
H00O  2    0.538349    0.756534    0.657618    11.00000   -1.20000
AFIX   0
C00R  1    0.819197    0.865892    0.687916    11.00000    0.05364    0.03171 =
         0.13310    0.01636   -0.02573   -0.01299
AFIX  43
H00R  2    0.857308    0.845371    0.666975    11.00000   -1.20000
AFIX   0
C00S  1    0.637799    0.835390    0.693173    11.00000    0.04978    0.02919 =
         0.10991    0.00252   -0.00195   -0.01068
C00T  1    0.572876    0.679015    0.584203    11.00000    0.03230    0.02688 =
         0.11131    0.01039   -0.00063   -0.00207
C00U  1    0.824663    1.057332    0.812343    11.00000    0.09808    0.03277 =
         0.15390    0.02319   -0.03090   -0.02709
AFIX  43
H00U  2    0.825983    1.099763    0.836916    11.00000   -1.20000
AFIX   0
C00Z  1    0.884673    0.961935    0.745665    11.00000    0.05109    0.04347 =
         0.18501    0.01294   -0.02783   -0.02063
AFIX  43
H00Z  2    0.923418    0.941313    0.727879    11.00000   -1.20000
AFIX   0
PART 1
C1    1    0.383787    0.804588    0.924644    31.00000    0.09909    0.06966 =
         0.14335   -0.02126    0.02813   -0.00511
AFIX 137
H1A   2    0.351919    0.809314    0.976466    31.00000   -1.50000
H1B   2    0.400966    0.846729    0.907476    31.00000   -1.50000
H1C   2    0.418632    0.776989    0.947334    31.00000   -1.50000
AFIX   0
PART 2
C1A   1    0.354350    0.708399    0.894473   -31.00000    0.10717    0.14554 =
         0.14762   -0.04752    0.04081   -0.04727
AFIX 137
H1AA  2    0.315045    0.730993    0.876288    10.75000   -1.50000
H1AB  2    0.352316    0.696381    0.963347   -31.00000   -1.50000
H1AC  2    0.358779    0.669792    0.854564   -31.00000   -1.50000
AFIX   0
PART 0
C01K  1    0.765536    0.962907    0.756680    11.00000    0.06110    0.02906 =
         0.14459    0.01491   -0.02205   -0.01174
C01N  1    0.766705    1.024633    0.800758    11.00000    0.08013    0.03639 =
         0.16126    0.01001   -0.01490   -0.01749
AFIX  43
H01N  2    0.727987    1.043664    0.822367    11.00000   -1.20000
AFIX   0
C01P  1    0.705268    0.930785    0.745229    11.00000    0.05831    0.03180 =
         0.14602    0.00382   -0.01356   -0.00698
AFIX  43
H01P  2    0.666939    0.951110    0.765686    11.00000   -1.20000
AFIX   0
C01Q  1    0.424941    0.900560    0.533571    11.00000    0.07697    0.02028 =
         0.20442   -0.00708    0.01455   -0.00467
PART 2
C01S  1    0.377747    0.900627    0.447450    81.00000    0.11538    0.05824 =
         0.20764    0.01626    0.01617   -0.00200
AFIX 137
H01A  2    0.334293    0.892996    0.471591    81.00000   -1.50000
H01B  2    0.389527    0.866759    0.401497    81.00000   -1.50000
H01C  2    0.379399    0.942170    0.414477    81.00000   -1.50000
AFIX   0
PART 1
C01T  1    0.343706    0.913123    0.545783    91.00000    0.11538    0.05824 =
         0.20764    0.01626    0.01617   -0.00200
AFIX 137
H01D  2    0.336150    0.956180    0.571567    91.00000   -1.50000
H01E  2    0.325817    0.881358    0.590637    91.00000   -1.50000
H01F  2    0.323034    0.908961    0.482077    91.00000   -1.50000
AFIX   0
C01V  1    0.438721    0.948949    0.630150    10.50000    0.06860    0.03560 =
         0.20282   -0.01246    0.05064   -0.00360
AFIX 137
H01G  2    0.425526    0.992690    0.614126    10.50000   -1.50000
H01H  2    0.484443    0.948486    0.645926    10.50000   -1.50000
H01I  2    0.414168    0.933679    0.686299    10.50000   -1.50000
AFIX   0
C01X  1    0.415432    0.942900    0.435235    71.00000    0.08103    0.04743 =
         0.19067   -0.00024    0.04299   -0.00862
AFIX 137
H01J  2    0.385212    0.921242    0.391780    71.00000   -1.50000
H01K  2    0.456705    0.947771    0.402216    71.00000   -1.50000
H01L  2    0.398652    0.985187    0.452489    71.00000   -1.50000
AFIX   0
PART 2
C01Y  1    0.493830    0.902658    0.482521   -71.00000    0.08103    0.04743 =
         0.19067   -0.00024    0.04299   -0.00862
AFIX 137
H01M  2    0.496304    0.869164    0.432752   -71.00000   -1.50000
H01O  2    0.527134    0.895523    0.531539   -71.00000   -1.50000
H01Q  2    0.500187    0.944571    0.452050   -71.00000   -1.50000
AFIX   0
PART 1
C2    1    0.272446    0.776318    0.828379    31.00000    0.07405    0.18155 =
         0.17761   -0.05957    0.04079    0.00066
AFIX 137
H2A   2    0.255722    0.760634    0.890596    31.00000   -1.50000
H2B   2    0.255786    0.749804    0.775292    31.00000   -1.50000
H2C   2    0.258999    0.820781    0.818697    31.00000   -1.50000
AFIX   0
PART 2
C2A   1    0.412204    0.752333    0.877575   -31.00000    0.10839    0.10135 =
         0.14176   -0.03906    0.03648   -0.02482
PART 1
C3    1    0.336150    0.701608    0.877439    31.00000    0.09117    0.11413 =
         0.14981   -0.03833    0.05643   -0.03326
AFIX 137
H3A   2    0.376563    0.678337    0.884832    31.00000   -1.50000
H3B   2    0.307455    0.677399    0.834714    31.00000   -1.50000
H3C   2    0.316047    0.706960    0.941360    31.00000   -1.50000
AFIX   0
PART 2
C3A   1    0.367264    0.834466    0.896354   -31.00000    0.20544    0.13250 =
         0.17660   -0.05197    0.06634    0.00340
AFIX 137
H3AA  2    0.321056    0.827802    0.889771   -31.00000   -1.50000
H3AB  2    0.381716    0.865201    0.847183   -31.00000   -1.50000
H3AC  2    0.376706    0.851172    0.961433   -31.00000   -1.50000
AFIX   0
PART 1
C4    1    0.350273    0.772552    0.829298   -41.00000    0.09973    0.09708 =
         0.14389   -0.04133    0.03282   -0.02237
PART 2
C4A   1    0.468158    0.731013    0.919816    41.00000    0.09973    0.09708 =
         0.14389   -0.04133    0.03282   -0.02237
AFIX 137
H4AA  2    0.461851    0.726271    0.990125    10.50000   -1.50000
H4AB  2    0.502386    0.762041    0.907646    10.50000   -1.50000
H4AC  2    0.479984    0.689583    0.891684    10.50000   -1.50000
AFIX   0
PART 0
C005  1    0.520466    0.634751    0.560288    11.00000    0.03228    0.02300 =
         0.11983    0.00315    0.00846   -0.00173
PART 1
C5    1    0.381220    0.767713    0.730745    21.00000    0.03314    0.05440 =
         0.13759   -0.03749    0.02046   -0.00750
PART 2
C5A   1    0.408520    0.764698    0.761578   -21.00000    0.04229    0.07183 =
         0.14544   -0.03471    0.02594   -0.01406
PART 1
C6    1    0.393356    0.828459    0.688751    21.00000    0.06090    0.04489 =
         0.18155   -0.03019    0.03922    0.00792
AFIX  43
H6    2    0.379119    0.866322    0.720178    21.00000   -1.20000
AFIX   0
PART 2
C6A   1    0.406240    0.823822    0.702912   -21.00000    0.11971    0.05859 =
         0.17381   -0.03116    0.03200    0.01585
AFIX  43
H6A   2    0.401502    0.862484    0.738454   -21.00000   -1.20000
AFIX   0
PART 1
C7    1    0.426271    0.831981    0.601204    21.00000    0.06336    0.04105 =
         0.17586   -0.01852    0.02625    0.00082
PART 2
C7A   1    0.410125    0.830227    0.602533   -21.00000    0.03191    0.02524 =
         0.17066   -0.01998    0.00540    0.00158
PART 0
C8    1    0.434545    0.775553    0.548844    11.00000    0.02870    0.02948 =
         0.14280   -0.00225    0.00706    0.00463
PART 1
AFIX  43
H8A   2    0.441395    0.777550    0.480605    21.00000   -1.20000
AFIX  43
PART 2
H8B   2    0.450971    0.780092    0.484795   -21.00000   -1.20000
AFIX   0
PART 0
C009  1    0.692367    0.682058    0.560477    11.00000    0.03408    0.02500 =
         0.12666    0.00509    0.00323   -0.00592
AFIX  43
H009  2    0.730742    0.663772    0.536133    11.00000   -1.20000
AFIX   0
C9    1    0.432898    0.714833    0.596013    11.00000    0.03188    0.03434 =
         0.11420   -0.00593    0.00973   -0.00174
PART 1
C10   1    0.404425    0.713053    0.685619    21.00000    0.03440    0.04815 =
         0.12342   -0.01788    0.01809   -0.02041
AFIX  43
H10   2    0.400413    0.673121    0.717976    21.00000   -1.20000
AFIX   0
PART 2
C10A  1    0.424330    0.712396    0.699380   -21.00000    0.03440    0.04815 =
         0.12342   -0.01788    0.01809   -0.02041
AFIX  43
H10A  2    0.429718    0.671885    0.729534   -21.00000   -1.20000
AFIX   0
PART 0
C011  1    0.613509    0.589099    0.502266    11.00000    0.03168    0.03521 =
         0.09994    0.01092    0.00019    0.00246
C013  1    0.758111    0.770209    0.629136    11.00000    0.04270    0.03165 =
         0.12548    0.00785    0.00314   -0.01370
C014  1    0.823526    0.930151    0.732699    11.00000    0.05952    0.04159 =
         0.14242    0.00971   -0.01619   -0.02073
PART 2
C16   1    0.414059    0.954048    0.615686    10.50000    0.06860    0.03560 =
         0.20282   -0.01246    0.05064   -0.00360
AFIX 137
H16A  2    0.432345    0.994744    0.593759    10.50000   -1.50000
H16B  2    0.435073    0.940668    0.676112    10.50000   -1.50000
H16C  2    0.368114    0.959400    0.627341    10.50000   -1.50000
AFIX   0
PART 0
C017  1    0.702751    0.866435    0.701863    11.00000    0.04978    0.03189 =
         0.11874    0.01542   -0.01422   -0.00609

NI02  4    0.000000    1.000000    0.000000    10.25000    0.02777    0.02777 =
         0.09435    0.00000    0.00000    0.00000
O00A  5    0.361068    0.912955    0.217718    11.00000    0.03991    0.04463 =
         0.19087    0.01273   -0.02172   -0.00629
O006  5    0.241821    0.691712    0.109616    11.00000    0.03829    0.04128 =
         0.15920    0.00873   -0.00016    0.00470
N007  3    0.080235    0.953313    0.016729    11.00000    0.02786    0.02691 =
         0.09736   -0.00611   -0.00345    0.00561
PART 2
C0    1    0.403501    1.013038   -0.001217    10.50000    0.01372    0.08017 =
         0.11765    0.02448   -0.00309   -0.00112
AFIX 137
H0A   2    0.442990    1.013028   -0.039671    10.50000   -1.50000
H0B   2    0.366783    1.006311   -0.044376    10.50000   -1.50000
H0C   2    0.405251    0.978569    0.047062    10.50000   -1.50000
AFIX   0
PART 0
C00C  1    0.427909    0.797019    0.240663    11.00000    0.03092    0.06024 =
         0.11381    0.01795    0.00694    0.01445
AFIX  43
H00C  2    0.449273    0.835801    0.256069    11.00000   -1.20000
AFIX   0
C00D  1    0.460765    0.736013    0.257210    11.00000    0.03698    0.07313 =
         0.08291    0.01762    0.00722    0.01833
C00E  1    0.113010    1.087727   -0.001679    11.00000    0.02738    0.02563 =
         0.08797   -0.00709    0.00255   -0.00755
C00G  1    0.214303    1.066878    0.095336    11.00000    0.02653    0.03059 =
         0.12641   -0.01191   -0.01257    0.00486
C00I  1    0.150668    0.868469    0.045385    11.00000    0.02671    0.02574 =
         0.08873   -0.00459   -0.00310    0.00537
C00L  1    0.269822    0.740264    0.129780    11.00000    0.03723    0.04310 =
         0.10968    0.01580    0.01364    0.00223
C00N  1    0.179072    0.924397    0.082630    11.00000    0.02865    0.03409 =
         0.10007    0.00220   -0.00039    0.00423
C00P  1    0.274384    1.065223    0.048285    11.00000    0.03191    0.04135 =
         0.14000    0.01518   -0.00844    0.00648
AFIX  43
H00P  2    0.276992    1.052132   -0.017761    11.00000   -1.20000
AFIX   0
C00Q  1    0.239748    0.923166    0.133553    11.00000    0.03034    0.04666 =
         0.09859   -0.00659   -0.00777    0.00041
AFIX  43
H00Q  2    0.258485    0.961121    0.158616    11.00000   -1.20000
AFIX   0
C00W  1    0.239852    0.805783    0.110578    11.00000    0.03409    0.03526 =
         0.11208    0.00377    0.01313   -0.00028
C00X  1    0.151814    1.044996    0.046025    11.00000    0.01984    0.03596 =
         0.08854   -0.00752    0.00280   -0.00061
C00Y  1    0.429074    0.678093    0.227373    11.00000    0.03751    0.06715 =
         0.08186    0.02155    0.01938    0.01452
C01A  1    0.395098    1.089634    0.060745    11.00000    0.02820    0.09838 =
         0.18407    0.04548   -0.00609   -0.00025
C01B  1    0.208925    1.087316    0.192587    11.00000    0.03425    0.09603 =
         0.13211   -0.03170   -0.01824    0.01400
AFIX  43
H01R  2    0.167862    1.092522    0.221039    11.00000   -1.20000
AFIX   0
C01C  1    0.367771    0.680604    0.189413    11.00000    0.04672    0.05123 =
         0.09370    0.00597    0.00928    0.01352
AFIX  43
H01S  2    0.345873    0.642214    0.173473    11.00000   -1.20000
AFIX   0
C01D  1    0.269000    0.864735    0.144015    11.00000    0.02442    0.04140 =
         0.14156    0.00475    0.00035    0.00222
C01E  1    0.462869    0.618132    0.243173    11.00000    0.05000    0.07011 =
         0.06138    0.01190    0.01456    0.01563
AFIX  43
H01T  2    0.442620    0.578996    0.226412    11.00000   -1.20000
AFIX   0
C01G  1    0.337241    0.741673    0.174132    11.00000    0.03477    0.05654 =
         0.11892    0.00961    0.00945    0.01420
C01H  1    0.136259    0.978471    0.052738    11.00000    0.03115    0.03544 =
         0.06919   -0.00084    0.00159    0.00469
C01I  1    0.179301    0.807883    0.059908    11.00000    0.03508    0.03143 =
         0.10447    0.00367    0.01261    0.00360
AFIX  43
H01U  2    0.159408    0.769892    0.037136    11.00000   -1.20000
AFIX   0
C01J  1    0.323807    1.103602    0.196234    11.00000    0.04337    0.11431 =
         0.16984   -0.02943   -0.03570    0.00590
AFIX  43
H01V  2    0.360186    1.120657    0.228458    11.00000   -1.20000
AFIX   0
C01M  1    0.554210    0.672160    0.308552    11.00000    0.04289    0.07998 =
         0.09922    0.02769   -0.00755    0.01051
AFIX  43
H01W  2    0.595323    0.670169    0.337766    11.00000   -1.20000
AFIX   0
C01O  1    0.524825    0.616941    0.282704    11.00000    0.04400    0.08433 =
         0.08399    0.02523    0.01422    0.01809
AFIX  43
H01X  2    0.546205    0.577271    0.291349    11.00000   -1.20000
AFIX   0
PART 1
C01U  1    0.189904    1.142751    0.386628    61.00000    0.08749    0.06932 =
         0.09607   -0.01476   -0.02215    0.01661
AFIX 137
H01Y  2    0.160596    1.107047    0.374396    61.00000   -1.50000
H     2    0.177148    1.179606    0.347037    61.00000   -1.50000
HA    2    0.188299    1.154369    0.455686    61.00000   -1.50000
AFIX   0
C01W  1    0.443777    1.060390    0.141099    51.00000    0.02425    0.10149 =
         0.18755    0.02116    0.00246    0.00496
AFIX 137
H01Z  2    0.445595    1.088992    0.197549    51.00000   -1.50000
HB    2    0.486570    1.056348    0.112609    51.00000   -1.50000
HC    2    0.428595    1.018151    0.161718    51.00000   -1.50000
AFIX   0
PART 0
C010  1    0.265163    1.100297    0.248828    11.00000    0.05612    0.16662 =
         0.15761   -0.06585   -0.03369    0.02129
PART 2
C11   1    0.460549    1.088576    0.103395   -51.00000    0.01328    0.07451 =
         0.15247    0.00166   -0.01148   -0.00471
AFIX 137
H11A  2    0.465472    1.050396    0.144110   -51.00000   -1.50000
H11B  2    0.466961    1.126944    0.143214   -51.00000   -1.50000
H11C  2    0.492308    1.087694    0.050941   -51.00000   -1.50000
AFIX   0
C12   1    0.401375    1.129844   -0.040759   -51.00000    0.03078    0.05717 =
         0.14330    0.01159   -0.01150   -0.01037
AFIX 137
H12A  2    0.396585    1.175639   -0.027309   -51.00000   -1.50000
H12B  2    0.367855    1.116081   -0.086023   -51.00000   -1.50000
H12C  2    0.443451    1.121934   -0.069837   -51.00000   -1.50000
AFIX   0
PART 0
C012  1    0.526176    0.731495    0.293719    11.00000    0.03403    0.07847 =
         0.09552    0.02889    0.01151    0.01143
AFIX  43
H012  2    0.549635    0.769340    0.307372    11.00000   -1.20000
AFIX   0
PART 2
C13   1    0.321797    1.130192    0.414703   -61.00000    0.07543    0.20112 =
         0.16108   -0.08520   -0.03568    0.03879
AFIX 137
H13A  2    0.340080    1.172387    0.400790   -61.00000   -1.50000
H13B  2    0.352096    1.096871    0.394866   -61.00000   -1.50000
H13C  2    0.313298    1.126470    0.484618   -61.00000   -1.50000
AFIX   0
PART 1
C14   1    0.318868    1.088729    0.407019    61.00000    0.11824    0.23224 =
         0.15443   -0.08976   -0.04331    0.02886
AFIX 137
H14A  2    0.325101    1.105628    0.472872    10.80000   -1.50000
H14B  2    0.357213    1.097005    0.367953    61.00000   -1.50000
H14C  2    0.311212    1.042525    0.410384    61.00000   -1.50000
AFIX   0
PART 2
C14A  1    0.235399    1.056870    0.412162   -61.00000    0.13171    0.26968 =
         0.18828   -0.05641   -0.02104    0.01008
AFIX 137
H14D  2    0.269645    1.024856    0.410894    10.75000   -1.50000
H14E  2    0.197875    1.040208    0.377718    10.50000   -1.50000
H14F  2    0.223907    1.066307    0.479805    10.50000   -1.50000
AFIX   0
C15   1    0.212352    1.179396    0.370521   -61.00000    0.09648    0.26910 =
         0.21199   -0.11026   -0.04016    0.05416
AFIX 137
H15A  2    0.168410    1.163900    0.362581   -61.00000   -1.50000
H15B  2    0.221475    1.211803    0.320879   -61.00000   -1.50000
H15C  2    0.217297    1.198307    0.435354   -61.00000   -1.50000
AFIX   0
PART 0
C016  1    0.334882    0.863813    0.190249    11.00000    0.02840    0.04953 =
         0.14896    0.01340   -0.00330   -0.00270
C018  1    0.330986    1.082989    0.098960    11.00000    0.03577    0.04913 =
         0.14876    0.01999   -0.01415   -0.00374
C019  1    0.368716    0.799373    0.204484    11.00000    0.03244    0.05704 =
         0.12031    0.01048    0.00229    0.01132
PART 1
C021  1    0.402370    1.068357   -0.040800    51.00000    0.02100    0.08409 =
         0.17247    0.02591    0.00736   -0.01308
AFIX 137
H02A  2    0.446793    1.074588   -0.061547    51.00000   -1.50000
H02B  2    0.373896    1.093400   -0.082750    51.00000   -1.50000
H02C  2    0.391260    1.022920   -0.045696    51.00000   -1.50000
AFIX   0
PART 0
C022  1    0.260012    1.122250    0.358955    11.00000    0.07429    0.22433 =
         0.15490   -0.08878   -0.03054    0.01588
PART 1
C024  1    0.414646    1.168982    0.077443    10.50000    0.03078    0.05717 =
         0.14330    0.01159   -0.01150   -0.01037
AFIX 137
H02D  2    0.410629    1.179930    0.146527    10.50000   -1.50000
H02E  2    0.385627    1.195855    0.039136    10.50000   -1.50000
H02F  2    0.458797    1.176280    0.056160    10.50000   -1.50000
AFIX   0
C025  1    0.284957    1.196459    0.343232    61.00000    0.16086    0.22057 =
         0.21354   -0.09216    0.01496   -0.00859
AFIX 137
H02G  2    0.263251    1.215221    0.286819    10.30000   -1.50000
H02H  2    0.331267    1.196503    0.332090    10.30000   -1.50000
H02I  2    0.275162    1.221712    0.401451    10.30000   -1.50000
AFIX   0
HKLF 4

REM  ni_b.res in P-4
REM R1 =  0.0708 for    6673 Fo > 4sig(Fo)  and  0.0909 for all    9343 data
REM    838 parameters refined using    992 restraints

END

WGHT      0.1452      0.4542

REM Highest difference peak  1.046,  deepest hole -0.258,  1-sigma level  0.062
Q1    1   0.0000  1.0000  0.0840  10.50000  0.05    1.05
;
_shelx_res_checksum              75036
_shelx_hkl_file
;
   0   0  -1    0.53    0.38
   0   0   1    2.11    0.42
   0   0  -2   39.39    1.96
   0   0   2   41.73    1.97
   0   0  -3    0.94    1.43
   0   0   3    2.45    1.44
   0   0  -4 1819.41   69.33
   0   0   4 1903.25   69.30
   0   0  -5   -0.62    1.65
   0   0   5    1.18    1.42
   0   0  -6   67.28    4.19
   0   0   6   66.86    3.99
   0   0  -7    2.01    2.10
   0   0   7    1.38    1.85
   0   0  -8   76.48    5.39
   0   0   8   81.51    5.20
   0   0  -9    0.49    2.30
   0   0   9   -0.60    2.03
   0   0 -10   60.24    6.00
   0   0 -14    0.71    1.68
   0   0  14    0.33    1.88
   0  -1   0    0.34    0.19
  -1   0  -1 5652.76  202.96
   0   1  -1 5766.84  202.91
   0  -1   1 5421.87  202.84
   1   0  -1 5181.05  202.93
  -1   0   1 5743.94  202.88
  -1   0   1 5910.96  202.97
   0  -1   1 5757.13  203.00
  -1   0   1 5537.46  202.84
   0   1   1 6071.25  202.85
  -1   0  -2 1978.08   74.27
   1   0  -2 1995.15   74.25
   0   1  -2 2019.30   74.24
  -1   0   2 2078.91   74.04
  -1   0  -2 1926.45   74.03
   0   1   2 2036.42   74.17
   0  -1   2 2031.13   74.31
  -1   0   2 2015.38   74.29
   1   0   3  455.21   17.33
  -1   0  -3  443.55   17.03
  -1   0   3  459.29   17.34
   0  -1   3  463.04   17.41
   0   1   3  459.90   17.22
   0   1  -3  466.15   17.33
  -1   0  -3  442.12   17.33
   1   0  -3  453.65   17.33
   0   1   4  287.01   10.64
  -1   0  -4  243.54   10.20
  -1   0   4  285.29   10.78
   0  -1   4  274.38   10.78
   1   0   4  271.95   10.68
  -1   0  -4  269.60   10.78
   0   1  -4  263.55   10.80
   1   0  -4  283.83   10.81
  -1   0   5  425.44   16.45
   0   1   5  425.28   16.31
   1   0   5  416.51   16.36
   0  -1   5  408.91   16.40
  -1   0  -5  418.42   16.52
   0   1  -5  399.08   16.39
   1   0  -5  416.13   16.45
   1   0   6   83.72    4.33
   0   1   6   66.51    4.21
   0  -1   6   75.28    4.38
  -1   0   6   81.90    4.48
   0   1  -6   74.04    4.52
  -1   0  -6   75.32    4.54
   1   0  -6   67.05    4.36
  -1   0   7   19.92    2.68
   0   1   7   25.12    2.67
   0  -1   7   24.93    2.82
   1   0   7   24.65    2.63
  -1   0  -7   22.87    3.01
   1   0  -7   19.17    2.73
   0   1  -7   20.81    2.86
   1   0   8   15.73    2.67
  -1   0   8   18.10    2.86
   0   1   8   18.97    2.61
   0  -1   8   15.02    2.83
   1   0  -8   14.77    2.96
   0   1  -8   21.67    3.11
  -1   0  -8   15.57    2.91
  -1   0   9    0.93    2.04
   0  -1   9    0.46    2.09
   1   0  -9   -0.81    2.33
   0   1  -9    1.48    2.27
  -1   0  -9   -0.34    2.40
  -1   0 -10    4.04    2.64
   0   1 -10    0.77    2.53
   1   0 -10    3.93    2.72
   0   1 -11    0.49    1.70
   1   0 -12    2.86    2.01
   0   1  12    2.89    2.29
  -1   0 -14   -0.09    1.65
   0   1 -14    2.23    1.73
   1   0  14    2.71    2.12
   1   0 -15    3.57    1.72
   0   1 -16    1.15    1.19
  -1  -1   0 3517.89  131.82
  -1  -1   0 3639.49  131.83
  -1  -1   1 1981.00   71.38
   1   1  -1 1893.45   71.41
  -1  -1  -1 1947.47   71.38
  -1   1   1 1942.67   71.42
  -1   1  -1 1895.84   71.42
  -1  -1  -2 1035.68   38.04
  -1  -1   2 1010.40   38.02
  -1   1   2 1006.90   38.18
  -1   1  -2 1024.19   38.23
   1   1  -2 1040.34   38.21
   1   1   2 1026.72   38.14
  -1  -1   2 1076.90   38.30
   1   1   3   29.36    1.83
  -1   1   3   27.89    1.89
   1  -1   3   26.29    2.16
  -1  -1   3   25.51    2.08
   1   1  -3   26.94    2.04
  -1   1  -3   25.18    2.02
  -1  -1   3   22.73    1.16
  -1  -1  -3   23.06    1.16
   1   1  -4 2535.27   92.26
  -1   1  -4 2474.94   92.28
  -1   1   4 2530.59   92.18
   1  -1   4 2427.43   92.27
   1   1   4 2481.30   92.11
  -1  -1   4 2450.82   92.26
  -1   1  -5    3.62    0.97
   1  -1   5    6.81    1.67
  -1  -1   5    1.59    1.56
  -1   1   5    3.21    1.48
   1   1   5    4.18    1.42
   1   1  -5    2.57    1.72
  -1   1  -5    3.99    1.78
   1   1   6  260.13   10.82
   1  -1   6  252.75   10.92
  -1   1   6  251.23   10.80
  -1  -1   6  257.92   11.01
  -1   1  -6  272.97   11.26
   1   1  -6  249.81   11.01
  -1  -1   7    1.61    2.05
  -1   1   7    0.41    1.84
   1  -1   7    2.10    1.87
   1   1   7   -1.57    1.84
   1   1  -7   -0.33    2.08
  -1   1  -7    3.30    2.26
  -1   1  -8   89.85    5.58
   1   1  -8   85.74    5.35
   1   1   8   75.87    5.04
   1  -1   8   79.57    5.20
  -1  -1   8   80.83    5.22
  -1   1   8   75.06    5.07
   1   1  -9   14.00    3.19
  -1   1  -9   14.33    3.22
   1  -1   9   17.48    3.05
  -1  -1   9   15.19    2.92
   1   1 -10   14.67    3.61
  -1   1 -10   10.88    3.48
   1   1  12   16.29    3.04
   1   1 -12   16.94    2.59
  -1   1 -14    6.25    1.93
   1   1 -15    3.65    1.63
  -1  -2   0    0.77    0.41
  -1  -2   0    0.66    0.52
  -1  -2   0    0.77    0.51
  -1  -2  -1    0.39    0.55
  -1  -2   1    0.72    0.54
  -1  -2  -1    0.55    0.53
   1   2  -1    0.73    0.51
  -1  -2  -2  302.31   10.95
  -1  -2   2  306.93   10.92
   1   2   2  288.43   10.79
  -2   1   2  260.40   10.76
  -1  -2  -2  307.74   11.05
  -2   1  -2  297.11   11.09
   1   2  -2  281.92   10.99
  -2   1   2  296.89   11.10
  -1  -2   3  855.54   33.71
  -1  -2  -3  832.85   33.72
  -2   1   3  901.49   33.73
   1   2  -3  979.47   34.11
  -2   1  -3  972.03   34.13
  -1  -2  -3  987.65   34.11
  -1  -2   3  966.89   34.18
   1   2   3  943.61   33.82
  -2   1   3  912.78   34.05
  -2   1  -4 2372.77   92.33
   2  -1   4 2599.84   92.97
  -1  -2   4 2484.99   92.92
   1   2   4 2500.02   92.62
   1   2  -4 2680.24   92.91
  -2   1  -4 2543.91   92.91
  -1  -2  -4 2593.94   92.92
  -2   1   4 2508.54   92.83
   1   2   5  322.77   12.36
   2  -1   5  309.97   12.63
  -1  -2   5  343.59   12.77
  -1  -2  -5  320.64   12.69
   1   2  -5  318.16   12.67
  -2   1  -5  307.68   12.70
  -2   1   5  339.60   12.62
  -1  -2   6   35.29    3.06
   1   2   6   38.20    2.75
   2  -1   6   32.39    2.95
  -1  -2  -6   32.70    3.08
   1   2  -6   32.47    3.05
  -2   1  -6   35.61    3.19
  -2   1   6   42.77    3.00
   2  -1   7   81.93    4.90
   1   2   7   84.72    4.70
  -1  -2   7   91.36    5.12
  -1  -2  -7   83.76    5.23
  -2   1  -7   78.80    5.24
   1   2  -7   80.34    4.99
  -2   1   7   78.37    4.99
  -1  -2   8   82.95    5.46
   2  -1   8   73.11    5.25
  -1  -2  -8   91.53    5.73
  -2   1  -8   88.83    5.85
   1   2  -8   83.45    5.52
  -2   1   8   94.78    5.59
  -2   1  -9   28.50    4.19
   1   2  -9   34.00    4.30
  -1  -2  -9   40.98    4.22
   2  -1   9   32.21    3.82
  -1  -2   9   38.50    4.00
  -1  -2  10   -0.55    2.37
   2  -1  10    1.30    2.07
  -1  -2 -10    3.97    1.75
  -1  -2 -10   -0.19    2.71
  -2   1 -10    1.97    2.78
   1   2 -10    1.71    2.66
  -1  -2 -14   -0.17    1.53
  -1  -2 -16    1.43    1.15
  -2   1 -16   -1.02    1.14
   0  -2   0 1389.05   51.35
   0   2  -1   59.36    2.27
   0  -2  -1   60.09    2.28
   0  -2  -1   57.91    2.33
   0  -2   1   58.39    2.32
   2   0  -1   53.04    2.44
   0  -2  -1   51.81    2.23
  -2   0   1   50.76    2.29
  -2   0   1   59.64    2.48
   0   2  -2 4143.73  153.49
   0  -2  -2 4162.38  153.49
  -2   0  -2 4229.49  153.59
   2   0  -2 4067.00  153.55
  -2   0   2 4104.44  153.38
   0  -2   2 4180.59  153.62
  -2   0   2 4201.75  153.46
   0   2   2 4141.27  153.35
  -2   0   2 4287.88  153.62
   0  -2   3 9952.32  363.16
  -2   0   3 9965.60  363.12
   0   2   3 9732.35  362.89
   2   0  -3 9882.96  363.06
   0  -2  -3 9999.00  363.06
  -2   0  -3 9766.57  363.11
   0   2  -3 9779.75  363.05
  -2   0  -3 9865.01  362.80
  -2   0   3 9798.64  362.79
  -2   0  -4 5626.25  230.07
   0  -2  -4 7182.44  230.79
   0   2  -4 7066.90  230.78
   2   0  -4 7059.03  230.74
  -2   0  -4 7252.23  230.85
   0   2   4 6902.82  230.55
   0  -2   4 7126.87  230.92
  -2   0  -4 6783.28  230.52
  -2   0   4 7150.11  230.82
   2   0   4 6962.47  230.76
  -2   0  -5   10.13    1.35
  -2   0   5   14.60    1.97
   0  -2   5   12.41    2.01
   0   2   5   16.59    1.74
   2   0   5   12.57    1.82
   2   0  -5   10.32    1.97
   0   2  -5   12.43    2.02
  -2   0  -5   13.59    2.08
   0  -2  -5   15.03    2.07
   2   0  -6  176.51    7.98
   0  -2  -6  185.65    8.07
  -2   0  -6  173.90    8.14
   0   2  -6  169.77    8.18
   0  -2   6  171.19    7.97
   0   2   6  173.03    7.67
   2   0   6  165.27    7.77
  -2   0   6  171.60    7.87
  -2   0   7    0.79    1.92
   2   0   7    0.79    1.80
   0   2   7    2.56    1.78
   0  -2   7    1.80    2.00
  -2   0  -7    1.08    2.20
   0  -2  -7    2.67    2.18
   2   0  -7    2.43    2.05
   0   2  -7    1.39    2.12
   0  -2  -8   78.25    5.23
  -2   0  -8   75.87    5.32
   2   0  -8   67.85    4.93
   0   2  -8   75.91    5.28
   2   0   8   71.52    4.84
   0  -2   8   68.40    5.01
  -2   0   8   76.10    5.15
  -2   0  -9    1.87    2.38
   0  -2  -9    1.30    2.31
   0   2  -9   -1.84    2.51
   2   0  -9   -1.42    2.33
  -2   0   9    4.07    2.39
   0  -2   9    0.95    2.24
   0   2 -10    7.40    3.37
   2   0 -10    4.70    3.02
  -2   0 -10   10.15    3.21
   0  -2 -10   13.41    3.49
   0  -2  10    7.85    3.06
  -2   0  11    2.41    1.93
   2   0  11    3.41    2.06
   0   2 -11    0.20    1.77
   0  -2 -11   -0.10    1.63
   0   2 -12   22.78    2.87
   0  -2 -12   26.67    3.00
   0  -2  13    2.95    2.08
  -2   0  14    6.41    2.40
   2   0  14    9.48    2.62
   0  -2 -14    5.80    2.18
   0   2 -14   13.05    2.19
   0  -2  16    0.72    1.35
  -2   0 -16    0.56    1.10
   0  -2 -16    1.23    1.11
   0   2 -16   -0.71    1.13
  -2  -1   0   -0.04    0.53
  -2  -1   0   -0.05    0.65
  -2  -1   0    0.10    0.50
  -2  -1  -1   46.48    2.08
  -2  -1   1   42.02    1.95
  -1   2  -1   40.20    1.86
  -2  -1   1   48.50    1.96
   1  -2  -1   43.84    1.85
  -2  -1  -1   42.71    1.93
   2   1  -1   38.58    1.95
  -2  -1   2    2.53    1.19
  -1   2   2    2.24    0.85
  -2  -1   2    2.63    0.68
  -2  -1  -2    2.85    0.70
  -2  -1   2    2.72    0.95
  -2  -1  -2    1.97    1.01
  -1   2  -2    1.95    0.99
   2   1  -2    3.33    1.02
   1  -2  -2    2.62    0.89
  -1   2  -3 3750.30  141.46
   2   1  -3 3843.26  141.46
   1  -2  -3 4005.78  141.48
  -2  -1   3 3687.38  141.19
  -1   2   3 3914.71  141.37
  -2  -1  -3 3776.85  141.21
   2   1   3 3760.17  141.40
  -2  -1  -3 3681.29  141.35
  -2  -1   3 4194.20  141.67
   1  -2   3 4019.04  141.66
  -2  -1   4 1056.20   44.50
  -2  -1  -4 1146.24   44.53
   2   1  -4 1326.55   45.16
   1  -2  -4 1310.04   45.13
  -1   2  -4 1321.18   45.17
   2   1   4 1278.31   45.00
  -2  -1   4 1379.73   45.31
   1  -2   4 1276.54   45.22
  -1   2   4 1270.31   44.96
   1  -2  -5   49.14    3.10
  -1   2  -5   47.01    3.23
   2   1  -5   48.17    3.11
   1  -2   5   51.69    3.23
   2   1   5   47.34    2.95
  -2  -1   5   47.48    3.20
  -1   2   5   48.24    2.89
   2   1  -6  551.87   21.64
   1  -2  -6  537.29   21.56
  -1   2  -6  562.45   21.85
  -2  -1   6  579.32   21.82
   1  -2   6  530.14   21.66
   2   1   6  536.36   21.38
  -1   2   6  546.21   21.41
   2   1  -7   46.99    3.81
  -1   2  -7   56.56    4.21
   1  -2  -7   43.50    3.88
  -2  -1   7   58.98    3.96
   2   1   7   53.13    3.64
   1  -2   7   52.56    3.79
  -1   2   7   54.10    3.68
   1  -2   8   10.91    2.41
  -2  -1   8   10.77    2.58
   1  -2  -8   13.66    2.65
   2   1  -8   12.25    2.66
  -1   2  -8    8.20    2.76
   1  -2   9    5.81    2.52
  -2  -1   9   10.82    2.61
   2   1  -9    5.25    2.60
  -1   2  -9    6.26    2.89
   1  -2  -9    8.13    2.73
  -2  -1  10    6.33    2.04
  -1   2 -10    4.13    2.79
   1  -2 -10   -0.94    2.58
   2   1 -10    1.89    2.70
   1  -2  10    1.43    2.44
  -1   2 -10    5.17    1.84
  -1   2 -14    4.18    1.70
  -1   2 -16    1.17    1.15
   1  -2  16    0.74    1.43
  -2  -2   0   47.42    2.15
  -2  -2   0   48.63    2.20
  -2  -2   0   47.29    2.06
   2   2  -1   64.03    2.86
   2  -2  -1   65.17    2.87
  -2  -2   1   71.75    2.93
  -2  -2  -1   72.84    2.97
  -2  -2   1   68.82    3.02
  -2  -2  -2 3212.71  120.22
  -2   2  -2 3192.47  120.22
   2  -2  -2 3264.37  120.20
  -2  -2  -2 3244.45  120.16
  -2  -2   2 3216.66  120.14
   2   2  -2 3260.21  120.20
  -2  -2   2 3428.97  120.32
  -2   2   2 3251.04  120.22
  -2  -2   3 1865.74   64.17
  -2  -2  -3 1882.24   64.23
   2   2   3 1859.38   64.19
  -2  -2   3 1962.83   64.60
   2  -2  -3 1861.58   64.37
  -2  -2  -3 2020.86   64.51
   2   2  -3 1888.23   64.37
  -2   2  -3 1930.13   64.46
  -2   2   3 2000.74   64.44
  -2  -2   4  179.08    7.83
  -2  -2  -4  196.97    7.88
  -2   2   4  180.17    7.73
  -2   2   4  216.43    8.38
   2  -2   4  228.46    8.68
   2   2   4  218.89    8.17
  -2  -2   4  224.25    8.61
  -2  -2  -4  226.16    8.54
   2   2  -4  230.26    8.49
  -2   2  -4  226.55    8.58
   2  -2  -4  236.20    8.50
  -2   2   5  191.04    8.21
   2   2   5  199.09    8.03
   2  -2   5  185.10    8.38
  -2  -2   5  201.66    8.57
  -2  -2  -5  192.50    8.42
   2   2  -5  189.50    8.38
   2  -2  -5  194.05    8.36
  -2   2  -5  195.82    8.49
  -2   2   6  979.92   37.56
  -2  -2  -6  972.52   37.77
   2  -2  -6  945.24   37.67
   2   2  -6  987.90   37.72
  -2   2  -6 1024.35   37.88
   2  -2   6 1001.43   37.76
   2   2   6  959.97   37.34
  -2  -2   6 1023.86   37.89
   2   2  -7    3.48    2.11
  -2   2  -7    3.57    2.41
   2  -2  -7    3.00    2.08
  -2  -2  -7    1.81    2.15
  -2   2   7    0.32    1.88
   2  -2   7    1.10    1.90
  -2  -2   7    1.44    2.16
  -2  -2  -8  185.80    9.86
  -2   2  -8  218.11    9.99
   2  -2  -8  189.79    9.49
   2   2  -8  182.73    9.49
  -2  -2   8  203.29    9.69
   2  -2   8  191.81    9.48
  -2  -2   9   -0.94    1.77
  -2   2  -9    7.15    2.67
   2  -2  -9    7.50    2.60
   2   2  -9    1.60    2.56
  -2  -2  -9    6.39    2.64
  -2  -2  -9    7.47    1.80
   2  -2   9    8.32    2.42
  -2  -2   9    5.66    2.47
   2   2 -10   22.38    4.02
   2  -2 -10   30.01    4.27
  -2  -2 -10   17.18    3.97
  -2   2 -10   16.34    4.12
   2  -2 -10   28.55    2.90
   2   2 -10   26.15    2.82
  -2  -2  10   28.82    3.97
  -2   2 -14    2.87    1.39
  -2  -2 -16    2.96    1.14
  -2   2 -16    0.85    1.14
  -2  -2  16    0.41    1.27
   2  -2  16    0.47    1.44
  -2  -3   0    0.84    0.82
  -2  -3   0    0.93    0.73
  -2  -3   0    1.20    0.96
   2   3  -1 1960.38   74.84
  -2  -3   1 2047.64   74.99
  -2  -3  -1 2060.23   75.02
  -2  -3   1 2072.28   75.03
  -2  -3  -2    1.51    1.12
  -2  -3   2    1.70    1.06
   3  -2  -2    2.38    1.32
   2   3  -2    2.27    1.16
  -2  -3   3  309.36   12.60
  -2  -3  -3  323.27   12.68
   2   3   3  327.73   12.41
   3  -2  -3  347.59   12.89
  -2  -3  -3  341.79   12.86
   2   3  -3  332.44   12.77
  -3   2   3  335.62   12.92
  -2  -3   4    9.49    1.04
  -3   2   4   11.07    1.68
   2   3   4    9.06    1.09
  -2  -3   4   10.69    1.73
  -3   2   4    6.45    0.69
  -2  -3  -4   10.77    1.73
   3  -2  -4    8.44    1.52
   2   3  -4    7.95    1.53
  -3   2  -4    8.67    1.68
  -2  -3  -4    8.62    1.08
  -3   2   5    0.80    0.59
  -2  -3  -5    1.27    1.64
   2   3  -5    0.50    1.62
  -3   2  -5    2.87    1.75
   3  -2  -5    2.83    1.63
  -3   2   5    1.35    1.54
   2   3   5    0.99    1.15
   3  -2   5    3.78    1.83
  -2  -3   5    0.74    1.64
   3  -2  -6  211.24    9.16
  -2  -3  -6  207.47    9.36
   2   3  -6  219.37    9.23
  -3   2  -6  212.09    9.27
  -2  -3   6  192.24    9.22
   3  -2   6  202.60    9.18
  -3   2   6  193.61    9.12
  -3   2  -7  137.35    6.98
   3  -2  -7  123.50    6.79
  -2  -3  -7  133.86    7.05
   2   3  -7  135.43    6.80
   3  -2   7  120.10    6.69
  -2  -3   7  131.55    6.98
  -3   2   7  133.03    6.82
  -2  -3   8   11.82    2.66
   3  -2   8   11.74    2.42
  -3   2   8   12.66    2.59
   2   3  -8   10.06    2.69
   3  -2  -8    8.67    2.55
  -3   2  -8   15.10    2.94
  -2  -3  -8   13.18    2.81
   3  -2   9    1.87    2.31
  -2  -3   9    7.93    2.63
  -3   2  -9    3.38    1.69
  -2  -3  -9    4.07    2.63
   2   3  -9    0.98    2.63
   3  -2  -9    3.37    2.52
  -2  -3  10    2.90    2.64
   3  -2 -10    2.65    2.81
   2   3 -10    4.78    2.67
  -2  -3 -10    5.17    1.80
  -2  -3  12   10.24    2.50
   2   3 -13    8.64    2.29
  -3   2 -14   -0.57    1.40
   2   3  15    3.22    1.82
   2   3 -15   -1.33    1.45
   3  -2 -15    1.78    1.41
  -3   2 -16    0.19    1.06
  -2  -3 -16    1.94    1.03
  -1  -3   0 2233.57   82.68
  -1  -3   0 2264.82   82.82
  -1  -3   0 2225.63   82.83
  -1  -3   1 2310.16   88.35
   1   3  -1 2343.31   88.16
  -1  -3   1 2413.72   88.35
  -1  -3  -1 2466.51   88.38
  -1  -3  -1 2453.64   88.31
  -1  -3   2  763.63   28.22
  -1  -3  -2  785.10   28.26
  -3   1   2  756.11   28.40
  -1  -3  -2  732.29   28.22
   1   3  -2  742.19   28.19
  -3   1   3    1.48    1.55
   1   3   3    3.43    0.77
  -3   1   3    2.87    0.78
  -1  -3  -3    4.90    1.42
  -1  -3   3    2.39    0.91
  -1  -3  -3    3.13    0.92
  -3   1   4    1.88    0.87
  -1  -3   4    2.67    1.72
  -3   1   4    4.46    1.64
   1   3   4    4.11    1.09
  -1  -3  -4    3.00    1.62
   1   3  -4    3.63    1.56
  -3   1  -4    1.98    1.60
  -3   1  -5  422.94   16.29
   1   3   5  470.27   16.25
  -1  -3   5  465.36   16.78
   3  -1   5  480.50   16.80
  -3   1   5  465.12   16.72
   1   3  -5  496.18   16.78
  -1  -3  -5  494.46   16.85
  -3   1  -5  467.74   16.81
  -3   1   5  369.00   15.90
  -1  -3  -6  598.72   23.41
   1   3  -6  591.06   23.20
  -3   1  -6  606.81   23.37
   1   3   6  573.34   22.72
  -1  -3   6  586.96   23.31
   3  -1   6  571.50   23.11
  -3   1   6  615.32   23.30
  -1  -3  -7  119.39    6.77
  -3   1  -7  132.96    6.94
   1   3  -7  131.15    6.74
  -1  -3   7  127.05    6.71
   3  -1   7  136.78    6.72
  -3   1   7  126.91    6.65
   1   3  -8   96.48    6.10
  -1  -3  -8   99.85    6.20
  -3   1  -8   96.33    6.16
   3  -1   8   97.06    5.73
  -1  -3   8   86.80    5.99
  -3   1   8   99.21    6.11
  -1  -3   9   19.71    3.41
   1   3  -9   11.85    3.38
  -1  -3  -9   22.75    3.59
  -3   1  -9   22.82    2.50
   3  -1  10   31.07    3.33
  -1  -3  10   16.25    3.71
   1   3 -10   17.01    4.03
  -1  -3 -10   19.89    3.91
  -1  -3 -10   32.09    2.95
  -1  -3 -11   12.62    2.37
  -3   1 -12    0.10    1.75
   1   3  13    2.49    2.28
  -3   1 -13   -0.59    1.59
  -3   1 -15   -0.28    1.37
  -3   1 -16    0.64    1.14
  -1  -3 -16    0.33    1.10
   3  -1  16    0.65    1.34
   0  -3   0    0.71    0.63
   0  -3  -1   61.83    2.72
   0  -3   1   66.15    2.73
   0  -3  -1   65.70    2.61
   0  -3   1   61.14    2.84
   0   3  -1   59.85    2.51
   0  -3  -1   62.95    2.53
  -3   0   1   65.71    2.93
  -3   0   2    8.08    1.01
  -3   0   2    8.26    1.18
  -3   0   2    8.20    1.45
   0  -3  -2    7.50    1.11
   0   3  -2    8.83    1.10
   3   0  -2    8.63    1.41
   3   0  -3  849.55   31.82
   0   3  -3  805.61   31.69
   0  -3  -3  857.54   31.75
  -3   0   3  867.68   31.61
  -3   0  -3  863.73   31.64
   0  -3   3  832.86   31.90
  -3   0   3  835.81   31.60
  -3   0   3  861.25   31.91
   0   3   3  840.52   31.49
   3   0  -4 3522.24  125.46
  -3   0  -4 3529.28  125.55
   0  -3  -4 3375.78  125.43
   0   3  -4 3524.11  125.47
   0  -3   4 3476.24  125.62
  -3   0  -4 3467.98  125.41
  -3   0  -4 3386.70  125.08
  -3   0   4 3220.57  125.07
  -3   0   4 3257.99  125.19
   0   3   4 3345.43  125.16
  -3   0   4 3411.22  125.56
  -3   0   5  501.80   19.21
  -3   0   5  594.74   19.91
   0   3   5  549.35   19.36
   0   3  -5  591.71   19.83
   3   0  -5  577.29   19.74
   0  -3  -5  584.84   19.87
  -3   0  -5  575.24   19.89
   0  -3   5  585.08   19.93
   3   0   5  571.85   19.72
  -3   0  -5  552.59   19.53
   0   3  -6  193.36    8.35
   3   0  -6  194.27    8.26
   0  -3  -6  189.74    8.34
  -3   0  -6  194.88    8.39
   3   0   6  173.36    8.02
   0  -3   6  193.27    8.35
  -3   0   6  193.18    8.26
   0   3   6  181.53    7.78
   3   0  -7   97.46    5.39
   0   3  -7   89.83    5.49
  -3   0  -7   87.75    5.47
   0  -3  -7   91.35    5.44
   0  -3   7   86.02    5.25
   3   0   7   86.69    5.08
  -3   0   7   99.28    5.45
  -3   0  -8   33.91    3.79
   3   0  -8   32.63    3.46
   0   3  -8   33.11    3.82
   0  -3  -8   28.22    3.56
   0  -3   8   28.43    3.47
   3   0   8   34.54    3.36
  -3   0   8   33.02    3.69
   0  -3   9   70.12    5.20
   0   3  -9   53.26    5.26
   0  -3  -9   50.24    5.02
   3   0  -9   49.02    5.13
  -3   0   9   62.75    5.12
  -3   0  -9   61.07    3.88
   3   0 -10    0.56    2.42
   0   3 -10    2.56    2.62
   0  -3 -10   -1.75    2.87
   0  -3  10   -1.84    2.41
   0   3 -11   15.23    2.33
   0  -3 -11   12.60    2.34
  -3   0  11   10.56    2.55
   3   0  11   13.06    2.75
  -3   0 -12    7.80    2.11
   0   3 -12    5.73    2.14
   0  -3 -12    6.10    2.20
   0  -3  12    6.76    2.47
   3   0 -13    1.32    1.81
   0   3  13   -1.10    2.11
  -3   0 -13   -1.12    1.46
  -3   0 -15    1.04    1.38
  -3   0 -16    1.83    1.17
  -3  -1   0 9556.24  353.94
  -3  -1   0 9658.38  353.99
  -3  -1  -1   71.00    3.05
  -3  -1   1   72.57    3.05
  -3  -1   1   67.69    3.01
  -3  -1   1   78.68    3.16
   1  -3  -1   62.51    2.76
  -1   3  -2  366.49   14.93
   1  -3  -2  370.06   14.90
  -3  -1   2  416.57   15.01
  -3  -1  -2  424.91   15.04
   3   1  -2  379.65   15.06
  -3  -1  -2  428.89   15.18
  -3  -1   2  399.18   15.02
  -3  -1   2  388.23   15.17
   3   1  -3 8861.97  326.07
  -1   3  -3 8578.23  326.00
   1  -3  -3 9004.90  326.00
  -3  -1  -3 9117.85  326.09
   1  -3   3 9074.12  326.26
  -3  -1  -3 8965.83  325.89
  -3  -1   3 8315.39  325.85
  -3  -1   3 8772.56  326.00
  -3  -1   3 9025.24  326.21
  -1   3   3 8983.37  325.88
  -3  -1   4 2032.61   80.51
  -3  -1  -4 2014.70   80.51
  -3  -1  -4 2380.38   80.94
   1  -3   4 2279.99   81.11
   3   1   4 2112.06   80.84
  -3  -1   4 2183.53   80.81
   3   1  -4 2204.92   80.91
  -1   3  -4 2344.68   80.99
   1  -3  -4 2175.23   80.88
  -1   3   4 2265.22   80.76
  -3  -1   4 2272.74   81.09
  -3  -1   5  127.13    5.43
  -1   3   5  125.94    5.00
   3   1   5  117.54    5.05
   1  -3   5  126.83    5.45
  -1   3  -5  132.01    5.42
   3   1  -5  125.71    5.33
   1  -3  -5  128.86    5.31
  -3  -1   6   13.43    1.71
  -1   3   6   16.87    2.06
  -3  -1   6   18.72    2.50
   3   1   6   14.06    2.14
   1  -3   6   19.12    2.52
  -1   3  -6   16.12    2.52
   3   1  -6   14.89    2.32
   1  -3  -6   16.45    2.47
  -3  -1   7    1.34    1.27
  -1   3  -7    5.23    2.26
   1  -3  -7    2.44    2.03
   3   1  -7    0.65    2.01
   3   1   7    2.35    1.71
   1  -3   7    3.43    1.98
  -3  -1   7    0.73    2.12
   1  -3  -8   72.73    5.31
  -1   3  -8   91.70    5.71
   3   1  -8   83.53    5.28
   1  -3   8   70.74    5.21
  -3  -1   8   78.82    5.32
   3   1  -9    4.75    2.55
  -1   3  -9    4.05    2.75
   1  -3  -9    5.78    2.67
   1  -3  -9    7.69    1.72
  -3  -1   9    4.53    2.59
   1  -3   9    8.83    2.55
  -3  -1  10   28.26    2.87
  -1   3 -10   21.29    4.06
   1  -3 -10   19.73    3.86
   3   1 -10   16.99    3.83
  -3  -1  10   28.67    3.96
   1  -3  10   23.99    3.76
  -1   3 -10   24.99    2.81
  -1   3 -11    4.90    1.92
  -3  -1 -12   16.74    2.12
   1  -3  12   18.40    3.02
   3   1 -13    2.34    1.96
   1  -3  15    0.78    1.56
  -1   3 -16   -1.06    1.16
  -3  -2   0    0.57    0.94
  -3  -2   0    0.58    0.80
  -3  -2   0    1.30    0.91
  -3  -2   1 4153.25  155.64
   2  -3  -1 4182.15  155.46
  -3  -2  -1 4238.81  155.62
  -3  -2   1 4300.64  155.62
  -3  -2   2  417.24   15.58
   3   2  -2  393.12   15.60
  -3  -2  -2  428.96   15.62
   2  -3  -2  396.53   15.51
  -3  -2   2  411.91   15.71
  -3  -2  -3 2975.00  114.08
  -3  -2   3 3199.14  114.11
  -3  -2   3 3146.41  114.40
  -3  -2   3 3053.82  114.29
   2  -3  -3 3078.85  114.14
   3   2  -3 3124.58  114.24
  -2   3  -3 3103.61  114.21
  -2   3   3 3025.29  114.13
  -3  -2  -4  380.94   15.23
  -3  -2   4  361.51   15.17
  -3  -2   4  422.78   15.87
   2  -3   4  428.06   15.90
   3   2   4  392.99   15.37
  -3  -2   4  386.74   15.55
   2  -3  -4  424.07   15.57
   3   2  -4  395.14   15.57
  -3  -2  -4  413.63   15.71
  -2   3  -4  416.84   15.67
  -2   3   4  426.02   15.56
  -3  -2   5   61.58    3.26
  -3  -2   5   67.51    3.91
  -2   3   5   91.25    4.17
   3   2   5   90.69    3.95
   2  -3   5   81.06    4.48
  -3  -2   5   86.59    4.48
  -2   3  -5   82.57    4.37
   2  -3  -5   86.74    4.26
   3   2  -5   84.47    4.24
  -3  -2  -5   81.18    4.30
  -3  -2   6    2.98    1.37
  -2   3  -6    1.60    2.06
   2  -3  -6    2.57    1.95
  -3  -2  -6    2.47    2.10
   3   2  -6    1.53    2.00
   3   2   6    1.79    1.58
  -2   3   6    1.52    1.74
   2  -3   6    0.30    2.01
  -3  -2   6    5.39    2.12
  -3  -2   7   17.71    2.11
   2  -3  -7   19.35    2.72
  -2   3  -7   25.39    3.12
  -3  -2  -7   30.82    3.21
   3   2  -7   25.09    2.80
   2  -3   7   25.98    3.09
  -3  -2   7   31.52    3.01
  -2   3   7   29.09    2.74
  -3  -2  -8   -1.18    2.40
  -2   3  -8    2.57    2.43
   2  -3  -8    2.30    2.27
   3   2  -8    3.42    2.18
   2  -3   8   -0.27    1.92
  -3  -2   8    2.22    2.22
   2  -3   9   40.95    4.16
  -2   3  -9   38.07    4.75
   2  -3  -9   37.49    4.29
   3   2  -9   35.19    4.22
  -3  -2   9   45.48    4.46
  -3  -2  -9   38.63    3.16
  -3  -2  10   -0.20    2.53
   2  -3  10    4.67    2.45
   3   2 -10    0.38    2.54
   2  -3 -10    0.97    2.58
  -2   3 -10   -1.29    1.65
  -3  -2 -12    8.92    2.13
   2  -3  12    5.88    2.45
   2  -3 -13   10.15    2.30
  -2   3 -13    9.71    2.18
  -2   3 -14    2.27    1.42
   3   2 -15   -2.70    1.53
   2  -3 -15    4.58    1.39
  -2   3 -15    1.76    1.40
  -2   3  15   -0.55    1.43
  -3  -2 -16    0.99    1.11
  -3  -2  16   -0.80    1.14
   2  -3  16    3.04    1.40
  -3  -3   0  944.23   34.63
  -3  -3   0  900.78   34.47
  -3  -3   0  944.91   34.66
   3  -3  -1  683.05   26.78
   3   3  -1  730.54   26.82
  -3  -3   1  703.24   26.91
  -3  -3   1  750.57   26.96
  -3  -3  -1  725.67   26.95
  -3  -3   2 2682.73   99.11
  -3  -3  -2 2633.94   98.96
  -3  -3   2 2717.13   98.96
  -3  -3   2 2689.14   99.08
   3   3  -2 2638.46   98.89
   3  -3  -2 2681.18   98.90
  -3  -3   3  686.40   26.56
   3  -3  -3  712.36   26.41
   3   3  -3  705.27   26.39
  -3  -3   3  726.12   26.37
  -3  -3  -3  660.92   26.34
  -3  -3   4   13.00    1.38
  -3  -3  -4   17.26    1.50
  -3  -3   4   17.83    2.26
   3   3   4   20.82    1.46
  -3  -3   4   16.83    1.89
  -3  -3  -4   18.61    1.98
   3  -3  -4   18.39    1.87
   3   3  -4   18.17    1.83
  -3   3   4   18.75    1.98
   3  -3   5  206.77    8.59
   3   3   5  200.67    7.79
  -3  -3   5  212.41    8.58
  -3   3  -5  187.96    8.38
   3  -3  -5  193.99    8.26
   3   3  -5  211.04    8.26
  -3  -3  -5  204.33    8.42
  -3   3   5  202.29    8.34
  -3  -3   5  177.93    8.10
  -3  -3   6  219.96    9.33
   3  -3   6  210.67    9.27
  -3  -3  -6  213.56    9.26
  -3   3  -6  208.38    9.25
   3   3  -6  208.46    9.14
   3  -3  -6  196.55    9.06
  -3   3   6  213.53    9.09
  -3  -3  -7    0.13    2.21
   3  -3  -7   -0.78    1.98
   3   3  -7    1.34    1.92
  -3   3  -7    0.88    2.03
  -3  -3   7    0.25    2.10
   3  -3   7    4.00    2.05
  -3   3   7    3.34    2.01
  -3  -3   7   -0.09    1.41
   3  -3   8   62.52    4.41
  -3  -3  -8   60.96    4.66
  -3   3  -8   57.40    4.67
   3   3  -8   52.87    4.43
   3  -3  -8   52.50    4.28
  -3  -3   8   56.22    4.45
  -3  -3   9    5.99    2.51
   3  -3   9   -1.29    2.34
   3   3  -9   -1.30    2.63
   3  -3  -9    0.49    2.37
   3  -3  10   -0.19    2.48
  -3  -3  10    4.02    2.55
   3   3 -10    0.38    2.62
   3  -3 -10    1.94    2.69
  -3   3 -14   -0.64    1.41
  -3   3 -15    1.12    1.35
   3  -3 -15    4.34    1.37
  -3   3  15    2.03    1.37
   3   3  15    0.90    1.77
  -3  -4   0   -0.38    1.11
  -3  -4   0    0.09    1.30
  -3  -4   0   -0.25    1.00
  -3  -4   1   43.78    2.49
  -3  -4  -1   41.81    2.49
   3   4  -1   45.36    2.27
  -3  -4   1   45.45    2.59
  -3  -4  -1   48.42    2.61
  -3  -4   1   46.19    2.49
   3   4  -2   74.38    3.41
   4  -3  -2   72.83    3.55
  -3  -4  -2   75.22    3.57
  -3  -4   2   72.90    3.58
  -3  -4   2   82.40    3.82
  -3  -4   3   35.18    2.18
  -3  -4  -3   35.61    2.24
   3   4   3   33.02    1.51
  -3  -4   3   35.08    2.58
   4  -3  -3   30.63    2.29
   3   4  -3   33.09    2.10
  -3  -4   3   34.78    2.48
  -3  -4   4    0.34    0.98
  -3  -4  -4    0.53    1.03
   3   4  -4    1.10    1.30
   4  -3  -4    2.81    1.43
  -3  -4   4    1.55    1.40
  -3  -4  -5   65.80    3.44
  -3  -4   5   60.50    3.33
  -3  -4   5   65.42    4.06
  -4   3   5   81.76    4.31
   4  -3  -5   78.72    4.09
  -3  -4  -5   81.44    4.31
   3   4  -5   77.87    4.04
   4  -3   5   78.32    4.40
  -3  -4   5   82.10    4.46
  -3  -4   6  179.05    8.53
  -4   3   6  197.16    8.86
   4  -3  -6  202.36    8.77
  -3  -4  -6  190.06    8.87
   3   4  -6  192.52    8.70
   4  -3   6  185.55    8.90
  -3  -4   6  200.91    8.95
  -3  -4  -7   25.24    3.12
   3   4  -7   21.44    2.71
   4  -3  -7   26.31    2.97
  -3  -4   7   17.02    2.42
  -4   3   7   24.34    2.86
   4  -3   7   32.74    3.21
  -3  -4   7   23.26    2.95
   4  -3  -8    8.52    2.52
   3   4  -8    9.30    2.52
  -3  -4   8    3.46    1.73
   4  -3   8    8.63    2.48
  -3  -4   8    8.24    2.51
  -3  -4   9    2.51    2.44
   4  -3   9    3.79    2.29
   4  -3  -9    6.43    2.70
   3   4  -9    1.81    2.39
  -3  -4  10    0.81    2.58
   4  -3 -10   -1.37    2.82
   3   4 -10   -0.77    2.77
  -4   3 -10    2.17    1.78
   4  -3 -11   18.34    2.80
  -3  -4 -12    5.04    1.97
   4  -3 -13    4.23    2.02
   3   4  13    5.22    2.46
  -4   3 -14    2.02    1.48
  -4   3 -14    2.59    1.53
  -4   3 -15   -1.99    1.34
  -3  -4  15    0.16    1.52
  -3  -4 -15    1.98    1.30
  -2  -4   0  680.88   25.18
  -2  -4   0  648.06   25.37
  -2  -4   0  691.83   25.41
  -2  -4   1  557.80   20.95
   2   4  -1  536.24   20.69
  -2  -4   1  547.85   20.95
  -2  -4  -1  566.59   20.99
  -2  -4  -1  576.58   20.99
  -2  -4   1  557.52   21.10
   4  -2  -2   34.55    2.20
  -2  -4   2   30.67    2.17
   2   4  -2   34.57    1.88
  -2  -4   2   33.02    2.03
  -2  -4  -2   34.07    2.10
   4  -2  -3   41.88    2.60
  -2  -4   3   41.75    2.34
  -2  -4  -3   46.45    2.43
  -4   2   3   43.26    2.72
  -2  -4  -3   41.80    2.49
   2   4  -3   41.27    2.38
  -2  -4   4    4.64    1.06
  -2  -4  -4    4.28    1.11
   2   4   4    5.30    0.80
  -4   2   4    4.57    1.60
   2   4  -4    5.53    1.43
  -2  -4  -4    5.29    1.59
   4  -2  -4    5.18    1.57
   4  -2   5   15.90    2.33
  -4   2   5   20.07    2.24
  -2  -4   5   20.49    2.36
  -2  -4  -5   14.41    2.19
   4  -2  -5   17.53    2.11
   2   4  -5   19.67    2.17
  -4   2   6   89.71    5.12
   4  -2   6   99.08    5.32
  -2  -4   6   94.14    5.25
   4  -2  -6   99.06    5.13
  -2  -4  -6   91.16    5.39
   2   4  -6   95.19    5.16
  -4   2   7   53.58    4.13
  -2  -4   7   62.94    4.25
   4  -2   7   52.63    4.03
  -2  -4  -7   55.28    4.24
   2   4  -7   51.44    4.01
   4  -2  -7   50.11    4.04
  -4   2   8    4.23    2.27
  -2  -4   8    2.58    2.30
   4  -2   8   -2.96    2.17
   2   4  -8   -1.67    2.24
  -2  -4  -8   -0.15    2.17
   4  -2  -8    3.96    2.31
  -2  -4   9   35.83    3.94
   2   4  -9   31.01    4.16
  -2  -4  -9   28.95    3.99
   4  -2  -9   34.69    3.98
   4  -2   9   32.81    3.92
   2   4 -10    7.88    3.53
   4  -2 -10   14.55    3.63
  -2  -4  10   16.57    3.52
   2   4 -12   13.49    2.48
  -4   2  12   11.06    2.73
  -2  -4 -13   -0.67    1.75
  -4   2 -13    5.27    1.78
   4  -2 -14    3.10    1.73
  -4   2 -14    3.96    1.48
  -2  -4  15   -1.51    1.67
  -2  -4 -15    1.36    1.29
  -4   2 -15    1.06    1.37
  -1  -4   0    0.14    1.01
  -1  -4   0    1.66    0.83
  -1  -4   0    0.30    1.05
  -1  -4   1 1223.20   47.12
  -1  -4  -1 1258.49   46.76
  -1  -4  -1 1287.45   47.09
  -1  -4   1 1275.03   47.17
  -1  -4  -1 1350.27   47.23
   1   4  -1 1263.55   46.85
  -1  -4  -2    4.58    1.25
  -1  -4   2    5.00    1.14
   1   4  -2    6.20    1.09
  -1  -4  -2    4.86    1.14
  -1  -4   2    4.18    1.42
  -4   1   2    7.10    1.64
  -1  -4  -3  585.71   21.71
  -1  -4   3  562.49   21.67
  -4   1   3  530.29   21.48
  -4   1   3  596.69   22.02
  -1  -4  -3  630.80   21.83
   1   4  -3  577.43   21.72
  -4   1   4    8.54    1.00
   1   4   4   11.21    1.02
  -4   1   4   11.20    1.83
  -1  -4   4   11.00    1.85
  -4   1   4    8.96    1.00
  -1  -4  -4   11.11    1.68
   1   4  -4   12.02    1.67
   4  -1   5   11.94    2.03
  -4   1   5   14.12    2.10
  -1  -4   5   13.76    2.11
  -4   1  -5   10.05    1.67
  -4   1   5    9.83    1.10
  -1  -4  -5    8.53    2.02
   1   4  -5   11.81    1.96
  -4   1   5   10.14    1.17
  -4   1  -6    2.88    1.65
  -1  -4  -6    6.67    2.13
   1   4  -6    0.28    1.91
   4  -1   6    2.58    1.91
  -1  -4   6    2.05    1.99
  -4   1   6    4.42    2.01
  -1  -4  -7   -1.21    2.29
   1   4  -7    2.34    2.24
  -4   1   7   -0.50    2.03
   4  -1   7    1.24    2.03
  -1  -4   7   -0.49    1.97
   1   4  -8    3.70    2.58
  -1  -4  -8    3.40    2.51
   4  -1   8    3.00    2.15
  -4   1   8    2.42    2.38
  -1  -4   8    3.41    2.40
   1   4  -9   50.34    5.13
  -1  -4  -9   48.67    4.87
  -1  -4   9   57.66    4.95
  -4   1   9   52.80    5.12
  -1  -4  10   -1.14    2.62
  -1  -4 -10   -0.39    2.57
   1   4 -10   -1.56    2.66
  -4   1 -11    0.80    1.67
  -1  -4 -11    2.05    1.74
  -4   1 -13    3.34    1.70
  -1  -4 -13    5.20    1.96
   4  -1  13    1.23    2.28
   1   4 -14    4.20    1.71
  -4   1  14    4.19    1.87
  -4   1 -15    2.96    1.41
  -1  -4  15    2.54    1.74
  -4   1 -16    0.33    1.08
   0  -4   0  400.66   15.25
   0  -4   1 3377.00  128.00
   0  -4  -1 3552.00  127.83
   0  -4  -1 3351.50  127.96
   0  -4   1 3521.57  127.98
   0  -4  -1 3452.59  127.67
   0   4  -1 3479.28  127.66
  -4   0   2   20.33    1.68
  -4   0   2   23.98    2.12
   4   0  -2   21.07    1.93
  -4   0   2   19.15    1.60
   0  -4  -2   17.93    1.47
   0   4  -2   18.25    1.61
  -4   0   3   78.63    3.65
  -4   0   3   86.23    4.12
  -4   0   3   84.32    3.71
  -4   0  -3   88.08    3.78
   4   0  -3   85.74    4.02
  -4   0   3   71.52    3.58
   0   4  -3   81.54    3.73
   0  -4  -3   82.01    3.76
   0  -4   4  314.00   12.79
  -4   0  -4  322.95   12.63
   0   4   4  310.16   12.13
  -4   0   4  336.20   12.86
  -4   0   4  294.51   12.26
  -4   0  -4  356.00   12.45
  -4   0   4  295.20   12.25
   0   4  -4  311.21   12.54
   0  -4  -4  315.93   12.54
   4   0  -4  337.90   12.69
   0  -4   5  196.27    8.05
   4   0   5  190.50    7.83
  -4   0  -5  188.59    7.84
   0   4   5  191.99    7.30
  -4   0   5  210.45    8.06
  -4   0   5  146.31    6.96
   0   4  -5  192.34    7.83
   4   0  -5  174.51    7.80
   0  -4  -5  181.99    7.91
  -4   0   5  154.78    7.16
  -4   0  -6   13.03    2.04
  -4   0   6   15.69    1.60
  -4   0   6   20.75    2.67
   4   0   6   16.88    2.37
   0  -4   6   23.94    2.67
   4   0  -6   18.89    2.47
   0  -4  -6   21.66    2.60
   0   4  -6   14.73    2.49
  -4   0   7  494.15   19.51
   0  -4   7  463.14   19.42
   4   0   7  478.66   19.08
   0  -4  -7  461.92   19.45
   0   4  -7  473.99   19.43
   4   0  -7  454.28   19.20
  -4   0   8  366.00   15.30
   4   0  -8  329.63   14.94
   0  -4  -8  332.38   15.16
   0   4  -8  348.62   15.29
   0  -4   8  315.60   14.99
   4   0  -9   15.50    3.29
   0  -4  -9   19.10    3.42
   0   4  -9   15.19    3.60
   0  -4   9   16.22    3.14
  -4   0   9   23.13    3.42
   0  -4 -10    0.59    2.71
   0   4 -10    2.76    2.70
   4   0 -10    2.45    2.66
   0  -4  10    6.48    2.58
  -4   0 -11    4.72    1.86
   0  -4  11    1.84    1.91
  -4   0 -12    3.53    1.84
  -4   0 -12    5.51    1.91
  -4   0 -13    0.07    1.45
   4   0 -14    0.18    1.73
   0   4 -14    2.75    1.62
   0  -4 -14    1.36    1.60
   0  -4  15    1.96    1.72
  -4   0 -15    3.17    1.43
   0  -4  16    1.18    1.34
  -4   0 -16    0.95    1.06
   1  -4   0    2.06    0.43
  -4  -1   0    1.08    1.08
  -4  -1   0    1.77    1.47
  -4  -1  -1   21.53    1.74
  -4  -1   1   24.56    1.75
   1  -4  -1   21.91    1.29
  -4  -1   1   20.96    1.64
  -4  -1   1   20.56    1.95
   1  -4  -1   21.67    1.19
   4   1  -2  349.92   13.64
  -4  -1   2  374.90   13.61
  -4  -1  -2  379.08   13.67
  -4  -1   2  334.46   13.51
  -4  -1   2  390.10   13.66
  -4  -1  -2  368.77   13.78
  -1   4  -2  327.86   13.41
   1  -4  -2  327.99   13.37
  -4  -1   3  120.71    5.42
   4   1  -3  120.89    5.28
  -4  -1  -3  121.36    5.13
  -4  -1   3  122.31    5.08
  -4  -1   3  117.59    5.08
  -4  -1  -3  117.75    5.34
  -1   4  -3  116.26    5.09
   1  -4  -3  110.59    5.01
  -4  -1   4  458.76   16.91
  -1   4   4  426.08   16.33
  -4  -1  -4  451.04   16.80
   1  -4   4  422.47   16.93
  -4  -1  -4  416.01   16.37
  -4  -1   4  397.74   16.30
  -1   4  -4  437.01   16.64
   4   1  -4  444.83   16.70
   1  -4  -4  443.21   16.62
  -4  -1   4  405.61   16.45
  -4  -1   5   14.15    1.33
   1  -4   5   16.98    2.26
  -4  -1   5   18.77    2.35
   4   1   5   21.40    2.09
  -1   4  -5   17.76    2.19
   1  -4  -5   15.29    2.05
   4   1  -5   16.65    2.09
  -1   4   5   19.25    1.82
  -4  -1   5   13.91    1.63
  -4  -1  -5   18.42    2.06
   1  -4   6  502.86   19.80
   4   1   6  523.31   19.32
   4   1  -6  523.33   19.57
   1  -4  -6  483.36   19.45
  -1   4  -6  515.64   19.76
  -4  -1   6  523.01   19.75
   1  -4   7   77.26    4.99
   4   1   7   76.65    4.65
  -4  -1   7   81.84    5.17
  -1   4  -7   89.24    5.22
   1  -4  -7   79.34    5.16
   4   1  -7   83.41    5.01
  -1   4  -8   30.05    3.69
   4   1  -8   25.15    3.28
   1  -4  -8   18.05    3.32
  -4  -1   8   23.56    3.24
   1  -4   8   13.37    3.05
   4   1  -9    2.68    2.29
  -1   4  -9    4.23    2.60
   1  -4  -9    0.17    2.45
  -4  -1   9    1.65    2.50
   1  -4   9    0.83    2.19
   4   1 -10    2.65    2.59
   1  -4 -10   -0.79    2.62
  -1   4 -10   -2.19    2.81
   1  -4  10    7.60    2.62
  -4  -1  10    3.96    2.75
  -4  -1 -11    5.38    1.71
   1  -4  11    5.05    2.21
  -4  -1 -12    1.47    1.56
  -1   4 -13    0.37    1.68
  -4  -1  13    6.86    1.93
   4   1 -14   -1.80    1.75
   1  -4 -14    2.62    1.71
   4   1  14    2.87    2.03
   1  -4  15    1.23    1.60
   1  -4  15    1.53    1.72
   1  -4  16    3.20    1.46
  -4  -2   0   15.44    1.67
  -4  -2   0   19.31    1.94
  -4  -2  -1  359.04   13.79
  -4  -2   1  373.34   13.81
   2  -4  -1  355.69   13.48
  -4  -2   1  339.15   13.80
  -4  -2   1  360.78   13.79
  -4  -2  -2  343.04   13.28
   4   2  -2  343.82   13.17
  -4  -2  -2  346.98   13.15
  -4  -2   2  324.87   13.08
   2  -4  -2  334.83   12.92
  -4  -2   2  342.69   13.20
  -4  -2  -3  144.83    6.18
   4   2  -3  147.81    6.28
  -4  -2   3  161.53    6.20
  -2   4  -3  146.12    6.16
   2  -4  -3  143.04    6.09
  -4  -2  -3  147.82    6.35
  -4  -2   3  135.96    6.28
  -4  -2   4  243.51    9.62
  -4  -2  -4  226.52    9.55
   2  -4   4  255.07   10.20
  -4  -2   4  232.22    9.77
  -2   4  -4  243.30    9.85
   4   2  -4  250.36    9.87
   2  -4  -4  239.57    9.73
  -4  -2   4  238.31   10.12
  -4  -2   5   73.29    3.83
   4   2   5   91.77    4.30
   2  -4   5   92.62    4.89
   4   2  -5   95.55    4.61
  -2   4  -5   98.27    4.72
   2  -4  -5   95.08    4.63
  -4  -2   5   89.68    4.85
  -2   4   5   93.51    4.41
  -4  -2   5   78.56    4.31
   4   2   6  214.75    8.78
   2  -4   6  215.92    9.40
   2  -4  -6  205.59    9.19
  -2   4  -6  208.02    9.41
   4   2  -6  215.63    9.18
  -4  -2   6  205.81    9.34
  -2   4   6  215.57    8.99
  -4  -2   7    5.50    1.59
  -4  -2   7    8.61    2.42
   2  -4   7    8.31    2.33
   2  -4  -7    4.80    2.19
   4   2  -7    7.03    2.29
  -2   4  -7    8.03    2.51
  -4  -2   8   18.37    3.15
   2  -4   8   20.72    2.99
   4   2  -8   22.42    3.10
   2  -4  -8   25.72    3.19
  -2   4  -8   25.36    3.35
  -4  -2   9   -1.66    2.42
   2  -4   9    0.17    2.25
   4   2  -9    0.64    2.30
   2  -4  -9    5.40    2.57
  -2   4  -9   -0.36    2.61
  -4  -2 -10    8.60    1.63
  -4  -2  10   10.22    3.17
   2  -4  10   11.11    2.89
   4   2 -10    4.79    2.94
   2  -4 -10    5.14    3.00
  -4  -2 -11    1.66    1.47
   2  -4 -12    8.81    2.27
  -2   4 -12    3.83    2.09
   4   2  12    7.99    2.59
  -2   4 -13    5.09    1.89
   2  -4  14    0.32    1.88
   4   2 -14    3.04    1.68
  -4  -2 -15    2.85    1.42
   2  -4  15    4.02    1.79
  -4  -3   0    0.05    1.34
  -4  -3   0    0.11    1.22
  -4  -3   0    1.20    1.27
  -4  -3   1  543.28   21.45
  -4  -3  -1  589.25   21.53
  -4  -3   1  583.22   21.51
   3  -4  -1  555.80   21.25
   3  -4  -2   50.39    2.59
   4   3  -2   51.66    2.71
  -4  -3   2   49.57    2.71
  -4  -3  -2   54.79    2.82
  -4  -3   2   48.65    2.92
  -4  -3   2   46.17    2.85
  -4  -3   3  560.20   20.57
  -4  -3  -3  556.43   20.59
   4   3  -3  535.99   20.57
   3  -4  -3  514.33   20.42
  -4  -3   3  519.48   20.70
  -4  -3   4   48.32    2.63
  -4  -3  -4   49.72    2.66
  -4  -3   4   41.44    2.92
   4   3  -4   44.35    2.88
   3  -4  -4   48.49    2.81
   4   3   4   47.42    2.52
  -4  -3   4   41.85    3.20
  -4  -3   5    5.20    1.07
  -4  -3   5    7.63    1.61
   3  -4  -5    6.35    1.78
   4   3  -5    7.07    1.82
   4   3   5    7.11    1.40
  -4  -3   5    8.45    2.05
   3  -4   5   10.60    2.19
  -3   4   6  165.35    7.42
  -4  -3   6  168.29    7.69
  -3   4  -6  160.73    7.62
   4   3  -6  164.61    7.47
   3  -4  -6  165.90    7.48
   3  -4   6  155.34    7.64
   4   3  -7  253.81   10.57
   3  -4  -7  249.83   10.62
  -4  -3   7  256.37   10.78
   3  -4   7  236.06   10.75
   3  -4  -8    0.14    2.06
   4   3  -8   -0.83    2.09
  -4  -3   8   -1.73    2.13
   3  -4   8    3.62    2.17
   4   3  -9   20.64    3.78
   3  -4  -9   28.68    3.88
  -4  -3   9   36.72    4.11
   3  -4   9   30.55    3.77
   4   3 -10   -0.19    2.77
   3  -4 -10   -0.20    2.84
  -4  -3  10   -1.05    2.68
   3  -4  10    7.44    2.62
  -4  -3 -10   -1.99    1.42
   4   3 -11    5.93    2.19
  -3   4 -11    6.30    2.09
  -3   4 -12    6.79    1.98
   4   3 -13    4.14    1.91
  -3   4  13    4.46    2.02
  -3   4 -14   -2.08    1.51
  -4  -3 -14    2.13    1.55
  -3   4 -15    2.64    1.37
  -4  -3 -15   -0.26    1.36
   3  -4  15   -0.17    1.76
  -4  -4   0  300.38   11.64
  -4  -4   0  309.07   11.69
  -4  -4   0  282.20   11.40
  -4  -4   1  390.54   15.63
   4  -4  -1  397.24   15.49
  -4  -4   1  421.94   15.72
  -4  -4  -1  418.19   15.74
   4   4  -2  467.76   18.04
   4  -4  -2  469.17   18.05
  -4  -4   2  471.70   18.30
  -4  -4   2  481.61   18.22
  -4  -4  -2  491.01   18.27
  -4  -4   2  453.15   18.34
  -4  -4  -3   41.77    2.48
  -4  -4   3   36.06    2.38
   4  -4  -3   39.82    2.48
   4   4  -3   41.84    2.46
  -4  -4   3   41.42    2.82
  -4  -4   3   34.23    2.62
  -4  -4   4   76.72    4.22
  -4  -4  -4   82.65    3.94
  -4  -4   4   76.41    3.86
   4  -4  -4   77.66    4.04
   4   4  -4   82.33    4.00
  -4  -4   5    8.52    2.17
   4  -4   5    8.16    2.24
  -4  -4  -5    7.99    1.26
  -4  -4   5    6.50    1.21
   4  -4  -5    9.46    1.79
   4   4  -5    9.33    1.87
  -4  -4   5    8.50    1.82
  -4  -4   6   27.35    2.63
  -4  -4   6   34.45    3.26
   4   4  -6   39.13    3.07
   4  -4  -6   35.08    3.07
   4  -4   6   36.12    3.27
  -4  -4   7   94.05    5.51
  -4  -4   7  100.31    6.16
   4  -4  -7  119.84    6.21
   4   4  -7  108.44    5.96
   4  -4   7  114.10    6.17
   4  -4  -8    6.41    2.41
   4   4  -8    8.01    2.47
  -4  -4   8    4.79    1.75
  -4  -4   8   11.20    2.52
   4  -4   8    6.55    2.49
   4  -4  -9    0.17    2.32
   4   4  -9   -0.99    2.43
   4  -4   9   -3.07    2.49
  -4  -4   9    0.19    2.34
  -4  -4  10   52.73    3.93
   4  -4  10   60.98    4.48
  -4  -4 -10   60.46    4.03
  -4   4 -10   60.40    4.11
  -4  -4 -11    3.11    1.88
  -4   4 -11    2.18    1.86
   4  -4 -13    0.87    1.74
  -4   4  13    2.72    1.85
   4   4  13    5.43    2.15
  -4   4 -14   -0.39    1.48
  -4  -4 -15    1.24    1.39
  -4   4 -15   -0.12    1.33
   4   4 -15   -0.56    1.35
   4  -4 -15    0.78    1.34
   4   4  15   -0.17    1.80
  -4  -4  15   -1.78    1.53
  -4   4  15    1.54    1.37
  -4  -5   0    0.11    1.22
  -4  -5   0    0.91    1.35
  -4  -5   0    0.53    0.99
  -4  -5   1   17.10    1.65
  -4  -5  -1   20.34    1.79
  -4  -5   1   14.60    1.86
  -4  -5   1   16.40    1.67
   4   5  -1   17.20    1.42
   4   5  -2   77.69    3.62
   5  -4  -2   79.11    3.79
  -4  -5  -2   77.13    3.89
  -4  -5   2   79.96    3.94
  -4  -5   2   78.07    3.95
  -4  -5  -3  120.40    5.48
  -4  -5   3  126.62    5.43
  -4  -5   3  112.62    5.54
  -4  -5   3  111.82    5.58
   4   5  -3  121.53    5.22
   5  -4  -3  112.97    5.37
  -4  -5   4    0.35    1.72
  -4  -5   4    0.26    1.65
   4   5  -4    3.23    1.41
   5  -4  -4   -0.43    1.49
  -4  -5   4    0.72    1.20
  -4  -5  -4    0.34    1.25
  -4  -5   5  564.66   21.62
   5  -4  -5  593.13   21.44
   4   5  -5  585.45   21.34
  -4  -5  -5  530.20   20.97
  -4  -5   6   75.10    4.68
   4   5  -6   83.75    4.67
   5  -4  -6   89.35    4.94
   5  -4   6   85.39    5.09
  -4  -5   6   83.56    4.97
  -4  -5   7   50.95    3.89
  -4  -5   7   66.58    4.57
   5  -4   7   58.31    4.35
   5  -4  -7   54.62    4.37
   4   5  -7   64.74    4.31
  -4  -5   8   -0.13    1.68
   5  -4  -8    3.40    2.29
   4   5  -8    5.13    2.20
   5  -4   8    3.28    2.34
  -4  -5   8    5.92    2.43
   5  -4   9   45.45    4.68
   5  -4   9   43.39    3.68
  -5   4  -9   45.59    3.50
  -4  -5  -9   50.56    3.49
  -4  -5   9   52.44    4.90
   5  -4  -9   39.68    4.68
   4   5  -9   40.28    4.70
  -5   4 -13    3.97    1.69
  -4  -5 -14   -1.32    1.52
  -5   4 -14    2.81    1.47
   5  -4 -14    0.94    1.59
  -4  -5  14   -1.93    1.82
  -5   4 -14    2.01    1.45
   4   5 -15   -1.76    1.34
  -4  -5  15   -0.87    1.58
  -5   4 -15    0.27    1.07
  -4  -5 -15    1.86    1.27
  -5   4 -15   -0.52    1.30
   5  -4  15    2.55    1.58
  -4  -5  15   -0.07    1.42
  -3  -5   0  119.94    5.28
  -3  -5   0  125.02    5.33
  -3  -5   0  121.62    4.99
  -3  -5   1 1106.82   41.47
   3   5  -1 1107.03   41.22
  -3  -5  -1 1090.39   41.60
  -3  -5   1 1112.78   41.56
  -3  -5   1 1113.60   41.64
  -3  -5  -1 1122.45   41.61
  -3  -5   2  324.74   12.87
  -3  -5  -2  333.97   12.92
   5  -3  -2  337.41   12.88
  -3  -5   2  326.77   12.97
   3   5  -2  320.64   12.60
  -3  -5  -3   44.05    2.62
  -3  -5   3   38.68    2.46
  -3  -5   3   39.09    2.73
   5  -3  -3   41.63    2.63
  -3  -5   3   37.46    2.76
   3   5  -3   38.29    2.31
  -3  -5   4   85.20    4.65
  -3  -5  -4   96.97    4.40
  -3  -5   4   91.28    4.22
   3   5  -4   83.12    4.29
   5  -3  -4   95.77    4.57
  -3  -5   4   83.94    4.70
  -3  -5   5    5.50    1.87
   5  -3  -5    2.94    1.79
   3   5  -5    6.16    1.73
  -3  -5  -5    4.44    1.23
  -3  -5   5    3.61    1.16
  -3  -5   6    1.72    1.73
   5  -3  -6    0.10    1.88
   3   5  -6    1.13    1.77
  -5   3   6    1.53    1.98
   5  -3   6    0.35    2.00
  -3  -5   6    4.33    1.99
  -5   3   7   85.27    5.37
   5  -3  -7   90.28    5.39
   3   5  -7   90.56    5.15
   5  -3   7   89.65    5.37
  -3  -5   7   87.11    5.36
   5  -3  -8   68.00    4.94
   3   5  -8   63.58    4.80
  -3  -5   8   67.78    4.93
   5  -3   8   70.57    5.03
   3   5  -9    2.31    2.38
   5  -3  -9   -1.01    2.44
   5  -3   9   -0.35    2.31
  -3  -5   9    1.84    2.38
  -5   3 -10   50.01    3.79
  -3  -5 -11    2.91    1.86
   3   5 -13   -1.39    1.80
  -5   3 -13    2.74    1.87
  -3  -5 -14    3.08    1.57
  -5   3 -14   -1.35    1.56
  -5   3 -14   -1.43    1.40
  -5   3 -15    2.22    1.31
  -3  -5 -15    2.46    1.31
  -3  -5  15    1.17    1.63
  -3  -5  15    0.77    1.52
   5  -3  15    3.17    1.65
  -2  -5   0    1.38    1.17
  -2  -5   0    0.96    1.27
  -2  -5   0    2.25    1.00
  -2  -5  -1 1137.31   42.54
  -2  -5   1 1107.05   42.52
  -2  -5   1 1152.38   42.47
   2   5  -1 1154.44   42.16
  -2  -5   1 1181.93   42.67
  -2  -5  -1 1177.75   42.55
  -2  -5  -1 1109.68   42.06
  -2  -5   2  257.30   10.42
  -2  -5  -2  270.14   10.50
  -2  -5   2  251.55   10.46
   5  -2  -2  280.28   10.54
  -2  -5   2  257.57   10.65
   2   5  -2  263.39   10.14
   5  -2  -3  228.39    8.86
   2   5  -3  205.30    8.52
  -2  -5  -3  222.38    8.81
  -2  -5   3  217.22    8.68
  -2  -5   3  196.71    8.80
  -2  -5   4   27.67    1.99
  -2  -5  -4   28.46    2.09
   5  -2  -4   32.28    2.47
   2   5  -4   28.62    2.21
  -2  -5  -4   33.89    2.36
  -5   2   4   29.75    2.59
  -2  -5  -5  160.61    7.54
   5  -2  -5  170.17    7.44
   2   5  -5  152.90    7.30
  -5   2   5  180.62    7.77
   2   5  -6   25.47    2.60
  -2  -5  -6   27.16    2.79
   5  -2  -6   20.53    2.56
  -5   2  -6   20.04    2.32
  -5   2   6   23.82    2.78
  -2  -5   6   18.86    2.65
   5  -2   6   25.00    2.81
   2   5  -7    9.73    2.55
   5  -2  -7   11.38    2.57
  -2  -5  -7    9.57    2.65
  -5   2   7   15.81    2.73
  -2  -5   7   15.60    2.67
   5  -2   7    9.64    2.58
   2   5  -8   21.16    3.23
  -2  -5  -8   28.37    3.56
   5  -2  -8   23.21    3.43
  -2  -5   8   17.69    2.78
  -2  -5   8   35.42    3.65
   5  -2   8   20.71    3.30
  -5   2   8   30.52    3.58
  -2  -5   9   15.67    2.47
  -2  -5   9    9.09    2.79
   2   5  -9   22.73    3.82
   5  -2  -9   24.01    3.72
  -5   2  -9   22.04    2.49
  -2  -5  -9   25.42    2.57
  -2  -5   9   32.65    3.81
   5  -2   9   20.97    3.60
  -5   2 -10    0.85    1.75
   2   5 -10    3.06    2.69
  -2  -5 -12    0.99    1.79
  -5   2 -13    2.79    1.66
  -5   2 -14    1.06    1.55
   2   5 -14   -0.32    1.58
  -5   2 -15    3.38    1.34
  -2  -5  15    5.61    1.74
  -2  -5 -15    2.32    1.36
  -1  -5   0 2583.72   94.87
  -1  -5   0 2499.94   94.58
  -1  -5   0 2634.70   94.81
  -1  -5   1   64.05    3.13
  -1  -5  -1   67.26    2.66
  -1  -5  -1   64.08    3.06
  -1  -5   1   71.72    3.24
  -1  -5  -1   70.25    3.28
   1   5  -1   63.77    2.65
  -1  -5  -2    4.70    1.29
  -1  -5   2    4.72    1.17
  -1  -5  -2    5.31    1.00
   1   5  -2    5.46    0.95
  -1  -5   2    3.67    1.35
  -1  -5  -3  149.46    6.14
  -1  -5   3  144.71    6.05
  -5   1   3  152.73    6.43
  -1  -5  -3  143.52    6.02
   1   5  -3  140.58    5.93
  -5   1   3  133.05    5.92
  -1  -5   3  139.25    6.31
  -5   1   4    3.54    1.06
  -5   1   4    6.92    1.85
  -1  -5  -4    3.86    1.57
   1   5  -4    4.10    1.33
  -5   1  -5   70.31    3.86
  -1  -5   5   69.76    4.03
  -5   1   5   83.12    4.27
  -5   1   5   61.72    3.29
  -1  -5  -5   76.33    4.04
   1   5  -5   70.36    3.84
  -5   1   5   57.87    3.07
  -5   1   6  221.24    9.63
  -1  -5   6  200.09    9.40
   5  -1   6  220.37    9.56
  -5   1  -6  189.10    9.16
  -1  -5  -6  217.57    9.51
   1   5  -6  208.71    9.39
  -5   1   7  126.27    6.84
  -1  -5   7  110.66    6.66
   5  -1   7  123.37    6.62
   1   5  -7  121.02    6.71
  -1  -5  -7  127.69    6.86
  -5   1   8  176.36    9.65
   1   5  -8  189.51    9.49
  -1  -5  -8  188.01    9.67
  -1  -5   8  183.48    9.69
   5  -1   8  190.70    9.47
  -1  -5   9  131.07    8.18
  -5   1  -9  139.09    6.49
  -1  -5  -9  137.48    6.76
   5  -1   9  123.12    7.11
  -5   1   9  150.31    8.63
   1   5  -9  116.24    8.10
  -1  -5  -9  119.86    8.26
  -1  -5 -10   22.39    4.25
   1   5 -10   22.83    4.32
  -1  -5  10   31.69    4.27
   1   5 -11    0.29    1.65
  -5   1  11    1.67    1.99
  -5   1 -12    1.44    1.79
   1   5 -12    2.03    1.70
  -5   1 -13    1.85    1.64
  -5   1 -14    1.50    1.37
  -5   1 -15   -0.06    1.28
  -1  -5 -15    0.06    1.30
  -1  -5  15    2.13    1.61
   0  -5   0    0.60    1.20
   0  -5   1    6.64    1.54
   0  -5  -1    7.70    1.30
   0  -5   1    6.61    1.37
   0  -5  -1    5.77    1.04
   0  -5  -1    6.08    0.64
  -5   0   2 1458.21   52.05
   0  -5   2 1361.71   52.11
  -5   0   2 1437.98   52.22
   5   0  -2 1449.18   52.11
   0  -5  -2 1337.71   51.71
   0  -5  -2 1431.91   51.73
   0   5  -2 1352.02   51.71
  -5   0  -3  483.81   20.47
  -5   0   3  546.84   20.31
   0  -5   3  519.38   20.54
  -5   0   3  551.86   20.65
   5   0  -3  566.03   20.55
  -5   0  -3  562.91   20.40
  -5   0   3  539.59   20.34
  -5   0   3  528.50   20.19
   0  -5  -3  533.19   20.26
   0   5  -3  499.51   20.17
  -5   0  -4  299.21   12.34
  -5   0   4  323.94   12.51
  -5   0  -4  334.95   12.14
  -5   0   4  303.17   11.97
  -5   0   4  270.79   11.81
   0  -5  -4  305.75   12.18
   0   5  -4  290.92   12.09
   5   0  -4  326.24   12.36
  -5   0  -5   28.58    2.62
   0  -5   5   28.49    2.79
  -5   0   5   26.10    2.62
  -5   0   5   23.81    1.81
   0  -5  -5   27.21    2.59
   0   5  -5   29.63    2.45
   5   0  -5   27.84    2.55
  -5   0   5   20.31    1.75
  -5   0   6   58.65    3.96
  -5   0  -6   50.81    3.57
   0  -5   6   56.13    3.82
   5   0   6   54.10    3.70
   0  -5  -6   56.11    3.86
   0   5  -6   57.50    3.91
   5   0  -6   43.79    3.63
  -5   0   7   62.81    4.81
   0  -5   7   64.83    4.54
   5   0   7   67.44    4.48
   0  -5  -7   59.03    4.67
   0   5  -7   69.29    4.74
   5   0  -7   60.12    4.59
  -5   0   8  167.94    8.72
   0   5  -8  150.14    8.42
   0  -5  -8  152.09    8.52
   5   0  -8  153.10    8.33
   0  -5   8  151.91    8.40
   0  -5   9    3.41    1.76
  -5   0   9    9.28    2.85
   0  -5   9    1.23    2.61
   0  -5  -9    1.94    2.81
   0   5  -9   -1.57    2.83
   5   0  -9    2.61    2.65
  -5   0  -9    1.32    1.71
   5   0  10    2.23    2.18
  -5   0  10   -0.10    1.85
   0  -5 -10    2.00    2.78
   0   5 -10    2.14    2.67
   0  -5 -10    0.55    1.75
   0   5 -10    2.59    1.65
   0  -5  10    0.20    2.55
  -5   0 -12    3.48    1.61
  -5   0 -13    0.07    1.50
   0  -5  15   -0.25    1.56
  -5   0 -15    3.53    1.37
  -5  -1   0 2393.05   92.30
  -5  -1   0 2570.51   92.23
  -5  -1   1  216.30    8.37
   1  -5  -1  199.23    7.91
   1  -5  -1  198.75    7.70
  -5  -1   1  205.45    8.30
  -5  -1  -1  216.78    8.30
  -5  -1  -2  683.30   24.30
  -5  -1   2  683.84   24.16
   5   1  -2  669.17   24.11
  -5  -1   2  686.52   24.11
  -5  -1  -2  716.44   24.18
  -5  -1   2  651.40   24.01
   1  -5  -2  565.78   23.55
  -1   5  -2  619.72   23.74
   1  -5  -2  615.50   23.70
  -5  -1  -3   73.90    3.82
  -5  -1   3   70.37    3.84
  -5  -1   3   71.23    3.46
  -1   5  -3   67.26    3.43
   1  -5  -3   71.63    3.41
   5   1  -3   78.14    3.75
  -5  -1   3   70.11    3.50
  -5  -1  -3   75.48    3.64
  -5  -1   4    2.67    1.76
  -5  -1  -4    4.68    1.29
  -5  -1   4    3.92    1.19
  -5  -1  -4    2.62    1.72
  -5  -1   4    2.98    1.25
  -1   5  -4    3.42    1.47
   1  -5  -4    4.20    1.47
   5   1  -4    4.85    1.76
   1  -5   5   68.77    4.02
  -5  -1  -5   56.70    3.76
  -5  -1   5   66.51    4.02
  -5  -1   5   58.16    3.06
   1  -5  -5   59.24    3.62
   5   1  -5   56.95    3.64
  -1   5  -5   63.76    3.67
  -5  -1   5   58.25    3.22
  -5  -1   6  260.56   11.07
   1  -5   6  246.39   10.99
   5   1   6  250.57   10.61
  -1   5  -6  269.29   10.91
   1  -5  -6  259.07   10.84
   5   1  -6  263.38   10.84
  -5  -1   7 1088.92   39.59
   1  -5   7  972.93   39.28
   1  -5  -7 1002.40   39.28
  -1   5  -7 1018.66   39.37
   5   1  -7  993.91   39.24
  -5  -1   8  110.19    6.54
   1  -5  -8   98.56    6.18
  -1   5  -8   99.56    6.20
   5   1  -8   85.33    6.08
   1  -5   8   83.03    5.91
   1  -5   9   78.78    5.74
  -5  -1   9   85.80    6.10
  -5  -1   9   64.18    4.34
   1  -5   9   63.57    4.34
   1  -5  -9   72.35    5.90
  -1   5  -9   73.24    5.84
   5   1  -9   62.58    5.69
  -1   5  -9   74.32    4.30
  -1   5 -10    0.99    2.66
   1  -5 -10    0.40    2.56
  -5  -1  10   -4.39    2.97
   1  -5  10   -3.36    2.73
  -5  -1 -11    5.40    1.74
   1  -5 -11    2.80    1.99
   5   1  11    2.88    2.34
  -5  -1 -12    2.44    1.53
   1  -5 -12    1.12    1.86
  -5  -1 -13    1.88    1.41
   1  -5  14    1.24    1.93
   1  -5  15    0.08    1.51
  -1   5 -15    0.06    1.22
  -5  -2   0    0.05    1.14
  -5  -2   0    1.17    1.54
   2  -5  -1   69.34    3.03
  -5  -2   1   71.95    3.55
  -5  -2  -1   75.28    3.58
  -5  -2   1   76.56    3.70
  -5  -2   1   75.03    3.60
  -5  -2   1   70.88    3.63
   5   2  -2  796.98   27.37
  -5  -2  -2  828.37   27.41
  -5  -2   2  774.00   27.30
  -5  -2   2  787.95   27.37
   2  -5  -2  732.40   26.95
  -5  -2  -2  788.21   27.52
  -5  -2  -3   29.22    2.05
  -5  -2   3   22.27    1.86
   5   2  -3   27.88    2.19
  -5  -2   3   23.81    2.00
   2  -5  -3   27.47    1.86
  -5  -2  -3   24.46    2.27
  -5  -2  -4   12.86    1.55
  -5  -2   4    8.93    1.42
  -5  -2  -4    9.62    1.78
  -5  -2   4    9.79    1.61
  -2   5  -4    8.66    1.60
   2  -5  -4   11.60    1.66
   5   2  -4   12.04    1.86
  -5  -2   4    9.87    2.05
  -5  -2  -5    4.05    1.18
  -5  -2   5    5.45    1.21
  -5  -2   5    4.39    1.54
  -2   5  -5    4.39    1.79
   2  -5  -5    6.04    1.83
   5   2  -5    6.56    1.87
  -5  -2   5    8.46    2.16
   2  -5   5    7.82    2.16
   5   2   5    4.73    1.69
  -5  -2   6  453.94   19.37
  -5  -2   6  536.94   20.27
  -2   5  -6  519.03   20.00
   5   2  -6  502.56   19.91
   2  -5  -6  487.69   19.80
   2  -5   6  499.56   20.11
  -5  -2   7  645.12   22.79
   2  -5   7  623.37   22.74
   5   2  -7  622.23   22.50
  -2   5  -7  567.62   22.54
   2  -5  -7  637.89   22.46
  -5  -2   8   44.69    4.30
   2  -5   8   46.00    4.21
   2  -5  -8   46.04    4.23
  -2   5  -8   45.77    4.25
   5   2  -8   38.24    4.08
  -2   5  -9    1.23    1.45
  -5  -2  -9   -0.99    1.56
   2  -5   9    2.32    1.61
  -5  -2  -9    2.51    1.33
   5   2  -9    0.83    2.42
   2  -5  -9    2.45    2.56
   2  -5   9   -1.20    2.43
  -5  -2   9    1.17    2.52
  -5  -2 -10    2.39    1.75
  -5  -2  10    1.99    2.83
   2  -5 -10   -0.40    2.96
  -5  -2 -10    2.51    1.45
  -5  -2 -11    3.49    1.65
  -5  -2  12    2.26    1.89
  -5  -2 -12   -0.86    1.37
   5   2  14    1.70    1.89
  -5  -2 -14    2.28    1.59
   2  -5  14    1.67    1.85
  -5  -2 -15    1.66    1.34
  -2   5 -15   -0.12    1.23
  -5  -3   0 1924.67   71.59
  -5  -3   1   67.18    3.43
  -5  -3   1   65.50    3.51
   3  -5  -1   70.84    3.05
  -5  -3   1   66.82    3.39
  -5  -3  -1   68.51    3.44
  -5  -3   2  123.97    5.30
  -5  -3   2  132.36    5.27
   3  -5  -2  129.97    4.86
  -5  -3   2  129.16    5.17
   5   3  -2  131.69    5.17
  -5  -3  -2  125.22    5.16
  -5  -3   3    3.58    1.46
   5   3  -3    3.59    1.51
   3  -5  -3    7.22    1.23
  -5  -3  -3    2.73    1.37
  -5  -3   3    4.38    1.33
  -5  -3   4   18.77    2.07
  -5  -3  -4   19.93    1.92
  -5  -3   4   20.94    1.86
   5   3  -4   21.26    2.12
   3  -5  -4   18.21    1.93
  -5  -3   5    5.43    1.25
  -5  -3  -5    3.18    1.22
  -5  -3   5    5.59    1.63
   5   3  -5    5.16    1.73
   3  -5  -5    3.60    1.79
  -5  -3   5    8.21    2.15
   3  -5   5    4.74    2.17
  -5  -3   6 1123.47   40.38
   5   3  -6 1072.54   40.02
   3  -5  -6 1108.88   40.05
   3  -5   6 1056.44   40.21
   5   3  -7  133.78    6.63
   3  -5  -7  132.09    6.55
  -5  -3   7  131.87    6.78
   3  -5   7  128.97    6.75
   5   3  -8   27.10    3.52
   3  -5  -8   30.70    3.56
   3  -5   8   28.07    3.47
  -5  -3   8   30.78    3.74
  -5  -3  -9   11.17    1.60
   3  -5  -9   15.82    3.17
   5   3  -9    7.66    3.00
   3  -5   9   16.94    2.97
  -5  -3   9   14.20    3.22
  -5  -3 -10   33.32    3.07
  -5  -3 -10   25.05    2.45
  -5  -3  11    5.58    1.95
  -5  -3 -11   -1.10    1.41
   3  -5 -13    3.51    1.82
   3  -5  13    1.13    2.02
  -3   5 -14    1.27    1.57
   5   3 -14    5.92    1.90
  -5  -3 -14    1.04    1.57
  -5  -3  15    0.89    1.38
   3  -5  15    0.67    1.63
  -5  -3 -15    1.31    1.33
  -3   5 -15    2.60    1.28
  -5  -4   0    0.50    1.44
  -5  -4   0    0.18    1.18
  -5  -4   1   31.80    2.27
   4  -5  -1   32.85    1.93
  -5  -4  -1   33.01    2.27
  -5  -4   1   30.64    2.30
   4  -5  -2  562.13   21.15
   5   4  -2  553.79   21.28
  -5  -4   2  582.20   21.46
  -5  -4  -2  580.11   21.50
  -5  -4   2  537.45   21.47
  -5  -4   2  520.02   21.45
   4  -5  -3  350.75   13.99
   5   4  -3  365.32   14.11
  -5  -4  -3  362.68   14.23
  -5  -4   3  365.38   14.19
  -5  -4   3  338.95   14.29
  -5  -4   3  355.28   14.40
  -5  -4   4   14.49    1.73
  -5  -4  -4   14.20    1.81
   4  -5  -4   11.92    1.79
   5   4  -4   12.86    1.95
  -5  -4   4   11.13    1.98
   4  -5   5  269.22   11.92
  -5  -4   5  267.55   11.52
   4  -5  -5  289.30   11.48
   5   4  -5  294.99   11.52
  -5  -4   5  266.25   11.10
  -5  -4  -5  263.06   11.08
  -5  -4   6   -0.30    1.57
   5   4  -6    3.69    1.93
   4  -5  -6    1.40    1.84
  -5  -4   6    4.31    2.15
   4  -5   6    4.27    2.17
  -5  -4   7   64.77    4.60
   5   4  -7   67.24    4.40
   4  -5  -7   61.69    4.35
   4  -5   7   59.25    4.43
   5   4  -8    7.34    2.54
   4  -5  -8   12.56    2.75
   4  -5   8   10.56    2.75
  -5  -4   8   14.04    2.90
   4  -5   9   41.59    4.40
  -5  -4   9   39.72    3.19
   5   4  -9   34.68    4.48
   4  -5  -9   44.83    4.80
  -5  -4   9   41.66    4.77
  -4   5  -9   41.66    3.17
  -5  -4  -9   43.04    3.14
  -5  -4 -10   23.74    2.18
  -5  -4 -13    2.65    1.79
  -4   5 -14    1.25    1.51
  -5  -4 -14    1.80    1.60
   5   4 -14    2.05    1.78
  -4   5 -14    3.04    1.59
   4  -5  14    3.40    2.02
  -4   5 -15    2.16    1.25
  -4   5 -15    0.22    1.38
  -5  -4 -15    1.14    1.38
  -5  -4  15    2.02    1.53
   4  -5  15    1.90    1.77
  -5  -5   0  772.77   28.73
  -5  -5   0  782.61   28.80
  -5  -5   0  722.72   28.43
  -5  -5   1   24.07    2.03
  -5  -5  -1   25.33    2.13
  -5  -5   1   26.01    2.28
  -5  -5   1   26.00    2.05
   5  -5  -1   27.20    1.88
   5   5  -1   29.02    1.92
   5  -5  -2  756.74   29.20
   5   5  -2  755.00   29.19
  -5  -5  -2  802.83   29.52
  -5  -5   2  799.44   29.50
  -5  -5   2  759.26   29.46
  -5  -5  -3   14.67    1.92
  -5  -5   3   10.81    2.05
  -5  -5   3   15.01    1.89
   5   5  -3   13.31    1.74
   5  -5  -3   14.79    1.85
  -5  -5   3   16.17    2.20
  -5  -5   4  257.68   11.29
  -5  -5  -4  292.54   11.15
  -5  -5   4  269.99   11.07
   5   5  -4  252.22   10.93
   5  -5  -4  264.20   11.02
  -5  -5   4  266.95   11.38
  -5  -5  -5    5.25    1.42
  -5  -5   5    8.02    1.47
   5  -5  -5   11.18    1.99
   5   5  -5    9.70    1.91
  -5  -5   5    8.17    1.93
   5  -5  -6  104.87    5.71
  -5  -5   6   93.22    5.47
   5  -5   6   99.12    5.87
   5  -5   7   77.72    4.98
   5  -5  -7   78.57    4.90
   5   5  -7   72.39    4.75
  -5  -5   7   76.84    4.97
   5  -5  -8  100.58    5.93
   5   5  -8   87.54    5.72
  -5  -5   8   92.44    6.08
   5  -5   8   84.20    5.86
   5  -5   9   19.84    3.49
  -5  -5   9   20.28    3.60
   5  -5  -9   22.23    3.68
   5   5  -9   12.15    3.38
   5  -5 -11    6.00    2.10
  -5   5  13    2.29    1.67
   5   5  13   -0.57    2.19
   5   5 -13    2.03    1.82
   5  -5 -13    1.46    1.79
   5  -5  14    3.23    2.12
  -5  -5  14    2.82    1.89
  -5   5 -14    1.72    1.60
  -5   5 -14    4.71    1.56
  -5  -5 -14    3.99    1.64
   5  -5 -15   -0.21    1.28
  -5   5 -15    1.33    1.09
  -5  -5  15    2.06    1.64
  -5   5  15    1.67    1.30
  -5  -6   0    0.87    1.46
  -5  -6   0    0.23    1.49
  -5  -6   0    0.24    1.15
   5   6  -1  346.95   13.41
  -5  -6   1  348.96   13.86
  -5  -6  -1  352.62   13.84
  -5  -6   1  335.23   13.89
  -5  -6   1  342.29   13.60
   5   6  -2   62.04    3.25
   6  -5  -2   65.86    3.40
  -5  -6   2   65.33    3.65
  -5  -6  -2   68.27    3.70
  -5  -6   2   60.84    3.61
   5   6  -3  965.99   37.57
  -5  -6   3 1034.94   37.98
   6  -5  -3 1003.51   37.80
  -5  -6   3  944.13   38.07
  -5  -6   3  933.77   37.94
  -5  -6   4   20.55    2.03
  -5  -6   4   17.96    2.41
  -5  -6  -4   13.38    1.98
  -5  -6   4   14.21    2.27
   5   6  -4   14.84    1.90
   6  -5  -4   18.89    2.25
  -5  -6  -5   63.25    3.62
  -5  -6   5   59.55    3.51
   5   6  -5   63.61    3.80
   6  -5  -5   69.21    3.99
  -5  -6   5   58.77    4.11
  -5  -6   5   61.51    4.16
  -5  -6   6  104.62    5.77
   6  -5   6  109.89    6.07
   6  -5  -6  104.70    5.76
   5   6  -6   97.75    5.52
   6  -5   7   80.91    5.48
   6  -5  -7   94.40    5.52
   5   6  -7   87.59    5.12
  -5  -6   8    0.29    1.76
   6  -5  -8    0.16    2.25
   5   6  -8    4.32    2.34
  -5  -6   8    4.05    2.41
   6  -5   8    2.68    2.29
   5   6  -9   14.59    3.12
   6  -5  -9   15.19    3.32
   6  -5   9   10.21    3.07
  -5  -6   9    9.55    3.18
  -6   5 -11    6.21    1.90
  -5  -6 -12    2.09    1.68
  -6   5 -13    1.02    1.56
  -5  -6 -13    0.77    1.62
  -5  -6  13   -1.88    1.82
   6  -5  13    1.29    2.08
   6  -5  14   -0.09    1.84
  -5  -6  14    2.38    1.73
   6  -5 -14    4.04    1.61
  -6   5 -14    2.05    1.44
  -6   5 -14    2.00    1.54
  -5  -6 -14    3.68    1.54
  -6   5 -15   -1.65    1.19
   6  -5 -15   -1.24    1.23
   5   6  15    1.07    1.59
  -5  -6 -15   -0.21    1.03
  -6   5 -15    0.26    1.00
  -5  -6  15    2.34    1.56
  -4  -6   0  695.50   25.74
  -4  -6   0  682.61   25.68
  -4  -6   0  652.23   25.30
  -4  -6   1    3.38    1.25
   4   6  -1    3.93    0.94
  -4  -6  -1    2.81    1.31
  -4  -6   1    2.83    1.27
  -4  -6   1    2.15    1.47
  -4  -6  -1    3.55    1.50
  -4  -6   2  921.61   33.88
  -4  -6  -2  935.60   33.93
   6  -4  -2  882.78   33.73
   4   6  -2  873.09   33.44
  -4  -6   2  865.25   33.79
  -4  -6  -3   74.12    4.06
  -4  -6   3   79.95    4.05
  -4  -6   3   74.96    4.17
   4   6  -3   73.78    3.69
  -4  -6   3   76.22    4.31
   6  -4  -3   83.96    4.12
  -4  -6   4   87.85    4.85
   4   6  -4   89.22    4.44
   6  -4  -4   98.14    4.82
  -4  -6   4   84.20    4.95
  -4  -6   4   86.09    4.48
  -4  -6  -4   93.53    4.58
   4   6  -5    9.06    1.86
   6  -4  -5    7.18    2.03
  -4  -6   5    8.35    2.01
  -4  -6  -5    8.66    1.56
  -4  -6   5    9.62    1.46
  -4  -6   5    7.47    2.14
  -4  -6   6   81.27    4.90
   6  -4  -6   86.66    4.90
   4   6  -6   79.20    4.73
   6  -4   6   75.71    5.00
  -4  -6   7    1.18    1.69
   6  -4  -7    2.09    2.12
   4   6  -7    0.83    1.88
  -4  -6   7   -0.72    2.06
   6  -4   7    2.46    2.13
  -4  -6   8    9.90    2.34
   6  -4   8   20.50    3.08
  -4  -6   8   14.38    2.97
   4   6  -8   15.98    2.81
   6  -4  -8   18.89    3.02
   6  -4   9    2.63    2.58
  -4  -6   9    0.19    2.53
   4   6  -9    1.51    2.33
   6  -4  -9   -1.41    2.60
  -6   4 -12   14.83    2.27
  -6   4 -13   -1.25    1.67
  -4  -6 -13    4.28    1.70
   4   6 -13    2.24    1.64
  -6   4 -13    2.23    1.80
  -6   4 -14    1.11    1.52
  -4  -6 -14   -0.22    1.53
   6  -4  14    4.73    1.95
  -6   4 -14    5.22    1.51
  -4  -6  15    1.84    1.51
  -4  -6  15    2.49    1.61
  -6   4 -15    2.23    1.08
  -6   4 -15    0.16    1.21
  -3  -6   0    0.41    1.29
  -3  -6   0    0.06    1.15
  -3  -6   0    0.91    0.92
  -3  -6  -1  369.71   14.52
  -3  -6   1  351.68   14.51
  -3  -6   1  379.76   14.42
  -3  -6  -1  387.72   14.58
  -3  -6   1  373.75   14.65
   3   6  -1  370.57   14.04
  -3  -6  -1  369.12   13.97
  -3  -6   2   62.10    3.17
  -3  -6  -2   58.50    3.18
  -3  -6   2   60.63    3.25
   3   6  -2   53.92    2.70
  -3  -6   2   59.80    3.40
   6  -3  -2   61.80    3.21
  -3  -6   3  156.40    6.62
  -3  -6  -3  154.01    6.71
  -3  -6   3  145.43    6.72
   6  -3  -3  164.26    6.75
   3   6  -3  143.57    6.30
  -3  -6   4    2.24    1.76
   3   6  -4    2.81    1.37
   6  -3  -4    1.44    1.71
  -3  -6   4    1.55    1.74
  -3  -6   4    2.37    1.24
  -3  -6  -4    3.13    1.43
  -3  -6   5   10.25    2.21
   6  -3  -5   18.69    2.33
   3   6  -5   12.29    1.96
  -3  -6   5   11.24    2.23
  -3  -6  -5   14.58    1.75
  -3  -6   5   14.42    1.65
  -3  -6   6   17.01    2.50
   6  -3  -6   16.42    2.41
   3   6  -6   16.38    2.34
   6  -3   6   19.21    2.76
  -3  -6   7   48.52    4.07
   6  -3  -7   55.42    4.20
   3   6  -7   51.71    3.96
  -3  -6   7   55.47    4.18
   6  -3   7   53.73    4.28
  -3  -6   8   -1.33    1.93
   6  -3  -8   -2.84    2.42
   3   6  -8    2.40    2.07
   6  -3   8    0.95    2.14
  -3  -6   8    0.33    2.10
  -3  -6   9    3.46    2.16
   3   6  -9    6.00    2.63
   6  -3  -9    6.62    2.77
   6  -3   9    0.74    2.69
  -3  -6   9    8.04    2.73
  -3  -6 -10   10.68    2.13
   6  -3  10   13.63    2.67
  -3  -6 -11   24.95    2.87
  -6   3 -13    1.77    1.77
  -6   3 -13    2.03    1.74
  -6   3 -14   -0.15    1.45
   3   6 -14   -0.36    1.42
  -3  -6  14    0.49    1.67
   6  -3  15    1.37    1.41
  -3  -6  15    2.58    1.54
  -3  -6 -15   -2.16    1.28
  -2  -6   0  669.94   24.12
  -2  -6   0  664.31   24.43
  -2  -6   0  636.48   24.40
   2   6   0  628.49   23.81
  -2  -6   1   31.23    2.03
  -2  -6  -1   31.66    2.16
  -2  -6   1   28.86    1.97
   2   6  -1   31.46    1.43
  -2  -6  -1   30.69    2.02
  -2  -6   1   31.18    2.27
  -2  -6  -1   28.61    1.41
  -2  -6  -2   74.60    3.73
  -2  -6   2   72.20    3.60
  -2  -6   2   71.20    3.55
   2   6  -2   67.57    3.09
  -2  -6   2   65.59    3.82
   6  -2  -2   76.39    3.68
   2   6  -3   19.44    1.57
  -2  -6   3   18.36    2.02
  -2  -6   3   16.22    1.77
  -2  -6  -3   17.74    1.98
   6  -2  -3   21.65    2.08
   2   6  -4  112.56    5.33
  -6   2   4  109.29    5.20
  -2  -6   4  119.33    5.72
  -2  -6   4  111.24    5.37
  -2  -6  -4  128.44    5.60
  -6   2   5    7.99    2.18
  -6   2  -5    4.55    1.35
  -2  -6  -5    3.57    1.79
   2   6  -5    5.30    1.64
   6  -2  -5    5.61    1.92
  -2  -6  -6   30.05    3.07
   6  -2  -6   29.20    2.96
   2   6  -6   28.28    2.81
  -6   2   6   36.93    3.30
   6  -2   6   33.52    3.29
  -6   2  -6   28.22    2.77
  -2  -6  -7   47.28    4.02
   6  -2  -7   46.79    3.91
   2   6  -7   44.36    3.81
  -6   2   7   45.52    4.05
  -2  -6   7   47.14    4.05
   6  -2   7   47.94    4.05
   2   6  -8    3.71    2.25
   6  -2  -8    4.38    2.21
  -6   2   8    3.67    2.35
   6  -2   8    1.70    2.34
  -2  -6   8    2.16    2.20
  -2  -6   8   -1.20    2.00
   2   6  -9    1.68    2.35
   6  -2  -9    1.37    2.38
  -2  -6   9   -2.57    2.35
  -2  -6   9    0.16    1.90
  -6   2 -12    2.83    1.89
   6  -2 -12    2.05    1.83
  -2  -6 -12    1.16    1.78
   2   6 -12    2.42    1.76
  -6   2 -13    1.35    1.60
  -2  -6  14   -0.24    2.00
  -6   2 -14    3.71    1.39
  -6   2 -14    2.69    1.55
  -2  -6  14    0.81    1.79
  -2  -6  15    0.08    1.50
   6  -2  15   -2.03    1.55
  -2  -6  15    3.35    1.57
  -2  -6 -15   -1.21    1.26
  -1  -6   0    0.15    1.13
  -1  -6   0    1.01    0.94
  -1  -6   0    0.37    1.19
  -1  -6  -1   96.55    3.84
  -1  -6   1   95.32    4.32
   1   6  -1   95.78    3.73
  -1  -6  -1  103.27    4.53
  -1  -6   1  100.44    4.45
  -1  -6   1  104.26    4.57
  -1  -6  -1   93.31    4.26
  -1  -6   2  191.59    7.87
   1   6  -2  182.33    7.36
  -1  -6   2  200.11    7.91
  -1  -6  -2  180.40    7.63
  -1  -6  -3   24.26    1.73
   1   6  -3   20.07    1.61
  -6   1   3   22.39    1.92
  -1  -6   3   22.10    2.16
  -1  -6   3   24.00    1.94
  -1  -6  -3   23.06    2.00
  -6   1   4    3.20    1.92
   1   6  -4    3.99    1.47
  -1  -6  -4    6.13    1.66
  -6   1   4    6.22    1.34
  -6   1  -4    4.11    1.37
  -1  -6  -5   20.06    2.52
   1   6  -5   20.12    2.36
  -6   1   5   30.91    2.92
  -6   1  -5   29.82    2.23
  -6   1   5   27.76    2.14
  -6   1  -5   29.07    2.73
  -1  -6   6   49.06    3.87
   6  -1   6   61.26    4.12
  -6   1  -6   53.54    3.89
  -6   1   6   55.96    4.09
   1   6  -6   50.49    3.74
  -1  -6  -6   57.96    4.02
  -1  -6   7  113.69    6.44
   6  -1   7  111.13    6.35
  -6   1   7  114.62    6.56
   1   6  -7  105.87    6.19
  -1  -6  -7  113.77    6.42
  -1  -6  -8    9.01    2.69
   1   6  -8    6.08    2.48
  -6   1   8   10.54    2.82
   6  -1   8    4.45    2.41
  -1  -6   8    6.23    2.50
   1   6  -9    0.51    2.44
  -1  -6  -9    1.44    2.52
  -6   1   9    4.52    2.80
  -1  -6   9    2.81    2.47
  -1  -6 -10    2.29    1.75
  -6   1 -12   -0.09    1.78
   6  -1  12    0.12    2.20
  -1  -6 -13    3.44    1.72
  -6   1 -13    0.16    1.58
  -6   1 -14    1.56    1.30
  -1  -6  14    0.82    1.98
   1   6  14   -1.52    2.07
  -6   1 -14   -0.16    1.47
  -6   1 -15    0.56    1.31
  -1  -6  15   -0.33    1.50
   0  -6   0 2233.71   84.83
   0  -6   0 2365.46   85.00
   0  -6  -1  806.88   30.43
  -6   0   1  856.09   30.96
   0  -6   1  802.25   30.77
   0  -6  -1  817.43   30.62
   0  -6   2   78.92    4.04
  -6   0   2   87.77    4.11
   0  -6  -2   85.98    3.54
   0   6  -2   82.69    3.55
   0  -6  -2   76.52    3.60
   6   0  -2   94.82    4.19
  -6   0  -3   22.82    2.29
  -6   0   3   32.77    2.20
   0  -6   3   26.96    2.39
   0  -6  -3   30.61    1.99
   0   6  -3   25.80    1.89
  -6   0   3   28.96    2.57
   6   0  -3   30.10    2.42
  -6   0   3   31.28    2.14
  -6   0  -3   29.17    2.23
  -6   0   4   73.42    4.18
  -6   0  -4   70.14    4.00
   0  -6   4   65.94    3.98
   0  -6  -4   68.02    3.63
   0   6  -4   64.49    3.53
  -6   0   4   59.18    3.31
  -6   0  -4   68.37    3.60
   6   0  -4   68.64    4.00
  -6   0   4   71.04    3.50
  -6   0   5  385.25   14.88
  -6   0  -5  391.60   14.78
   0  -6  -5  357.92   14.61
   0   6  -5  333.33   14.40
   6   0  -5  404.77   14.75
  -6   0   5  306.05   13.88
  -6   0   5  342.10   14.05
  -6   0  -5  388.20   14.23
   0  -6  -6   49.25    3.63
   0   6  -6   40.42    3.39
   6   0  -6   41.32    3.48
  -6   0   6   44.21    3.70
   6   0   6   49.61    3.63
  -6   0  -6   41.42    3.43
   0  -6   6   41.23    3.53
   0  -6  -7   59.81    4.53
   0   6  -7   59.63    4.36
   6   0  -7   55.98    4.40
  -6   0   7   61.63    4.64
   0  -6   7   66.11    4.60
   6   0   7   53.61    4.32
   0  -6  -8  216.76   10.70
   0   6  -8  211.59   10.49
   6   0  -8  199.54   10.49
  -6   0   8  214.22   10.86
   0  -6   8  210.07   10.47
   0  -6  -9   49.25    5.19
   0   6  -9   49.92    5.01
   6   0  -9   43.53    4.92
   0  -6   9   54.66    4.99
  -6   0   9   58.72    5.54
   0  -6  10    3.37    1.65
   0  -6 -11    0.20    1.73
  -6   0 -11    0.51    1.74
  -6   0 -12    0.50    1.63
   0  -6 -13    1.55    1.65
  -6   0 -13   -1.72    1.56
  -6   0  13   -0.61    1.72
   6   0 -14   -0.68    1.57
   0  -6  14    0.80    1.90
  -6   0 -14   -0.48    1.24
   0   6  14    4.16    2.03
   0  -6  14    3.49    1.93
  -6   0 -14    0.32    1.41
   0   6 -15   -2.74    1.29
   0  -6 -15   -0.78    1.23
  -6   0 -15   -1.62    1.35
   0  -6  15    1.83    1.62
   0  -6  15    2.40    1.52
  -6  -1   0    1.12    1.32
  -6  -1   0    0.52    1.48
  -6  -1   1  478.34   17.33
  -6  -1  -1  478.17   17.35
   1  -6  -1  459.94   16.93
   1  -6  -1  427.02   16.54
  -6  -1   1  467.12   17.34
   6   1  -2   31.19    2.30
  -6  -1  -2   30.95    2.23
  -6  -1   2   32.60    2.22
   1  -6  -2   27.22    1.58
   1  -6  -2   31.83    1.68
   1  -6   2   30.69    2.41
  -6  -1  -2   31.81    2.47
  -6  -1   2   32.51    2.29
  -6  -1  -3   35.71    2.78
   1  -6   3   36.47    2.79
  -1   6  -3   32.80    2.18
   1  -6  -3   35.25    2.20
  -6  -1  -3   39.32    2.52
   6   1  -3   44.24    2.84
  -6  -1   3   37.79    2.41
  -6  -1   3   38.98    2.39
  -6  -1   3   45.84    2.94
  -6  -1   4    0.32    1.18
  -6  -1  -4    1.73    1.34
  -6  -1   4   -0.56    1.22
  -6  -1  -4   -0.53    1.66
   1  -6  -4    0.84    1.35
  -1   6  -4    1.34    1.44
   6   1  -4    1.20    1.71
  -6  -1   4   -1.72    2.01
  -6  -1  -5   53.47    3.55
  -1   6  -5   43.11    3.21
   6   1  -5   52.11    3.43
   1  -6  -5   46.38    3.23
  -6  -1  -5   48.35    2.87
  -6  -1   5   43.66    2.72
  -6  -1   5   56.48    3.82
  -6  -1   5   36.80    2.75
   6   1   6  134.09    6.60
   1  -6   6  139.50    6.87
   1  -6  -6  146.04    6.67
  -1   6  -6  131.84    6.60
   6   1  -6  133.97    6.61
  -6  -1   6  145.30    7.03
   1  -6   7   20.16    2.98
  -6  -1   7   19.11    3.23
  -1   6  -7   19.07    2.93
   6   1  -7   17.43    2.87
   1  -6  -7   18.31    2.99
   1  -6   8  112.13    6.75
  -6  -1   8  126.41    7.33
   1  -6  -8  108.92    6.96
  -1   6  -8  107.33    6.74
   6   1  -8  107.42    6.77
   1  -6  -9    0.18    2.58
   6   1  -9    3.44    2.55
  -1   6  -9    3.28    2.51
  -6  -1   9    7.61    2.89
   1  -6   9   -3.57    2.60
  -6  -1 -10    1.79    1.66
  -6  -1 -11    2.01    1.65
   6   1 -12    0.11    1.84
  -1   6 -12   -1.00    1.68
  -6  -1 -13    1.42    1.47
   1  -6  13    3.91    2.38
   1  -6  14    2.70    1.80
   1  -6  14   -1.29    1.86
   1  -6 -14   -1.06    1.55
   1  -6  15    1.21    1.42
   1  -6  15    0.33    1.62
  -1   6 -15    0.69    1.17
   2  -6   0  784.18   29.46
  -6  -2   0  818.36   30.16
  -6  -2   0  832.11   30.29
  -6  -2   1    1.05    1.26
  -6  -2  -1    2.81    1.41
  -6  -2   1    2.83    1.60
   2  -6  -1    2.69    0.69
  -6  -2   2  109.89    5.02
  -6  -2  -2  113.18    4.87
  -6  -2   2  103.59    4.79
   6   2  -2  108.81    4.82
  -6  -2   2  108.88    4.78
   2  -6  -2   89.52    4.07
  -6  -2  -2  111.70    5.02
   2  -6  -2  107.09    4.28
  -6  -2  -3    9.91    1.63
  -6  -2  -3    8.89    1.94
  -6  -2   3    9.50    1.69
   2  -6   3   13.03    2.15
   6   2  -3   11.66    1.86
   2  -6  -3    9.96    1.39
  -6  -2   4   81.43    4.57
  -6  -2  -4   86.16    4.11
  -6  -2   4   75.61    3.84
   6   2  -4   78.00    4.28
   2  -6  -4   73.97    3.90
  -6  -2   4   74.00    3.97
  -6  -2  -4   67.05    4.24
  -6  -2  -5   61.93    3.27
  -6  -2   5   51.99    3.11
  -6  -2   5   50.03    3.23
  -6  -2   5   61.80    4.08
  -2   6  -5   45.05    3.47
   6   2  -5   60.60    3.75
   2  -6  -5   52.13    3.48
   2  -6   5   55.80    3.96
  -6  -2   6  196.08    9.50
  -2   6  -6  216.58   10.11
   6   2  -6  256.38   10.28
   2  -6  -6  225.69   10.11
  -6  -2   6  246.81   10.68
   2  -6   6  240.31   10.48
  -2   6  -7  106.21    6.20
   6   2  -7  117.92    6.35
   2  -6  -7   99.49    6.19
  -6  -2   7  119.17    6.62
   2  -6   7  103.86    6.41
   2  -6  -8   75.71    5.38
   6   2  -8   71.71    5.40
  -6  -2   8   75.26    5.63
   2  -6   8   76.02    5.39
  -6  -2  -9   11.48    1.86
   6   2  -9    9.22    3.16
   2  -6  -9   16.63    3.41
  -6  -2   9   13.41    3.29
   2  -6   9   11.85    2.94
  -6  -2 -10    0.22    1.50
  -2   6 -11    4.33    1.81
  -6  -2 -12    4.10    1.51
  -2   6 -12    1.36    1.75
  -6  -2 -13    1.55    1.36
   2  -6  13   -1.19    2.20
  -6  -2 -14   -0.79    1.46
   2  -6  14    0.50    1.78
   2  -6  14    2.05    1.96
   2  -6  15   -0.91    1.63
  -6  -2  15    2.67    1.24
  -6  -2 -15   -1.28    1.27
  -2   6 -15    0.84    1.13
  -6  -3   0    0.71    1.19
  -6  -3   1    2.73    1.25
  -6  -3  -1    2.43    1.31
  -6  -3   1    3.84    1.55
   3  -6  -1    3.37    0.90
  -6  -3   2   60.79    3.39
  -6  -3   2   59.92    3.24
   3  -6  -2   49.19    2.34
   3  -6  -2   58.80    2.70
  -6  -3  -2   62.44    3.21
  -6  -3   2   57.02    3.05
   6   3  -2   57.82    3.17
  -6  -3   3   60.08    3.72
  -6  -3   3   57.08    3.49
   3  -6  -3   59.78    3.07
   6   3  -3   57.79    3.45
  -6  -3  -3   69.05    3.59
  -6  -3   3   62.71    3.39
  -6  -3   4   30.67    2.37
  -6  -3  -4   30.53    2.42
   6   3  -4   34.13    2.66
  -6  -3   4   23.72    2.39
   3  -6  -4   24.19    2.20
  -6  -3  -5    1.16    1.23
  -6  -3   5    1.32    1.24
  -6  -3   5    0.88    1.46
  -6  -3   5    3.83    2.04
   3  -6   5    0.34    2.08
   3  -6  -5    1.61    1.63
   6   3  -5    2.27    1.76
  -6  -3   6    7.65    1.80
   6   3  -6   13.71    2.33
   3  -6  -6   10.05    2.25
  -6  -3   6   12.63    2.57
   3  -6   6   11.09    2.44
   6   3  -7  144.61    7.31
   3  -6  -7  157.41    7.17
   3  -6   7  147.74    7.35
  -6  -3   7  139.44    7.56
   3  -6  -8    2.71    2.26
   6   3  -8    1.20    2.27
   3  -6   8    7.20    2.39
   3  -6   9    4.39    2.72
   3  -6  -9    7.17    3.04
   6   3  -9    5.80    3.05
  -6  -3  -9    7.91    1.58
  -6  -3  10    6.71    1.99
  -3   6 -10   10.16    2.07
  -6  -3 -11   35.12    2.83
  -3   6 -11   39.57    3.39
   3  -6  12    4.70    2.42
  -6  -3 -12    3.94    1.44
   3  -6  13    3.89    2.09
  -6  -3 -13    1.46    1.80
   6   3  14    1.19    1.79
  -6  -3 -14    0.85    1.46
  -3   6 -15    2.03    1.11
  -3   6 -15    2.25    1.21
  -6  -4   0  122.52    5.51
  -6  -4   1  204.82    8.63
  -6  -4  -1  208.99    8.71
  -6  -4   1  208.12    8.65
   4  -6  -1  207.63    8.22
  -6  -4  -2   76.66    4.18
   4  -6  -2   87.30    3.83
  -6  -4   2   83.84    4.18
   6   4  -2   83.76    4.08
  -6  -4   2   79.00    4.27
  -6  -4   2   80.56    4.26
  -6  -4   3    9.78    2.13
  -6  -4  -3    8.64    1.79
  -6  -4   3   11.77    1.74
   6   4  -3   10.01    1.85
   4  -6  -3    8.82    1.52
  -6  -4   3    8.70    1.86
  -6  -4  -4   41.38    3.05
  -6  -4   4   46.06    2.98
  -6  -4   4   44.57    3.16
   4  -6  -4   40.17    2.87
   6   4  -4   45.43    3.05
  -6  -4   4   45.43    3.54
  -6  -4  -5    2.50    1.37
  -6  -4   5    1.74    1.35
  -6  -4   5    4.05    1.67
   4  -6  -5    1.26    1.64
   6   4  -5    3.34    1.72
   4  -6   5   -0.12    2.07
  -6  -4   6  190.14    8.74
   4  -6   6  177.82    8.66
   6   4  -6  199.30    8.43
   4  -6  -6  178.63    8.31
  -6  -4   7   18.17    2.38
   6   4  -7   22.81    2.98
   4  -6  -7   26.07    2.87
  -6  -4   7   20.08    3.12
   4  -6   7   19.14    2.96
   6   4  -8   18.69    3.36
   4  -6  -8   32.55    3.60
   4  -6   8   26.21    3.40
  -6  -4   8   22.62    3.47
  -4   6  -9   24.38    2.43
  -6  -4  -9   16.14    1.94
   4  -6  -9   21.31    3.77
   6   4  -9   16.98    3.61
   4  -6   9   19.02    3.50
  -6  -4   9   22.71    3.80
  -6  -4 -10    3.19    1.38
  -6  -4 -11    0.41    1.34
   4  -6  11    0.80    2.07
   4  -6  12   15.62    2.84
  -6  -4 -12    9.06    2.22
   4  -6  13    5.00    2.28
   4  -6 -13    1.51    1.86
  -6  -4 -13    2.69    1.72
  -4   6 -13    5.55    1.77
  -6  -4  14    4.71    1.71
  -4   6 -14    3.99    1.39
  -6  -4 -14    0.30    1.51
  -6  -4 -15    0.91    1.27
   4  -6  15    1.27    1.57
  -4   6 -15    0.88    1.04
  -6  -5   0    0.82    1.39
   5  -6  -1  455.98   17.95
  -6  -5   1  491.93   18.44
  -6  -5  -1  490.19   18.47
  -6  -5   1  453.49   18.23
  -6  -5   2    1.37    1.66
  -6  -5  -2    2.49    1.49
  -6  -5   2    2.73    1.47
  -6  -5   2    3.06    1.71
   6   5  -2    2.49    1.52
   5  -6  -2    3.02    1.31
  -6  -5   3  714.31   28.66
   6   5  -3  729.84   28.37
   5  -6  -3  728.50   28.27
  -6  -5  -3  776.31   28.65
  -6  -5   3  786.13   28.63
  -6  -5   3  717.24   28.66
  -6  -5   4  129.35    6.10
  -6  -5  -4  138.63    6.17
  -6  -5   4  109.94    6.15
   5  -6  -4  117.76    5.92
   6   5  -4  133.52    6.02
  -6  -5   4  131.29    6.44
  -6  -5   5   20.01    2.72
  -6  -5   5   17.32    2.47
   5  -6  -5   21.33    2.35
   6   5  -5   22.65    2.37
  -6  -5  -5   22.95    2.07
  -6  -5   5   19.65    2.02
  -6  -5   6   65.52    4.35
   6   5  -6   81.40    4.61
   5  -6  -6   70.77    4.56
   5  -6   6   70.92    4.73
  -6  -5   7  163.12    8.87
   6   5  -7  202.40    9.46
   5  -6  -7  222.97    9.59
  -6  -5   7  198.45    9.76
   5  -6   7  181.56    9.49
   6   5  -8    9.54    2.59
   5  -6  -8    5.71    2.43
   5  -6   8    7.64    2.49
  -6  -5   8    6.22    2.64
  -6  -5  -9    3.43    1.31
   5  -6  -9    5.08    2.68
   6   5  -9    2.43    2.56
   5  -6   9   -0.37    2.48
  -6  -5   9    6.02    2.66
  -6  -5 -10    2.50    1.37
  -5   6 -12   -1.99    1.68
   5  -6  13   13.34    2.98
  -5   6 -13   12.91    2.21
  -6  -5 -13   10.66    2.25
  -5   6 -14    2.79    1.48
  -5   6 -14    2.29    1.41
  -6  -5 -14    2.32    1.52
   5  -6  14    0.79    1.90
  -6  -5 -15    4.10    1.40
  -5   6 -15    2.17    1.19
   6   5 -15    3.97    1.32
  -5   6  15    2.29    1.34
   5  -6  15    3.47    1.63
  -6  -6   0  119.39    5.68
  -6  -6   0  120.20    5.74
  -6  -6   1    7.73    1.60
  -6  -6   1    8.27    1.76
  -6  -6  -1    7.29    1.70
  -6  -6   1    7.94    1.79
   6   6  -1   10.97    1.51
   6  -6  -1    7.92    1.45
  -6  -6   2 1363.80   53.53
   6   6  -2 1425.31   53.28
   6  -6  -2 1400.28   53.27
  -6  -6  -2 1493.27   53.75
  -6  -6   2 1448.54   53.68
   6   6  -3   74.10    4.10
   6  -6  -3   74.80    4.15
  -6  -6   3   78.32    4.52
  -6  -6   3   86.83    4.46
  -6  -6  -3   85.83    4.58
  -6  -6   3   79.70    4.57
  -6  -6   4   90.14    4.89
  -6  -6  -4   91.22    4.83
  -6  -6   4   85.22    5.01
   6   6  -4   78.47    4.52
   6  -6  -4   94.03    4.68
  -6  -6   4   94.11    5.09
  -6  -6  -5    4.02    1.47
  -6  -6   5    4.96    1.50
   6  -6  -5    7.67    1.91
   6   6  -5    6.41    1.87
  -6  -6   5   10.00    2.08
  -6  -6   5    9.17    2.25
   6  -6  -6  213.16    9.20
   6   6  -6  198.34    9.00
  -6  -6   6  185.43    9.37
   6  -6   6  191.50    9.44
  -6  -6   6  179.81    9.05
   6   6  -7   22.72    3.00
   6  -6   7   22.95    3.22
  -6  -6   7   18.87    2.83
   6  -6  -8   33.05    3.83
   6   6  -8   27.75    3.68
  -6  -6   8   34.41    4.02
   6  -6   8   33.85    3.73
  -6  -6  -8   26.28    2.06
   6  -6  -9    7.39    2.85
   6   6  -9    7.02    2.62
   6   6 -11    1.93    1.83
   6  -6 -11    1.09    1.95
  -6   6 -12   -0.27    1.70
  -6  -6 -12    0.94    1.73
   6  -6  12   -1.42    2.27
   6  -6 -13    6.01    1.95
   6   6 -13    4.07    1.83
  -6  -6 -13    2.35    1.77
  -6   6 -13    5.85    1.76
   6   6  13    1.06    2.25
  -6   6  13    0.33    1.77
  -6   6 -14    2.52    1.48
  -6  -6 -15    0.92    0.97
  -6   6 -15    1.32    1.00
  -6  -7   0    1.17    1.68
  -6  -7   0    2.48    1.74
  -6  -7   1  927.37   37.02
   7  -6  -1  970.24   37.02
   6   7  -1  966.38   36.82
  -6  -7   1 1007.69   37.49
  -6  -7   1 1007.82   37.42
  -6  -7  -1 1027.66   37.44
  -6  -7   2   20.64    2.27
  -6  -7   2   21.33    2.39
  -6  -7  -2   21.93    2.43
   6   7  -2   18.15    1.86
   7  -6  -2   23.33    2.19
   7  -6  -3   81.41    4.39
  -6  -7  -3   88.23    4.75
  -6  -7   3   95.55    4.77
  -6  -7   3   83.82    4.71
  -6  -7   3   74.59    4.69
   6   7  -3   77.32    4.14
  -6  -7   4   11.74    2.25
   7  -6  -4   12.22    2.04
   6   7  -4    9.95    1.69
  -6  -7   4    8.20    2.13
  -6  -7  -4    7.32    1.90
  -6  -7   4    7.13    1.84
  -6  -7   5  173.21    8.37
  -6  -7  -5  179.98    8.40
  -6  -7   5  205.37    9.09
   6   7  -5  187.87    8.39
   7  -6  -5  201.83    8.68
  -6  -7   5  182.47    8.90
  -6  -7   6    1.84    1.90
   7  -6  -6    4.59    2.01
   6   7  -6    3.37    1.76
   7  -6   6    0.77    2.20
  -6  -7   6    1.33    2.18
  -6  -7   7   12.89    2.56
   6   7  -7   11.72    2.61
   7  -6  -7   21.96    2.98
  -6  -7   7   17.07    3.08
   7  -6   7   19.55    3.04
  -6  -7  -8   50.20    3.44
  -6  -7   8   37.06    4.13
   7  -6  -8   50.18    4.76
   7  -6   8   50.43    4.80
  -6  -7  -9    0.89    1.69
  -7   6  -9    1.83    1.62
  -7   6 -10    2.98    1.78
  -6  -7  10    1.76    1.45
  -6  -7  11    3.85    1.97
  -6  -7 -11    2.67    1.84
  -7   6 -11    2.38    1.76
   7  -6  12   -1.46    2.17
  -7   6 -12    2.05    1.66
  -6  -7 -12    2.52    1.64
   7  -6  13   -1.70    2.02
  -6  -7  13    1.14    1.76
  -7   6 -13    1.60    1.63
  -6  -7 -13    1.32    1.49
  -7   6 -14    5.66    1.48
  -7   6 -14    0.30    1.39
  -6  -7 -15   -0.40    0.90
  -5  -7   0   68.68    3.82
  -5  -7   0   67.15    3.76
  -5  -7   0   64.39    3.26
  -5  -7   1  508.81   19.69
  -5  -7  -1  499.62   19.64
   5   7  -1  505.28   19.10
  -5  -7   1  512.01   19.77
  -5  -7   1  481.94   19.36
  -5  -7  -2  191.60    8.33
  -5  -7   2  190.97    8.30
  -5  -7   2  190.49    8.18
   5   7  -2  182.78    7.75
   7  -5  -2  197.99    8.15
  -5  -7   2  185.36    8.48
   7  -5  -3    3.08    1.74
   5   7  -3    1.09    1.26
  -5  -7   3    0.09    1.76
  -5  -7   3    2.43    1.57
  -5  -7  -3    1.77    1.57
  -5  -7   4  209.52    9.11
  -5  -7  -4  206.96    9.17
  -5  -7   4  203.68    9.48
   7  -5  -4  236.65    9.30
   5   7  -4  195.42    8.80
  -5  -7   4  212.09    9.36
  -5  -7   5    1.93    1.95
  -5  -7   5    1.39    1.83
   5   7  -5    0.42    1.52
   7  -5  -5    1.02    1.78
  -5  -7   5    0.64    1.33
  -5  -7  -5    2.23    1.41
  -5  -7   6   92.82    5.44
   7  -5  -6   91.47    5.27
   5   7  -6   80.50    4.98
  -5  -7   6   88.98    5.36
   7  -5  -7   16.83    2.76
   5   7  -7   16.27    2.55
  -5  -7   7   12.74    2.53
   7  -5   7   16.02    2.90
  -7   5  -8   50.76    3.26
   7  -5   8   50.41    4.64
   7  -5  -8   44.06    4.52
   5   7  -8   46.60    4.25
  -5  -7   8   34.06    3.93
  -7   5  -9   11.62    2.00
  -5  -7   9    8.45    1.76
  -5  -7  10    5.77    1.70
  -7   5 -11    0.50    1.69
  -5  -7  12    1.97    1.83
  -7   5 -12   -0.76    1.70
   7  -5  13    2.49    2.01
  -5  -7  13    1.52    1.83
  -5  -7 -13    4.64    1.67
  -7   5 -13    1.58    1.64
  -7   5 -13    2.72    1.72
   5   7 -13   -0.53    1.61
  -5  -7  14    0.25    1.61
  -7   5 -14    0.60    1.35
   7  -5 -14    1.95    1.48
  -7   5 -14    0.72    1.38
  -5  -7 -15   -1.20    0.90
  -5  -7  15    0.75    1.36
  -4  -7   0   -0.60    1.45
  -4  -7   0    0.08    0.97
  -4  -7   0    0.35    1.27
  -4  -7   1  415.62   16.04
  -4  -7  -1  413.43   15.94
   4   7  -1  406.26   15.29
  -4  -7  -1  392.80   15.85
  -4  -7   1  397.36   15.83
  -4  -7   1  387.70   15.62
  -4  -7   2  845.76   31.61
  -4  -7  -2  877.23   31.69
   7  -4  -2  836.60   31.54
   4   7  -2  809.65   31.05
  -4  -7   2  801.16   31.78
  -4  -7   2  813.65   31.52
   7  -4  -3   21.32    2.30
   4   7  -3   15.94    1.66
  -4  -7   3   20.41    2.32
  -4  -7  -3   18.01    2.15
  -4  -7   3   20.24    2.04
  -4  -7   4    1.27    1.51
  -4  -7  -4    1.01    1.50
   4   7  -4   -0.13    1.30
   7  -4  -4    2.73    1.82
  -4  -7   4    0.20    1.80
  -4  -7   4    0.11    1.80
  -4  -7   5  166.47    7.69
   7  -4  -5  180.58    7.66
   4   7  -5  152.91    7.14
  -4  -7   5  150.28    7.15
  -4  -7  -5  152.00    7.22
  -4  -7   5  162.51    7.89
  -4  -7   6    6.37    2.19
   7  -4  -6    7.26    2.16
   4   7  -6    7.25    1.96
  -4  -7   6    7.42    2.10
   7  -4   7   48.01    4.10
   7  -4  -7   40.97    3.70
   4   7  -7   36.63    3.36
  -4  -7   7   30.66    3.50
  -4  -7   8    1.23    2.34
   7  -4   8   -2.40    2.40
   4   7  -8    2.28    2.04
   7  -4  -8    2.05    2.27
  -4  -7   8   -0.96    2.16
   7  -4  -9   51.87    5.34
  -4  -7   9   60.49    5.49
   7  -4   9   61.23    5.68
  -7   4 -10    3.82    1.79
  -7   4 -12    0.59    1.70
  -4  -7  12    1.35    1.93
  -4  -7 -13    2.53    1.62
  -7   4 -13    2.19    1.67
  -7   4 -13    4.19    1.76
  -7   4  14    2.38    1.46
   4   7 -14    7.39    1.55
  -4  -7 -14    2.23    1.56
  -4  -7  14    4.62    2.03
  -4  -7  15    3.15    1.49
  -7   4 -15    2.47    1.14
  -4  -7  15    0.14    1.57
  -7   4 -15    4.31    1.27
   3   7   0  277.95   10.85
  -3  -7   0  290.46   11.11
  -3  -7   0  282.99   11.48
  -3  -7   0  315.40   11.63
   3   7  -1  120.86    4.88
  -3  -7  -1  121.41    4.87
  -3  -7   1  124.70    5.39
  -3  -7   1  130.10    5.76
  -3  -7  -1  131.32    5.59
  -3  -7   1  120.90    5.47
  -3  -7  -1  118.52    5.53
   7  -3  -2  121.41    5.47
  -3  -7   2  115.96    5.42
   3   7  -2  114.31    4.85
  -3  -7   2  116.56    5.71
  -3  -7  -2  125.02    5.53
  -3  -7   2  119.71    5.38
  -3  -7   3   11.08    1.77
   3   7  -3    9.18    1.35
   7  -3  -3   14.48    2.04
  -3  -7   3   15.86    2.08
  -3  -7  -3   14.38    1.96
  -3  -7  -4   15.21    2.05
  -3  -7   4   13.01    1.82
  -3  -7   4   14.33    2.47
   3   7  -4   12.21    1.67
   7  -3  -4   13.80    2.18
  -3  -7   4    9.28    2.11
  -3  -7   5   22.85    2.88
  -3  -7   5   28.93    3.09
   3   7  -5   26.97    2.42
   7  -3  -5   32.38    2.86
  -3  -7   5   29.03    2.33
  -3  -7  -5   23.68    2.39
   7  -3  -6  172.84    8.06
   3   7  -6  161.65    7.67
  -3  -7   6  172.57    8.19
  -3  -7   6  151.43    8.15
   3   7  -7    0.71    1.76
   7  -3  -7    1.86    2.07
   7  -3   7   -3.21    2.41
  -3  -7   7    2.26    1.92
   3   7  -8    2.12    2.08
   7  -3  -8   -1.25    2.30
   7  -3   8    4.40    2.44
  -3  -7   8    3.24    2.39
  -3  -7   8    3.59    2.16
  -3  -7  -9    0.67    1.64
  -3  -7   9    0.17    2.31
   7  -3  -9    2.32    2.43
  -3  -7   9    0.39    2.55
  -3  -7  10   11.99    1.91
  -7   3 -11    0.52    1.79
  -7   3 -12    3.91    2.01
  -7   3 -12    5.56    1.87
  -7   3 -13    4.42    1.76
  -7   3 -13    2.26    1.78
  -3  -7  13    2.52    1.98
  -3  -7 -14    5.43    1.73
   3   7 -14    5.30    1.60
  -3  -7  14    5.53    2.27
  -7   3 -14    6.83    1.63
   7  -3  14    5.66    1.97
  -3  -7  14    6.70    2.11
  -7   3 -14    7.94    1.81
  -7   3 -15    3.85    1.43
  -7   3 -15    2.12    1.16
  -3  -7  15    3.29    1.66
  -2  -7   0   -0.04    0.94
  -2  -7   0    0.87    1.26
  -2  -7   0    0.64    1.23
  -2  -7   1  843.15   29.44
  -2  -7  -1  802.93   29.22
  -2  -7   1  805.10   29.08
  -2  -7  -1  843.23   29.38
  -2  -7   1  818.07   29.29
   2   7  -1  733.62   28.49
  -2  -7  -1  752.78   28.57
   7  -2  -2    8.54    1.74
   2   7  -2    6.04    0.88
  -2  -7   2    6.43    1.81
  -2  -7   2    6.16    1.49
  -2  -7   2    6.13    1.44
  -2  -7  -2    6.37    1.54
   7  -2  -3    6.53    1.93
   2   7  -3    5.07    1.18
  -2  -7  -3    6.99    1.66
  -2  -7   3    6.82    1.57
  -2  -7   3    6.28    2.10
  -2  -7   3    5.44    1.65
   2   7  -4  596.98   25.79
  -7   2   4  642.59   25.97
  -2  -7   4  663.13   26.35
  -2  -7  -4  810.90   26.53
  -2  -7   4  693.10   26.22
   7  -2  -4  751.70   26.44
  -2  -7   5   73.39    4.54
   2   7  -5   67.43    4.03
   7  -2  -5   84.68    4.68
  -7   2  -5   78.28    4.07
  -7   2   5   73.19    4.03
  -7   2  -6   30.78    3.10
   2   7  -6   28.05    2.88
  -2  -7   7   16.81    2.92
   7  -2   7   24.27    3.21
   2   7  -7   22.21    2.79
   7  -2  -7   23.57    3.04
  -2  -7   8   14.76    2.81
   7  -2   8   10.78    2.95
  -2  -7   8   11.52    3.04
   7  -2  -8   18.14    3.04
   2   7  -8   18.48    2.99
  -2  -7   9    0.18    2.19
   7  -2  -9    6.01    2.75
  -2  -7   9    1.90    2.63
  -2  -7  10    2.69    1.53
  -7   2 -11   11.42    2.24
  -7   2 -12   -1.77    1.82
  -7   2 -13    3.87    1.60
  -7   2 -13    2.95    1.70
  -2  -7  13    5.17    1.92
   7  -2 -14    3.74    1.69
  -7   2 -14    3.96    1.59
  -2  -7  14    3.42    1.96
  -7   2 -14    2.45    1.46
  -2  -7  14    2.74    1.83
   2   7  14    4.33    2.28
  -7   2 -15    2.01    1.33
  -2  -7  15   -1.97    1.61
  -1  -7   0 2224.38   79.58
  -1  -7   0 2106.96   79.63
  -1  -7   0 2104.13   79.25
  -1  -7  -1  220.70    8.96
  -1  -7   1  236.24    9.29
  -1  -7  -1  212.35    8.48
  -1  -7   1  222.80    8.99
  -1  -7   1  229.80    9.19
  -1  -7  -1  235.94    9.26
   1   7  -2  125.28    5.48
  -1  -7  -2  134.70    5.84
  -1  -7   2  140.67    6.10
  -1  -7   2  157.31    6.23
  -1  -7  -2  159.36    6.35
  -7   1   3  365.32   13.49
  -1  -7   3  345.33   13.55
  -7   1  -4   24.65    2.26
  -7   1   4   25.30    2.27
  -7   1   4   22.01    2.15
  -1  -7   4   24.99    2.63
   1   7  -4   21.77    2.10
  -1  -7  -4   24.55    2.16
  -7   1   5  257.65   10.71
  -7   1  -5  238.98    9.97
  -7   1   5  230.51    9.92
   1   7  -5  225.09    9.95
  -1  -7  -5  233.19   10.15
  -7   1  -5  245.89   10.50
  -1  -7   5  227.98   10.37
  -7   1  -6    0.96    1.91
  -1  -7  -6    0.75    1.83
   1   7  -6   -0.10    1.68
  -7   1   6    1.11    2.13
   1   7  -7   30.55    3.19
  -1  -7  -7   29.91    3.35
  -7   1   7   27.79    3.47
  -1  -7   7   28.49    3.37
   7  -1   7   32.90    3.45
   1   7  -8   10.26    2.59
  -1  -7  -8    7.25    2.62
  -7   1   8    8.08    2.75
  -1  -7   8   10.08    2.68
  -1  -7  -9    1.66    1.68
  -1  -7   9   -1.46    2.32
  -7   1   9    3.43    2.99
  -1  -7   9    4.87    2.70
   1   7 -10    8.91    2.03
  -7   1  10    9.39    2.12
  -1  -7  10   14.17    1.91
   1   7 -11    1.77    1.75
  -7   1 -11    0.18    1.86
  -1  -7  11    0.57    1.46
  -7   1 -12   14.40    2.35
  -7   1  13    8.75    2.08
  -1  -7  13   12.84    2.84
  -7   1 -13    8.13    2.13
   1   7  14    0.21    2.06
  -7   1 -14    1.85    1.46
  -7   1 -14    0.37    1.33
  -1  -7  14    0.77    1.89
  -7   1 -15    0.76    1.19
  -1  -7  15   -0.22    1.46
  -7   0   0    0.44    1.50
   0  -7   0    0.63    1.23
   0  -7   0    0.09    1.10
  -7   0   1    7.32    1.76
  -7   0  -1    5.27    1.80
   0  -7  -1    5.92    1.23
   0  -7   1    7.35    1.46
   0  -7  -1    7.11    1.02
   0  -7  -2  306.04   11.50
  -7   0   2  350.20   12.08
  -7   0  -2  329.66   12.01
   7   0  -2  332.80   12.08
  -7   0  -2  335.89   12.30
  -7   0   2  359.16   12.22
   0  -7   2  323.97   11.98
   7   0  -3 1365.06   48.92
  -7   0   3 1349.13   48.87
  -7   0  -3 1352.19   48.84
  -7   0  -3 1335.77   49.10
  -7   0   3 1328.56   48.78
   0  -7   3 1261.57   48.87
   0  -7  -3 1256.77   48.34
   0   7  -3 1222.69   48.34
   0  -7  -4 1026.51   38.91
   0   7  -4  962.34   38.82
  -7   0  -4  984.28   39.39
   0  -7   4 1027.08   39.38
  -7   0   4 1048.70   39.54
   7   0  -4 1111.56   39.37
  -7   0  -4 1069.54   39.12
  -7   0   4 1043.29   39.05
   0  -7  -5    9.82    2.08
   0   7  -5   10.31    1.95
   7   0  -5   11.72    2.32
  -7   0  -5   11.31    2.25
  -7   0   5   17.30    2.52
   0  -7   5   10.34    2.41
  -7   0  -5   13.15    1.80
  -7   0   5   12.28    1.66
   0  -7  -6    7.26    2.18
   0   7  -6    6.30    1.88
   7   0  -6    8.95    2.17
  -7   0   6    6.16    2.39
  -7   0  -6    6.24    2.07
  -7   0   7  130.46    7.17
   0  -7   7  114.87    6.65
   7   0   7  119.27    6.84
   0  -7  -7  122.20    6.81
   0   7  -7  109.24    6.39
   7   0  -7  117.71    6.74
  -7   0   8    6.42    2.78
   0  -7   8    4.81    2.45
   0   7  -8    2.47    2.30
   7   0  -8    3.70    2.53
   0  -7  -8    2.20    2.58
   0  -7   9   10.56    3.16
  -7   0   9   12.46    3.42
   0  -7  -9   10.98    3.10
   7   0  -9    6.90    2.95
  -7   0   9    8.22    2.04
   0  -7  -9   10.81    2.06
  -7   0 -10   17.96    2.63
   0   7 -10   14.90    2.43
   0  -7 -10   22.17    2.72
   0  -7  10   16.29    2.31
  -7   0 -11   31.45    3.05
   0  -7  11   22.81    2.54
  -7   0 -12   15.89    2.43
  -7   0 -13    3.62    1.72
   0  -7  13    8.60    2.59
  -7   0 -13    2.58    1.78
   0   7 -13    6.77    1.79
   0  -7 -13    6.76    1.92
   0  -7  13    4.10    2.19
   0  -7  14   -1.74    1.83
   0  -7  14    0.43    1.85
  -7   0 -14    0.24    1.28
  -7   0 -14    1.78    1.45
   0  -7  15   -2.34    1.58
  -7   0 -15    1.59    1.20
  -7  -1   0  220.91    9.32
  -7  -1   0  220.59    9.21
   1  -7  -1  300.99   11.95
  -7  -1   1  307.71   12.44
  -7  -1   1  303.34   12.41
  -7  -1  -1  322.98   12.44
   1  -7  -2  662.50   26.16
   1  -7  -2  629.45   26.24
   1  -7   2  735.20   26.97
  -7  -1   2  735.87   26.99
  -7  -1  -2  776.98   27.20
   7   1  -2  726.05   26.87
  -7  -1  -2  791.41   26.99
  -7  -1   2  768.32   26.97
   1  -7  -3   21.53    1.75
  -7  -1   3   21.17    2.13
  -7  -1  -3   20.92    2.12
  -7  -1   3   20.57    2.00
   7   1  -3   22.40    2.47
  -7  -1  -3   25.42    2.63
   1  -7   3   20.47    2.40
   1  -7  -4  707.99   27.53
  -1   7  -4  648.99   27.47
  -7  -1  -4  748.17   28.14
   1  -7   4  716.50   28.02
  -7  -1   4  708.31   27.62
   7   1  -4  780.51   28.04
  -7  -1  -4  771.00   27.83
  -7  -1   4  732.09   28.22
  -7  -1   5  227.70   10.44
  -7  -1  -5  265.83   10.73
   1  -7  -5  254.44   10.89
  -1   7  -5  264.05   10.79
   7   1  -5  278.13   11.27
  -7  -1  -5  253.18   11.22
  -7  -1   5  299.59   11.57
  -7  -1   5  240.95   10.52
  -7  -1   6   14.90    2.65
   7   1   6    8.68    2.35
  -1   7  -6    9.62    2.18
   1  -7  -6   10.76    2.29
   7   1  -6   12.18    2.34
  -7  -1  -6   10.23    2.28
  -1   7  -7    8.69    2.21
   7   1  -7   10.14    2.54
   1  -7  -7    6.50    2.52
   1  -7   7    5.79    2.48
  -7  -1   7    7.38    2.75
  -1   7  -8   -0.73    2.18
   1  -7  -8    3.24    2.47
   7   1  -8   -1.56    2.42
  -7  -1   8    5.49    2.66
   1  -7   8    0.82    2.17
  -7  -1  -8    1.17    1.43
   7   1  -9    4.11    2.56
   1  -7  -9    4.55    2.61
  -7  -1  -9    3.82    1.60
  -7  -1   9   -1.53    2.96
   1  -7   9    3.52    2.48
   7   1  10  155.61    8.67
   1  -7 -10  162.60    8.18
  -7  -1 -10  156.02    7.69
   1  -7 -11   48.68    4.12
  -7  -1 -11   54.25    3.75
   1  -7  11   43.40    3.47
  -7  -1 -12    4.78    1.75
   1  -7 -13    3.38    1.72
  -7  -1 -13    1.95    1.52
   1  -7  13    0.81    2.21
   7   1  13    1.54    1.99
   1  -7  13    1.55    2.14
   1  -7  14    1.04    1.81
   1  -7  14   -0.81    1.78
   1  -7  15    3.53    1.61
   1  -7  15    1.41    1.33
  -7  -2   0    0.70    1.65
  -7  -2   0    1.30    1.37
   2  -7  -1 1309.00   50.24
  -7  -2   1 1451.14   51.20
  -7  -2   1 1454.64   51.09
  -7  -2  -1 1439.29   51.12
  -7  -2  -2   63.30    3.48
  -7  -2   2   63.15    3.39
   7   2  -2   67.02    3.56
   2  -7  -2   62.83    2.82
   2  -7  -2   55.51    2.73
  -7  -2   2   70.26    3.76
  -7  -2  -2   68.68    3.83
   2  -7  -3 1302.79   49.91
  -7  -2   3 1348.28   50.35
   2  -7   3 1377.03   50.70
  -7  -2  -3 1345.55   50.64
  -7  -2  -3 1377.90   50.41
  -7  -2   3 1270.20   50.24
   7   2  -3 1394.99   50.48
   7   2  -4  190.73    7.88
  -7  -2   4  162.34    7.37
  -7  -2  -4  188.24    7.66
   2  -7  -4  159.69    7.28
  -7  -2  -4  158.88    7.87
  -7  -2   4  159.89    7.46
  -7  -2   4  181.20    8.14
   2  -7   4  168.97    8.04
   2  -7  -5    3.05    1.69
   7   2  -5    1.86    2.01
  -7  -2   5   -1.02    1.49
  -7  -2   5    0.38    2.07
  -7  -2   5    0.08    1.27
  -7  -2  -5   -0.51    1.35
  -7  -2   6   18.53    2.83
   2  -7   6   14.01    2.67
  -7  -2   6    9.95    1.88
   7   2  -6   16.31    2.54
   2  -7  -6   13.74    2.34
   2  -7   7   42.08    3.98
  -7  -2   7   46.80    4.21
   2  -7  -7   35.51    3.73
   7   2  -7   41.75    3.85
   2  -7   8   18.91    3.12
  -7  -2   8   22.97    3.57
  -7  -2  -8   16.71    2.02
   7   2  -8   20.17    3.39
   2  -7  -8   21.82    3.35
  -7  -2   9   17.43    3.77
   2  -7   9   19.22    3.30
   2  -7  -9   14.21    3.56
   7   2  -9   22.88    3.70
  -7  -2  -9   14.18    2.05
  -7  -2 -10   40.51    3.19
  -7  -2 -11   22.22    2.58
   2  -7  11   22.89    2.56
  -7  -2 -11   26.96    2.99
  -7  -2 -12    1.54    1.53
   2  -7  12    4.75    2.50
   2  -7  12    0.13    1.44
   2  -7  13    3.53    2.18
   2  -7  13    2.54    2.18
  -7  -2 -13    3.49    1.51
  -7  -2 -13    1.36    1.67
  -2   7  14    5.26    1.88
   2  -7  14    0.94    2.00
   7   2 -14    3.08    1.71
   2  -7  14    2.12    1.72
  -7  -2 -14    3.42    1.54
  -2   7 -15   -0.68    1.09
  -7  -2 -15    1.56    1.22
  -7  -3   0  319.02   12.78
   3  -7   0  319.83   12.10
  -7  -3   1  145.48    6.38
  -7  -3  -1  140.72    6.41
   3  -7  -1  147.19    5.77
  -7  -3   2  156.96    7.09
  -7  -3   2  167.38    7.01
   7   3  -2  155.63    6.89
  -7  -3   2  148.97    6.77
  -7  -3  -2  152.70    6.85
   3  -7  -2  155.80    6.29
  -7  -3   3   26.76    2.87
  -7  -3   3   34.08    2.68
   7   3  -3   31.23    2.68
  -7  -3   3   28.39    2.40
  -7  -3  -3   26.19    2.41
   3  -7  -3   26.29    2.02
   3  -7   4    0.11    2.17
   3  -7  -4    0.51    1.45
   7   3  -4    2.23    1.92
  -7  -3   4   -0.37    1.59
  -7  -3   4    1.59    1.54
  -7  -3  -4    2.50    1.60
  -7  -3  -5  112.04    5.32
  -7  -3   5  100.90    5.15
  -7  -3   5  110.25    5.95
  -7  -3   5   93.12    5.31
   7   3  -5  108.95    5.63
   3  -7  -5   99.62    5.24
  -7  -3   6    3.28    1.52
  -7  -3   6    2.48    2.22
   3  -7   6    1.89    2.14
   7   3  -6    1.50    1.93
   3  -7  -6    1.43    1.82
  -7  -3   7    4.38    2.51
   3  -7   7    2.12    2.28
   3  -7  -7    3.81    2.20
   7   3  -7    4.76    2.33
   3  -7   8    4.46    2.30
  -7  -3   8    6.71    2.62
   3  -7  -8    2.60    2.38
   7   3  -8    0.96    2.35
  -7  -3   9   -0.34    1.63
   7   3  -9    1.83    2.65
   3  -7  -9    1.45    2.59
   3  -7   9   -3.26    2.50
  -7  -3   9   -1.09    2.81
  -3   7 -10   18.68    2.45
  -7  -3 -10   20.05    2.28
  -7  -3 -11    0.20    1.83
   3  -7  11   -2.14    2.51
  -7  -3 -11    1.83    1.63
   3  -7  12    2.87    1.54
  -7  -3 -12    5.48    1.97
   3  -7  12    4.16    2.44
  -7  -3 -12    5.11    1.61
   3  -7  13    8.00    2.49
  -7  -3 -13    1.74    1.55
   3  -7  13    4.99    2.26
  -3   7 -13    4.19    1.75
  -7  -3 -13    7.13    1.89
   3  -7  14    0.62    1.89
  -7  -3  14    2.02    1.51
   3  -7  14   -0.65    1.55
  -3   7 -14    0.68    1.27
  -7  -3 -14   -0.75    1.45
  -7  -3 -15    2.51    1.24
   3  -7  15    3.12    1.53
  -3   7 -15    2.74    1.08
  -7  -4   0    0.68    1.38
  -7  -4  -1   28.81    2.37
  -7  -4   1   25.17    2.23
   4  -7  -1   32.18    1.79
  -7  -4   2  327.61   13.83
  -7  -4   2  338.59   13.86
  -7  -4  -2  356.60   13.85
   7   4  -2  337.00   13.65
  -7  -4   2  342.98   13.75
   4  -7  -2  339.86   13.19
  -7  -4   3    9.65    2.31
   4  -7  -3    7.10    1.45
   7   4  -3   11.30    1.93
  -7  -4   3   10.72    2.00
  -7  -4   3   10.97    1.77
  -7  -4  -3   10.43    2.00
  -7  -4   4   31.46    3.07
  -7  -4  -4   28.37    2.65
  -7  -4   4   26.37    2.50
  -7  -4   4   21.06    2.50
   7   4  -4   25.46    2.62
   4  -7  -4   22.12    2.17
  -7  -4   5  199.38    9.06
   7   4  -5  219.34    9.19
   4  -7  -5  196.18    8.86
  -7  -4  -5  210.24    8.97
  -7  -4   5  186.69    8.78
   7   4  -6   19.13    2.60
   4  -7  -6   20.99    2.52
  -7  -4   6   19.59    3.01
   4  -7   6   16.67    2.74
  -7  -4   6   14.65    2.25
   7   4  -7    9.59    2.49
   4  -7  -7    8.65    2.29
  -7  -4   7    9.22    2.67
   4  -7   7    6.26    2.31
  -7  -4   7    3.23    1.74
   4  -7  -8    3.86    2.32
   7   4  -8    1.27    2.46
  -7  -4  -8    2.64    1.29
   4  -7   8    5.30    1.65
   4  -7   8    6.98    2.47
  -7  -4   8    0.57    2.57
   4  -7  -9    7.41    3.03
   7   4  -9    9.95    3.22
   4  -7   9   14.78    3.10
  -7  -4  -9   10.99    1.73
   4  -7   9    8.70    2.18
  -7  -4 -10   11.55    2.29
   4  -7  10   10.80    2.66
  -7  -4 -10    9.05    1.85
   4  -7  11   11.82    2.94
  -7  -4 -11   17.11    2.09
   4  -7  12    1.13    1.37
  -7  -4 -12    0.10    1.74
   4  -7  12   -1.33    2.29
  -7  -4 -12    1.24    1.39
   4  -7  12   -1.51    2.15
  -4   7 -13    4.43    1.79
  -7  -4 -13    6.40    2.02
   7   4  14   -1.13    1.68
   4  -7 -14   -1.58    1.44
  -4   7 -14    2.95    1.27
  -7  -4 -15    1.49    1.21
   4  -7  15    1.44    1.52
  -4   7 -15    1.73    1.14
  -7  -5   0    0.42    1.56
  -7  -5   1  865.37   34.77
   5  -7  -1  933.83   34.40
  -7  -5   1  934.22   34.98
  -7  -5  -1  925.28   35.02
   5  -7  -2  555.67   21.32
   7   5  -2  543.39   21.60
  -7  -5   2  585.21   21.94
  -7  -5  -2  563.66   21.97
  -7  -5   2  539.33   21.84
  -7  -5   2  565.60   21.98
  -7  -5   3    9.34    2.22
  -7  -5  -3   10.83    1.96
  -7  -5   3   10.78    1.99
   7   5  -3    9.38    1.89
   5  -7  -3    7.96    1.54
  -7  -5   3    7.78    2.01
  -7  -5   4  134.56    6.84
   7   5  -4  152.36    6.75
  -7  -5   4  143.51    7.08
  -7  -5   4  150.44    6.76
  -7  -5  -4  153.23    6.94
  -7  -5   5   44.85    3.48
  -7  -5  -5   49.05    3.30
  -7  -5   5   45.83    3.23
   7   5  -5   53.24    3.48
   5  -7  -5   38.64    3.25
  -7  -5   5   48.03    3.83
  -7  -5   6   48.36    3.89
   5  -7   6   62.23    4.47
   7   5  -6   58.23    4.12
   5  -7  -6   64.67    4.04
  -7  -5   7    0.78    1.66
   7   5  -7    2.61    2.04
   5  -7  -7    3.19    2.10
  -7  -5   7   -0.51    2.42
   5  -7   7    6.08    2.38
  -7  -5  -8   14.63    2.08
   5  -7   8   14.51    2.10
  -7  -5  -8   12.34    1.65
   5  -7  -8   12.48    2.81
   7   5  -8    9.90    2.98
   5  -7   8   14.50    2.96
  -7  -5   8   15.72    3.18
   5  -7   9   10.22    2.21
  -7  -5  -9   15.70    1.81
   5  -7  -9    9.51    3.15
   7   5  -9    9.53    3.25
  -7  -5  -9   13.97    2.23
  -7  -5 -10   17.27    2.00
   5  -7  10   14.70    2.68
  -5   7 -11    0.80    1.58
  -7  -5 -11   -2.50    1.91
  -7  -5 -11    0.70    1.39
   5  -7  12   21.81    3.49
  -5   7 -12   24.52    2.68
  -7  -5 -12   22.89    2.88
  -7  -5  13   -0.66    1.77
   5  -7 -13    3.57    1.81
  -5   7 -13    2.36    1.55
  -7  -5 -13    5.12    1.76
   7   5 -14    2.74    1.51
   5  -7  14    0.28    1.89
  -7  -5 -14   -1.39    1.44
  -5   7 -14    1.01    1.43
  -7  -6   0   -0.81    1.55
  -7  -6   1   10.75    1.89
  -7  -6  -1    7.59    1.80
  -7  -6   1    7.60    1.81
   7   6  -1   11.57    1.77
   6  -7  -1   10.94    1.60
  -7  -6  -2  583.29   22.11
  -7  -6   2  572.86   22.03
   6  -7  -2  558.78   21.53
   7   6  -2  548.76   21.67
  -7  -6   2  530.48   21.93
  -7  -6   2  570.10   22.20
  -7  -6   3  228.98   10.29
   7   6  -3  226.42    9.90
  -7  -6  -3  266.29   10.50
  -7  -6   3  257.63   10.37
   6  -7  -3  218.23    9.79
  -7  -6   3  228.98   10.37
  -7  -6   4   16.30    2.61
  -7  -6  -4   12.87    2.08
  -7  -6   4   14.79    2.06
  -7  -6   4   11.00    2.22
   7   6  -4   14.45    2.11
   6  -7  -4   10.80    1.89
   7   6  -5  145.03    6.94
   6  -7  -5  142.82    6.86
  -7  -6  -5  143.69    6.94
  -7  -6   5  138.37    6.87
  -7  -6   5  146.26    7.27
  -7  -6   5  139.48    7.41
   7   6  -6    7.55    2.11
   6  -7  -6    6.54    2.07
  -7  -6   6    9.77    2.57
   6  -7   6    8.05    2.47
  -7  -6   6    9.76    2.15
   7   6  -7   45.98    4.01
   6  -7  -7   41.90    3.81
   6  -7   7   44.04    4.09
  -7  -6   7   37.70    3.54
  -7  -6  -8   19.23    1.92
   7   6  -8   17.70    3.30
   6  -7  -8   22.31    3.38
  -7  -6   8   27.45    3.69
   6  -7   8   18.52    3.18
  -7  -6  -9    9.05    1.59
  -6   7  -9    7.57    1.93
  -7  -6 -10    1.16    1.32
  -7  -6 -10    1.18    1.91
   6  -7  11    2.16    2.13
  -6   7 -11   -0.80    1.62
  -7  -6 -11   -0.99    1.79
  -7  -6  12    1.21    1.95
  -7  -6 -12    4.19    1.90
  -6   7 -12    2.26    1.66
  -6   7 -13   10.29    1.86
  -7  -6 -13    5.29    2.01
   7   6 -13    6.00    2.05
  -7  -6  13    7.93    2.16
   6  -7  14    3.03    1.72
  -6   7 -14    1.94    1.41
  -7  -6 -14   -2.12    1.47
  -7  -6  15   -0.06    1.27
  -7  -6 -15    0.52    1.07
  -7  -7   0 2070.40   77.66
  -7  -7   1  283.59   11.53
  -7  -7   1  243.29   10.95
  -7  -7   1  278.40   11.36
  -7  -7  -1  283.38   11.35
   7   7  -1  259.64   10.76
   7  -7  -1  263.14   10.80
  -7  -7   2  140.06    6.75
  -7  -7  -2  148.45    7.00
  -7  -7   2  145.37    6.92
   7  -7  -2  139.65    6.39
   7   7  -2  144.05    6.36
  -7  -7   3   27.12    2.92
   7  -7  -3   25.64    2.47
   7   7  -3   29.78    2.41
  -7  -7   3   28.01    2.91
  -7  -7   3   33.55    2.84
  -7  -7  -3   29.67    2.92
   7   7  -4    5.11    1.74
   7  -7  -4    8.31    1.89
  -7  -7   4    5.38    1.99
  -7  -7   4    8.10    2.30
  -7  -7  -4    7.75    2.01
  -7  -7   4    7.27    1.92
   7  -7  -5    3.13    1.85
   7   7  -5    3.44    1.72
  -7  -7   5    1.78    1.93
  -7  -7   5    4.44    2.26
  -7  -7  -5    4.32    1.66
  -7  -7   5    3.42    1.52
   7  -7  -6   32.07    3.18
   7   7  -6   33.01    3.05
   7  -7   6   33.18    3.59
  -7  -7   6   34.24    3.56
  -7  -7   6   27.91    3.11
   7  -7  -7    7.53    2.43
   7   7  -7    8.85    2.49
  -7  -7   7   11.68    2.46
  -7  -7   7   15.57    3.10
   7  -7   7    9.23    2.83
   7  -7   8    5.15    2.67
  -7  -7  -8    3.76    1.35
  -7  -7  -8    6.34    1.77
   7  -7  -8    1.48    2.45
  -7  -7   8    4.98    1.81
  -7  -7   8    1.77    2.05
  -7   7  -9   16.39    2.25
  -7  -7  -9   12.43    2.29
   7  -7   9   13.75    2.42
  -7  -7   9   11.33    2.28
  -7  -7  -9   17.69    1.90
  -7  -7   9   16.37    2.07
  -7  -7 -10   10.63    2.27
  -7   7 -10   15.68    2.23
  -7  -7  10   11.64    1.91
   7  -7  10   14.00    2.54
  -7  -7  10   11.08    2.29
  -7   7 -11    1.70    1.70
  -7  -7 -11    0.77    1.78
  -7  -7 -12    0.18    1.67
  -7   7 -12    1.40    1.55
  -7  -7  12    0.59    1.77
   7  -7  12    1.43    2.05
  -7  -7 -13    7.07    1.90
  -7   7 -13    8.35    1.82
  -7   7 -13   10.47    2.08
  -7  -7  13    9.48    2.08
   7  -7  13    6.60    2.47
  -7  -7  14    2.94    1.90
  -7   7 -14    4.28    1.57
  -7  -7 -15    3.89    1.01
  -7  -8   0    1.63    1.65
  -7  -8  -1 1866.16   66.93
  -7  -8   1 1862.07   66.95
  -7  -8   1 1864.28   67.03
   8  -7  -1 1744.40   66.37
  -7  -8   1 1619.67   66.38
   8  -7  -2    3.69    1.60
  -7  -8  -2    4.75    1.92
  -7  -8   2    3.81    1.83
  -7  -8   2    3.71    1.69
   8  -7  -3    7.87    1.91
  -7  -8  -3    7.71    2.03
  -7  -8   3   10.74    2.08
  -7  -8   3    9.04    2.16
  -7  -8  -4  843.82   30.41
  -7  -8   4  752.01   30.16
  -7  -8   4  737.53   30.29
  -7  -8   4  745.22   30.39
   8  -7  -4  774.88   29.94
  -7  -8   5   14.80    2.62
  -7  -8   5   13.14    2.68
   8  -7  -5    9.91    2.32
  -7  -8   5   12.49    2.09
   8  -7   6   19.19    3.26
  -7  -8   6   26.10    3.19
  -7  -8   6   18.46    2.78
   8  -7  -6   14.84    2.67
  -7  -8   7   25.66    3.49
   8  -7   7   22.94    3.47
   8  -7  -7   22.76    3.28
  -7  -8   7   20.87    2.38
  -7  -8   7   20.72    3.02
  -8   7  -8   31.44    2.84
  -7  -8   8   32.15    3.00
  -7  -8   8   32.20    3.82
  -7  -8   8   37.52    2.63
  -7  -8   9   50.64    3.74
  -7  -8   9   47.45    3.30
  -8   7  -9   48.55    3.61
  -7  -8  -9   53.18    3.69
  -7  -8 -10    7.45    1.92
  -8   7 -10    6.55    1.82
  -7  -8  10    4.25    1.54
  -7  -8  10    8.46    2.06
  -7  -8 -11    4.05    1.87
  -7  -8  11    6.84    1.60
  -7  -8 -12   -0.49    1.56
  -8   7 -12    2.10    1.61
  -7  -8  12    0.29    1.75
   8  -7 -13    2.28    1.58
  -8   7 -13    4.69    1.46
  -7  -8  13    4.64    1.66
   8  -7  13    0.59    1.29
  -7  -8  13    0.82    1.92
  -7  -8 -14    2.16    1.33
  -8   7 -14    1.06    1.28
  -6  -8   0  288.97   12.21
  -6  -8   0  290.62   12.17
  -6  -8   1   28.23    2.64
  -6  -8  -1   24.73    2.57
   8  -6  -1   30.04    2.50
  -6  -8   1   29.44    2.83
  -6  -8   1   21.81    2.21
  -6  -8   2  556.48   21.10
  -6  -8  -2  543.55   21.11
   8  -6  -2  546.68   20.75
  -6  -8   2  513.38   21.15
  -6  -8   2  490.09   20.74
  -6  -8   3  215.24    9.82
  -6  -8   3  218.51    9.87
  -6  -8  -3  230.70    9.91
   8  -6  -3  228.44    9.65
   8  -6  -4   16.77    2.35
  -6  -8   4   16.03    2.60
  -6  -8   4   15.75    2.51
  -6  -8   4   19.05    2.37
  -6  -8  -4   14.51    2.25
   8  -6  -5    0.22    1.84
  -6  -8   5    2.93    2.18
  -6  -8   5    1.24    2.11
  -6  -8   5    1.11    1.52
  -6  -8  -5   -0.11    1.54
  -6  -8   6   94.34    5.99
   8  -6  -6  104.06    5.81
  -6  -8   6   95.39    5.97
  -6  -8   7   -0.17    2.26
   8  -6   7   -0.89    2.42
  -8   6  -7    0.08    1.36
   8  -6  -7    1.33    2.09
  -6  -8   7   -0.33    1.99
  -6  -8   8    3.38    2.63
   8  -6   8   -2.06    2.66
   8  -6  -8   -0.17    2.63
  -8   6  -8    0.08    1.52
  -6  -8   8    1.06    1.68
  -6  -8   8    2.97    2.11
  -8   6  -9    2.15    1.66
  -6  -8   9    1.03    1.68
  -6  -8  -9    1.54    1.65
  -8   6 -10   10.82    2.17
  -6  -8 -10    9.19    2.11
  -6  -8  10   11.96    1.90
  -6  -8 -11    2.79    1.72
  -8   6 -11    4.75    1.81
  -6  -8  11    5.57    1.51
  -6  -8  11    2.57    1.89
  -8   6  12    1.16    1.58
  -6  -8 -12   -1.65    1.58
  -8   6 -13    1.46    1.64
  -6  -8  13   -0.99    1.92
  -8   6 -13    0.81    1.47
  -8   6 -14    4.78    1.37
  -6  -8 -14    4.32    1.40
  -6  -8  14    1.61    1.76
  -8   6 -14    1.45    1.36
  -5  -8   0    0.65    1.69
  -5  -8   0   -0.09    1.59
  -5  -8   0    0.16    1.13
  -5  -8   1   81.26    4.41
  -5  -8  -1   74.44    4.14
  -5  -8   1   77.45    4.21
  -5  -8   1   75.73    3.89
  -5  -8  -2  155.67    7.19
  -5  -8   2  154.82    7.17
   8  -5  -2  156.74    7.02
  -5  -8   2  150.14    7.32
  -5  -8   2  155.22    7.01
  -5  -8   3  920.22   38.17
  -5  -8   3 1026.07   38.34
  -5  -8  -3 1037.71   38.43
   8  -5  -3 1027.38   38.21
  -5  -8   4   10.10    2.18
   8  -5  -4   11.67    2.21
  -5  -8   4   13.44    2.48
  -5  -8   4    9.70    1.95
  -5  -8  -4   13.92    2.13
  -5  -8  -5  423.73   17.94
  -5  -8   5  422.95   17.88
  -5  -8   5  450.55   18.61
   8  -5  -5  483.04   18.24
  -5  -8   5  451.82   18.36
   8  -5  -6   10.55    2.37
  -5  -8   6   15.13    2.59
  -5  -8   6    9.19    2.36
   8  -5   7   56.70    4.81
  -5  -8   7   45.38    4.40
   8  -5  -7   64.33    4.65
  -5  -8   7   52.58    4.54
  -8   5  -8   10.18    1.91
   8  -5   8   11.95    3.05
  -5  -8   8    8.01    2.55
  -5  -8   8    4.64    1.99
   8  -5  -8    6.96    2.77
  -5  -8   9    2.67    1.73
  -8   5  -9   -1.73    1.65
  -5  -8   9    1.66    1.40
  -8   5 -10    0.49    1.64
  -5  -8  10    3.90    1.83
  -5  -8  10    1.03    1.48
  -5  -8 -10    0.18    1.65
  -5  -8  11    1.20    1.38
  -8   5 -11    0.10    1.78
  -5  -8  12   -0.97    1.85
  -8   5 -12    2.01    1.85
  -5  -8 -12    3.18    1.58
  -8   5 -12    0.75    1.65
  -8   5 -13    2.39    1.61
  -8   5 -13    2.09    1.62
  -5  -8  14   -0.54    1.58
  -5  -8 -14    3.82    1.32
  -8   5 -14   -0.39    1.29
  -8   5 -14    3.54    1.34
  -4  -8   0 1539.55   55.26
  -4  -8   0 1439.42   55.10
  -4  -8   0 1445.69   54.62
  -4  -8  -1  213.56    8.98
  -4  -8   1  218.67    9.09
  -4  -8  -1  200.75    8.85
  -4  -8   1  207.01    8.85
  -4  -8   1  200.67    8.56
  -4  -8  -2   92.92    4.80
  -4  -8   2   90.41    4.71
  -4  -8   2   81.40    4.53
   8  -4  -2   96.45    4.75
  -4  -8   2   92.64    5.02
   8  -4  -3  335.95   13.81
  -4  -8   3  309.73   13.76
  -4  -8   3  343.97   13.87
  -4  -8  -3  365.90   14.04
   8  -4  -4  584.89   22.15
  -4  -8  -4  596.39   22.21
  -4  -8   4  552.75   21.96
  -4  -8   5    8.64    2.23
   8  -4  -5   10.74    2.25
  -4  -8   5    9.39    1.67
  -4  -8  -5    8.12    1.75
  -4  -8   5    6.77    2.16
   8  -4  -6   46.51    3.69
  -4  -8   6   42.63    3.91
  -4  -8   6   35.39    3.59
   8  -4  -7    7.08    2.24
  -4  -8   7    1.80    2.04
  -4  -8   7    0.32    2.07
   8  -4   7    3.93    2.40
  -8   4  -8   13.02    2.01
   8  -4   8   20.63    3.43
   8  -4  -8   13.26    3.11
  -4  -8   8   14.13    2.95
  -8   4  -9    1.65    1.69
  -4  -8   9   -0.73    1.48
  -8   4 -10    0.10    1.78
  -4  -8  11   -1.35    1.90
  -8   4 -11    2.37    1.78
  -4  -8  11    0.85    1.29
  -8   4 -12    2.74    1.78
  -8   4 -12    1.72    1.87
  -4  -8 -13   -1.02    1.46
  -4  -8  13    0.10    1.75
  -8   4 -13    1.05    1.60
  -4  -8  13    0.49    1.95
  -8   4 -14    3.75    1.44
  -4  -8  14    6.31    1.96
  -4  -8 -14    4.22    1.41
  -8   4 -14    3.84    1.52
  -3  -8   0    3.09    1.62
  -3  -8   0    1.84    1.56
  -3  -8   0    1.78    1.07
  -3  -8   1 1071.45   40.38
  -3  -8   1 1037.75   40.62
  -3  -8  -1 1071.02   40.67
  -3  -8  -1 1099.44   40.64
  -3  -8   1 1090.91   40.80
  -3  -8   2  162.04    7.45
   8  -3  -2  173.33    7.60
  -3  -8  -2  175.64    7.67
  -3  -8   2  173.96    7.55
  -3  -8   2  173.89    7.83
  -3  -8   3  784.23   31.72
   8  -3  -3  849.48   31.79
  -3  -8   3  811.19   31.71
  -3  -8  -3  899.48   32.03
  -3  -8   3  799.00   32.13
   8  -3  -4    2.96    1.95
  -3  -8   4    1.63    1.91
  -3  -8  -4    0.61    1.69
  -3  -8   4    4.85    1.59
  -3  -8   5  125.16    6.48
   8  -3  -5  128.72    6.46
  -3  -8   5  120.83    6.82
  -8   3  -6   82.58    5.53
  -3  -8   6   97.59    5.78
   8  -3  -6   96.86    5.47
  -3  -8   6   93.72    6.04
   8  -3   7   37.37    3.79
  -3  -8   7   30.69    3.59
   8  -3  -7   32.14    3.43
  -3  -8   7   24.19    3.43
   8  -3   8    8.59    2.99
  -3  -8   8   13.77    2.94
   8  -3  -8   14.63    2.87
  -3  -8   9    0.38    2.33
  -3  -8   9    4.51    1.63
  -8   3 -10    1.71    1.80
  -3  -8  10    2.03    1.51
  -8   3 -11   -0.09    2.04
  -3  -8  11   -1.38    1.93
  -8   3 -11    0.52    1.83
  -8   3 -12    4.83    1.93
  -3  -8  12    3.31    1.91
  -8   3 -12    4.29    1.93
  -8   3 -13    1.24    1.70
  -3  -8  13    0.50    1.96
  -3  -8  13    2.87    1.94
  -8   3 -14    4.11    1.59
  -3  -8  14    4.36    1.86
  -8   3 -14    2.77    1.46
  -3  -8  14    5.69    1.84
   3   8  14    7.97    2.33
   8  -3 -14    1.92    1.58
  -8   3 -15    3.28    1.26
  -2  -8   0 1066.71   41.48
  -2  -8   0 1087.66   41.03
  -2  -8   0 1154.77   41.55
  -2  -8  -1   74.22    3.70
  -2  -8   1   76.03    4.02
  -2  -8   1   76.16    3.61
  -2  -8  -1   78.10    3.93
  -2  -8   1   78.34    3.86
  -2  -8  -1   64.56    2.94
  -2  -8   2  133.83    6.26
  -2  -8  -2  130.25    6.13
  -2  -8   2  138.43    6.67
  -2  -8   2  142.09    6.36
  -2  -8  -2  152.03    6.56
   8  -2  -2  147.04    6.46
  -2  -8   3  422.17   18.08
  -2  -8   3  464.01   18.63
   8  -2  -3  458.07   18.20
  -2  -8   3  451.88   18.13
   8  -2  -4 2151.22   76.57
  -8   2   4 2025.07   76.29
  -2  -8   4 1949.54   76.47
  -8   2  -5    7.87    1.80
  -8   2   5    8.57    1.76
  -2  -8   5   10.66    2.63
  -8   2  -5   11.76    2.53
  -2  -8   5    8.89    2.24
   8  -2  -5    6.45    2.17
  -2  -8   6    1.08    2.10
  -8   2  -6    1.09    2.05
  -2  -8   6   -0.13    2.16
   8  -2  -6    1.43    2.02
  -2  -8   7   88.33    6.19
   8  -2  -7   99.34    5.96
   8  -2   7   91.28    6.32
  -2  -8   8    3.14    2.45
   8  -2  -8    4.48    2.41
   8  -2   8    3.21    2.62
  -8   2  -8    5.23    1.61
  -2  -8   9    7.22    2.79
   8  -2  -9    8.38    3.05
  -8   2  10   -1.15    1.81
  -2  -8  10    2.83    1.62
  -8   2 -11   10.99    2.30
  -2  -8  11    8.68    1.89
  -8   2 -12    2.82    1.84
  -8   2 -12    2.84    1.79
  -2  -8  12    0.58    1.90
  -8   2 -13    2.86    1.66
  -2  -8  13    5.19    2.23
  -8   2 -13    1.53    1.67
  -2  -8  13   -0.33    1.87
  -2  -8  14    5.45    2.11
  -8   2 -14    5.17    1.54
  -8   2 -14    4.08    1.61
  -2  -8  14    2.59    1.87
  -8   2 -15   -0.74    1.15
  -1  -8   0    1.03    1.37
  -1  -8   0    1.44    1.11
  -1  -8   0   -0.30    1.36
  -1  -8  -1  807.38   31.69
  -1  -8   1  855.60   32.24
  -1  -8  -1  868.59   32.25
  -1  -8   1  911.12   32.63
  -1  -8  -1  907.66   32.60
  -1  -8   1  872.69   32.49
  -1  -8  -2  122.10    5.66
  -1  -8   2  135.07    6.38
  -8   1   2  143.93    6.18
  -1  -8   2  125.47    5.89
  -8   1   3   35.66    2.73
  -1  -8   3   28.86    2.70
  -8   1  -4   66.90    3.75
  -8   1   4   57.41    3.63
  -8   1  -4   59.61    4.19
  -1  -8   4   56.82    3.87
  -8   1   4   61.42    3.62
  -8   1   5  412.19   16.79
  -8   1  -5  451.44   16.92
  -8   1  -5  389.61   17.31
  -1  -8   5  412.64   17.27
  -8   1  -6    7.87    2.34
  -1  -8  -6    7.19    2.02
  -1  -8   6    6.99    2.27
  -1  -8  -7    1.44    2.05
   8  -1   7   -0.48    2.48
  -1  -8   8    2.33    2.37
  -1  -8   8   -1.09    2.32
  -8   1  -8    0.79    1.45
  -1  -8   9   32.27    4.30
  -8   1  -9   24.76    2.66
  -1  -8  10   -1.56    1.58
  -8   1 -10    1.63    1.85
  -1  -8  11    0.52    1.48
  -8   1 -11    0.27    1.88
  -8   1 -11    1.67    1.82
  -1  -8 -11    1.34    1.72
  -8   1 -12    1.82    1.76
  -1  -8  12    1.20    2.39
  -1  -8  12    0.85    1.33
  -8   1 -13   -0.09    1.59
  -8   1 -13    0.77    1.53
  -8   1 -14    1.63    1.47
  -1  -8  14    3.43    1.83
  -8   1 -14    2.54    1.32
  -8   1 -15   -0.38    1.23
  -1  -8  15    1.96    1.33
  -8   0   0   63.53    3.54
   0  -8   0   62.93    3.31
  -8   0   0   59.55    3.70
   0  -8   0   56.70    3.02
  -8   0   1  190.84    7.98
  -8   0  -1  188.96    7.95
  -8   0  -1  184.04    8.14
  -8   0   1  195.62    8.04
   0  -8  -1  171.87    7.17
   0  -8   1  175.38    7.58
   0  -8  -1  178.82    7.48
  -8   0  -2    3.90    1.63
  -8   0   2    3.36    1.55
   0  -8   2    3.40    1.64
   8   0  -2    1.34    1.88
  -8   0   2    2.39    1.77
  -8   0  -2    5.64    2.14
   0  -8  -2    2.50    1.09
   0  -8   3  821.51   33.59
  -8   0   3  937.50   33.62
  -8   0  -3  842.37   33.86
   8   0  -3  870.45   33.63
  -8   0  -3  883.01   33.60
  -8   0   3  904.09   33.68
  -8   0   4   36.02    2.71
   8   0  -4   40.15    3.15
  -8   0  -4   34.44    2.72
   0  -8   4   42.87    3.23
  -8   0  -4   40.81    3.31
  -8   0   4   38.02    2.63
  -8   0  -5    2.27    1.49
  -8   0   5    1.84    1.43
  -8   0   5    0.40    2.19
   0  -8   5    2.63    2.09
  -8   0  -5    0.98    2.00
   8   0  -5   -0.88    1.95
   0  -8  -5    1.97    1.60
  -8   0  -6  283.11   13.13
   0  -8   6  290.74   13.17
  -8   0   6  302.90   13.45
   0  -8  -6  286.39   12.83
   8   0  -6  331.12   13.13
   0  -8  -7   10.35    2.49
   8   0  -7   13.22    2.63
  -8   0   7    9.51    2.73
  -8   0   8   34.87    4.19
   0  -8   8   27.07    3.70
   8   0  -8   24.06    3.71
   0  -8  -8   22.47    3.43
  -8   0  -8   22.60    2.36
  -8   0  -8   23.96    2.31
   0  -8   9    2.36    2.63
  -8   0  -9   -1.25    1.72
  -8   0  -9    1.09    1.73
   8   0  -9    3.13    2.79
  -8   0 -10    1.95    1.91
   0  -8  10    2.23    1.72
  -8   0 -11   10.22    2.30
   0  -8  11   10.96    2.07
   0  -8  12   -0.73    1.94
   0  -8  12    1.21    2.43
  -8   0 -12    1.88    1.74
  -8   0 -12    0.20    1.83
   0  -8  12    0.53    1.38
  -8   0 -13    6.77    1.73
   0  -8  13    5.50    2.37
  -8   0 -13    4.15    1.83
   0  -8  13    6.72    2.26
   0  -8  14    3.73    1.97
  -8   0 -14    2.30    1.35
   0  -8  15    1.43    1.44
  -8   0 -15    2.14    1.15
  -8  -1   0    1.24    1.57
   1  -8   0    0.72    1.32
  -8  -1   0   -1.18    1.85
  -8  -1  -1    9.68    1.77
  -8  -1   1    8.78    1.81
  -8  -1  -1   10.46    2.23
   1  -8  -1    8.65    1.31
  -8  -1   1   10.35    1.93
   1  -8   1   11.74    1.86
  -8  -1  -2   22.25    2.26
  -8  -1   2   22.63    2.24
   8   1  -2   28.40    2.40
   1  -8  -2   20.12    1.52
  -8  -1  -2   22.24    2.69
  -8  -1   2   24.42    2.40
   1  -8   2   25.56    2.47
  -8  -1  -3  361.50   14.30
   1  -8   3  353.14   14.05
   1  -8  -3  316.61   13.12
  -8  -1   3  346.43   13.78
   8   1  -3  361.45   14.01
  -8  -1  -3  336.84   13.85
  -8  -1   3  341.94   13.76
  -8  -1  -4  151.80    7.41
   1  -8   4  165.26    7.47
   1  -8  -4  133.36    6.56
  -8  -1   4  163.97    7.64
   8   1  -4  158.93    7.26
  -8  -1  -4  157.42    7.03
  -8  -1   4  145.95    6.89
  -8  -1  -5   37.36    3.51
   1  -8   5   42.18    3.57
   1  -8  -5   39.57    2.94
   8   1  -5   43.86    3.46
  -8  -1   5   44.78    3.71
  -8  -1  -5   38.67    2.87
  -8  -1   5   35.55    2.70
  -8  -1  -6   67.90    4.85
  -8  -1   6   81.22    5.46
   1  -8  -6   78.49    4.80
   8   1  -6   84.87    5.10
  -8  -1   7    6.11    2.63
   8   1  -7    2.68    2.04
   1  -8  -7    1.97    2.11
  -8  -1   8   57.14    5.31
   1  -8   8   51.99    4.80
  -8  -1  -8   56.88    3.49
   1  -8  -8   50.08    4.62
   8   1  -8   53.00    4.94
  -8  -1   9   10.83    3.64
   1  -8   9   14.36    3.40
   8   1  -9   11.76    3.45
  -8  -1  -9   15.02    2.19
  -8  -1 -10    0.34    1.95
  -8  -1  11   20.76    2.92
  -8  -1 -11   28.47    2.84
   1  -8  11   27.62    3.74
   1  -8  11   20.63    2.51
   1  -8  12    2.72    2.24
   1  -8  12    8.20    2.70
  -8  -1 -12    5.12    1.79
   1  -8  12    5.50    1.48
   1  -8 -13    9.52    1.93
   1  -8  13    9.42    2.50
   1  -8  13   11.31    2.62
  -8  -1 -13    8.50    1.94
   1  -8  15   -1.50    1.52
  -1   8 -15   -0.36    1.07
  -8  -2   0  902.61   34.56
  -8  -2   0  903.75   34.42
  -8  -2   1    8.02    1.86
   2  -8  -1   10.58    1.35
  -8  -2  -1   11.29    2.10
  -8  -2  -1    8.43    1.71
  -8  -2   1    7.69    1.76
  -8  -2   2  386.13   15.84
  -8  -2  -2  395.05   15.89
   8   2  -2  403.71   15.88
   2  -8   2  409.11   16.07
  -8  -2  -2  396.52   16.14
   8   2  -3  160.66    7.14
  -8  -2   3  159.72    6.96
  -8  -2  -3  161.08    7.03
   2  -8   3  161.95    7.41
  -8  -2  -3  149.12    7.28
   2  -8  -3  142.05    6.34
  -8  -2  -4  134.64    5.91
   8   2  -4  139.21    6.20
  -8  -2   4  109.49    5.64
  -8  -2  -4  112.34    6.08
   2  -8   4  123.86    6.28
   2  -8  -4   99.86    5.41
   2  -8  -5    6.66    1.90
   8   2  -5   14.23    2.40
  -8  -2   5    9.25    2.58
   2  -8   5    7.92    2.37
  -8  -2  -5    5.39    1.79
  -8  -2   5    5.20    1.59
  -8  -2   5    5.57    1.78
   8   2  -6  235.48   10.08
  -8  -2   6  218.01   10.47
   2  -8  -7   45.11    3.88
   8   2  -7   40.29    4.00
  -8  -2   7   49.17    4.32
   2  -8   7   42.80    4.14
  -8  -2  -8    4.49    1.58
   2  -8  -8    5.40    2.34
   8   2  -8    4.65    2.68
  -8  -2  -8    5.34    1.62
   2  -8   8    3.97    2.52
  -8  -2   8    6.99    3.01
   8   2  -9   10.78    3.48
  -8  -2  -9   12.48    2.18
  -8  -2 -10    4.30    1.74
   2  -8  10    1.10    2.30
   2  -8 -10    1.24    1.75
   2  -8  11   27.05    2.74
  -8  -2 -11   28.92    2.81
   2  -8  11   29.51    3.71
  -8  -2 -11   26.41    2.99
   2  -8 -11   23.02    2.87
   2  -8  12   14.69    2.79
  -8  -2 -12   13.92    2.13
   2  -8  12   10.14    2.96
   2  -8  12   14.21    1.88
  -8  -2 -12   16.48    2.45
  -8  -2 -13    1.85    1.65
   2  -8  13    0.48    1.96
  -8  -2 -13   -1.38    1.45
   2  -8  13    4.02    1.93
   2  -8  14    3.46    1.60
   2  -8  14    0.49    1.84
  -8  -2 -14    2.40    1.43
  -8  -2 -15    1.81    1.26
  -2   8 -15    1.59    1.11
  -8  -3   0    1.18    1.45
  -8  -3  -1  323.81   13.11
  -8  -3   1  325.09   13.12
   8   3  -2   16.96    2.12
   3  -8  -2   17.22    1.33
  -8  -3   2   16.18    1.92
  -8  -3  -2   17.83    1.98
  -8  -3  -3 1004.55   35.94
  -8  -3   3  940.33   35.75
   8   3  -3 1028.50   36.03
  -8  -3   3 1022.07   36.32
  -8  -3   4  138.30    6.46
   3  -8   4  140.34    6.93
  -8  -3  -4  145.61    6.56
  -8  -3   4  130.08    6.24
   8   3  -4  143.50    6.64
  -8  -3   5   13.88    2.05
   3  -8   5   11.79    2.63
   3  -8  -5   13.90    2.06
  -8  -3   5   14.59    2.00
  -8  -3  -5   16.95    2.22
   3  -8  -6    2.61    1.76
   8   3  -6    2.13    2.00
  -8  -3   6    0.33    1.55
  -8  -3   6    5.19    2.40
   8   3  -7    1.02    2.09
   3  -8  -7    1.42    1.95
  -8  -3   7   -0.18    2.38
   3  -8   7    1.78    2.18
   3  -8   8   23.24    2.66
  -8  -3  -8   23.01    2.17
   8   3  -8   24.04    3.83
   3  -8  -8   20.24    3.22
  -8  -3   8   34.77    4.15
   3  -8   8   33.19    3.66
   3  -8   9    2.33    1.97
  -8  -3  -9    2.43    1.61
  -8  -3 -10   27.21    3.01
   3  -8  10   28.31    3.51
  -8  -3 -10   25.92    2.61
  -8  -3 -11   49.50    3.83
   3  -8  11   42.38    4.46
  -8  -3 -11   46.99    3.42
   3  -8  11   44.91    4.25
   3  -8  12    1.34    1.53
   3  -8  12    3.05    2.44
  -8  -3 -12    2.18    1.63
  -8  -3 -12    6.69    1.95
  -8  -3 -13    2.66    1.34
  -8  -3 -13   -0.17    1.67
   3  -8  13   -1.44    2.11
   3  -8  14    1.26    1.59
   8   3 -14   -0.51    1.68
   3  -8  14    0.58    1.94
  -3   8  14    4.08    1.82
  -8  -3 -14    5.04    1.61
  -8  -3 -15    4.07    1.26
  -3   8 -15    1.42    1.13
   4  -8   0  157.48    6.14
  -8  -4   0  145.86    6.92
   4  -8  -1   14.41    1.22
  -8  -4   1   12.79    1.97
  -8  -4  -1   11.02    1.81
   4  -8  -2  396.65   15.98
  -8  -4   2  430.28   16.90
   8   4  -2  432.02   16.67
  -8  -4  -2  429.44   16.83
  -8  -4   2  435.58   16.76
  -8  -4  -3 1423.72   49.73
  -8  -4   3 1377.32   49.73
  -8  -4   3 1364.64   49.88
   8   4  -3 1409.14   49.56
  -8  -4   3 1328.39   49.52
  -8  -4   4   51.38    3.51
  -8  -4  -4   60.21    3.86
   4  -8   4   59.12    4.25
   4  -8  -4   47.44    3.24
  -8  -4   4   58.52    4.20
   8   4  -4   62.78    3.90
  -8  -4   4   54.15    3.76
   8   4  -5   53.47    3.83
   4  -8  -5   43.22    3.19
  -8  -4  -5   48.68    3.49
  -8  -4   5   47.29    3.35
  -8  -4   5   52.05    3.59
   8   4  -6    6.12    2.36
   4  -8  -6    4.56    1.89
  -8  -4   6    2.79    1.77
  -8  -4   7   35.85    3.97
   8   4  -7   28.96    3.54
   4  -8  -7   26.61    3.14
   4  -8   7   28.47    3.55
   4  -8   8    5.68    1.76
  -8  -4  -8    4.49    1.47
   4  -8  -8    2.63    2.35
   8   4  -8    2.05    2.69
   4  -8   8    5.39    2.43
  -8  -4   8    3.90    2.77
  -8  -4  -8    6.37    1.76
  -8  -4  -9   90.09    4.96
   4  -8   9   79.86    5.25
  -8  -4  -9   78.66    4.58
  -8  -4 -10   59.37    4.20
   4  -8  10   53.53    4.49
  -8  -4 -10   56.17    3.76
   4  -8  10   69.03    4.66
   4  -8  11   11.09    2.61
  -8  -4 -11    9.39    2.22
   4  -8  11    4.21    2.26
  -8  -4 -11    7.71    1.75
   4  -8  12    2.95    1.56
   4  -8 -12    3.90    1.79
  -8  -4 -12    3.12    1.50
   4  -8  12    6.70    2.23
  -8  -4 -12    4.70    1.90
  -8  -4  13    3.89    1.67
   4  -8  13    0.48    1.20
  -8  -4 -13    0.76    1.53
  -8  -4 -14    2.54    1.53
  -8  -4  15    0.51    1.23
  -4   8 -15    0.88    1.01
  -8  -5   0    1.66    1.77
   5  -8   0    3.07    1.12
   5  -8  -1  102.37    4.52
  -8  -5  -1  110.40    5.34
  -8  -5   1  100.40    5.31
  -8  -5  -2  384.34   15.06
  -8  -5   2  374.67   14.91
   8   5  -2  370.73   14.70
  -8  -5   2  351.02   14.89
  -8  -5   2  378.43   15.09
   5  -8  -2  347.24   14.16
  -8  -5   3   61.64    3.82
  -8  -5  -3   66.63    4.04
   8   5  -3   63.37    3.78
  -8  -5   3   59.27    4.10
  -8  -5   3   59.41    4.00
   5  -8  -3   52.38    3.18
  -8  -5  -4   16.52    2.36
  -8  -5   4   15.80    2.23
   5  -8  -4   12.33    1.84
   8   5  -4   16.91    2.26
  -8  -5   4   10.60    2.27
  -8  -5   4   15.97    2.64
  -8  -5  -5    1.04    1.56
  -8  -5   5    1.99    1.50
   8   5  -5    1.13    1.84
   5  -8  -5    0.83    1.54
  -8  -5   5    3.19    2.33
  -8  -5   5   -0.38    1.86
   8   5  -6   18.97    2.74
   5  -8  -6   20.19    2.60
   5  -8   6   25.45    3.20
  -8  -5   6   21.81    2.70
   8   5  -7   35.81    3.81
   5  -8  -7   33.51    3.34
   5  -8   7   39.02    3.87
  -8  -5   7   26.67    3.11
  -8  -5  -8   98.63    5.07
   5  -8   8   91.05    5.00
   5  -8   8   84.49    4.94
  -8  -5  -8   79.96    4.43
   8   5  -8   85.18    6.53
   5  -8   8   87.71    6.38
  -8  -5   8   94.42    6.73
  -8  -5  -9   44.88    3.51
   5  -8   9   41.46    3.56
  -8  -5  -9   42.32    3.05
  -8  -5  -9   50.31    3.38
   5  -8   9   47.55    3.77
  -8  -5 -10    3.40    1.87
  -8  -5 -10   -0.45    1.47
   5  -8  10   -0.89    1.84
   5  -8  10    2.14    2.11
  -8  -5 -11   12.90    2.06
   5  -8  11   13.08    2.58
   5  -8  12    1.56    2.21
  -8  -5  12    3.36    1.85
  -8  -5 -12    3.77    1.77
   5  -8  13    0.35    2.11
   5  -8  13    3.48    1.20
  -8  -5 -13    3.96    1.58
   5  -8  14    0.70    1.70
  -8  -5 -14    2.02    1.38
  -5   8 -14    4.25    1.42
  -8  -6   0 2571.52   93.59
   6  -8   0 2466.94   92.88
  -8  -6  -1 1100.39   41.16
  -8  -6   1 1091.99   41.09
   6  -8  -1 1067.91   40.39
   8   6  -1 1055.44   40.74
  -8  -6   2   18.30    2.42
   8   6  -2   19.67    2.26
   6  -8  -2   16.77    1.86
  -8  -6   2   19.67    2.31
  -8  -6  -2   19.26    2.46
  -8  -6   2   16.63    2.60
  -8  -6   3    1.26    1.95
  -8  -6   3    0.98    1.98
   8   6  -3    4.84    1.73
   6  -8  -3    0.48    1.27
  -8  -6  -3    0.61    1.82
  -8  -6   3    1.24    1.65
  -8  -6   4    3.17    1.98
  -8  -6   4    1.67    1.62
  -8  -6  -4    0.65    1.72
  -8  -6   4    3.21    2.21
   6  -8  -4    0.73    1.44
   8   6  -4    2.15    1.80
  -8  -6   5   90.10    5.40
  -8  -6   5   92.21    5.67
  -8  -6   5   92.59    5.21
  -8  -6  -5   91.17    5.26
   8   6  -5   93.41    5.18
   6  -8  -5   84.22    4.89
  -8  -6   6    4.95    2.36
   6  -8   6   -1.16    2.28
  -8  -6   6    0.86    1.65
   8   6  -6    0.13    1.74
   6  -8  -6    1.04    1.67
   8   6  -7    3.35    2.19
   6  -8  -7   -0.95    2.14
  -8  -6   7    0.89    1.80
   6  -8   7    2.40    2.21
   6  -8  -7    2.39    1.27
  -8  -6  -7    1.87    1.18
  -8  -6  -7    1.99    1.49
   6  -8   8    9.04    2.11
   6  -8   8   12.35    3.05
  -8  -6  -8    8.33    1.57
   8   6  -8    9.63    2.87
  -8  -6  -8   10.13    1.95
  -8  -6  -9   34.19    3.23
  -8  -6  -9   29.46    2.63
  -8  -6  -9   42.82    3.22
   6  -8   9   39.70    3.43
  -8  -6  10   34.12    3.23
  -8  -6 -10   30.23    2.74
  -8  -6 -10   39.36    3.46
  -8  -6 -11    3.27    1.93
  -8  -6  11    4.16    1.88
   6  -8  11    3.78    2.28
  -8  -6  12    9.71    2.12
   6  -8 -12    8.98    2.03
  -8  -6 -13   -1.88    1.63
   6  -8  13    0.59    1.23
  -8  -6  14   -2.06    1.73
  -6   8 -14   -0.16    1.30
  -8  -6 -14    0.12    1.33
  -8  -6 -15    0.78    1.00
  -8  -7   0    1.40    1.80
   8   7  -1  448.37   18.24
   7  -8  -1  461.86   18.13
  -8  -7   1  476.74   18.80
  -8  -7  -1  489.16   18.85
   7  -8  -2  149.44    6.80
   8   7  -2  156.52    6.97
  -8  -7   2  147.37    7.25
  -8  -7  -2  161.91    7.54
  -8  -7   2  165.70    7.50
  -8  -7  -3  229.80    9.84
  -8  -7   3  226.58    9.66
   8   7  -3  211.76    9.09
   7  -8  -3  199.65    8.87
  -8  -7   3  189.95    9.44
  -8  -7   3  201.93    9.59
  -8  -7   4   55.36    3.96
  -8  -7   4   43.88    3.71
   8   7  -4   45.82    3.32
   7  -8  -4   44.43    3.13
  -8  -7  -4   48.42    3.84
  -8  -7   4   45.05    3.59
  -8  -7   5    0.86    1.57
  -8  -7   5   -1.75    2.27
  -8  -7   5    0.15    1.89
   8   7  -5    2.17    1.75
   7  -8  -5    3.10    1.65
   7  -8  -6    0.19    1.21
   8   7  -6    1.98    1.73
   7  -8  -6    1.47    1.77
  -8  -7   6   -0.35    2.25
   7  -8   6    1.24    2.28
  -8  -7   6    1.08    1.92
  -8  -7   7    0.19    2.28
   7  -8   7    1.64    2.22
   8   7  -7   -1.01    1.99
   7  -8  -7    1.13    2.02
  -8  -7   7   -2.41    2.06
  -8  -7  -7   -0.30    1.35
  -8  -7  -8   20.10    2.34
  -8  -7   8   17.50    2.09
  -8  -7  -8   22.88    2.24
   7  -8   8   23.98    2.55
  -8  -7  -9   12.49    2.16
   7  -8   9   15.28    2.33
  -8  -7   9    9.70    1.82
  -8  -7  -9   13.19    2.16
  -8  -7  10    0.90    1.76
   7  -8  10    1.01    2.01
  -8  -7  10    0.71    1.48
  -8  -7 -10   -1.96    1.91
  -8  -7  11    3.35    1.91
  -8  -7  12   -0.37    1.77
  -8  -7 -12   -0.26    1.69
  -7   8  13    4.69    1.73
   7  -8  13    7.09    1.58
  -8  -7 -13    6.25    1.80
  -8  -7 -14    2.42    1.42
  -8  -7  14    3.81    1.67
  -7   8 -14    0.46    1.34
  -8  -7 -15   -0.41    0.87
  -8  -8   0  201.36    9.16
  -8  -8  -1    7.08    2.01
  -8  -8   1    4.79    1.80
   8  -8  -1    5.23    1.64
  -8  -8   2  222.11   10.16
   8  -8  -2  231.99    9.79
  -8  -8  -2  233.67   10.52
  -8  -8   2  245.29   10.44
  -8  -8   3    5.30    2.17
   8  -8  -3    4.11    1.70
  -8  -8   3    6.01    2.29
  -8  -8  -3    7.61    2.09
  -8  -8   3    6.62    2.07
  -8  -8   4  289.61   12.65
  -8  -8   4  274.76   12.44
  -8  -8   4  267.03   12.21
   8  -8  -4  250.78   11.66
  -8  -8   5    5.76    2.43
  -8  -8   5    8.39    2.38
   8  -8  -5    4.14    2.01
  -8  -8   5    4.84    1.85
  -8  -8   6    1.61    2.32
   8  -8   6    3.22    2.57
   8  -8  -6    1.16    1.95
   8  -8  -6    2.60    1.38
  -8  -8   6   -0.17    2.05
  -8  -8   7    2.78    2.22
  -8  -8   7    2.59    2.66
   8  -8   7    6.03    2.63
  -8  -8  -8    8.44    1.85
  -8  -8   8    9.47    1.78
  -8  -8  -9    7.97    1.96
  -8  -8   9    6.74    1.68
  -8  -8  10    8.88    1.72
  -8  -8  11    0.58    1.74
  -8  -8 -11   -1.24    1.71
  -8  -8  12    9.46    1.99
  -8  -8 -12    9.56    1.98
  -8  -8  13   10.88    2.18
   8  -8  13    1.67    1.43
  -8  -8  14    6.15    1.62
  -8  -8 -14    1.72    1.33
  -8  -9   0    1.77    1.80
   9  -8  -1  299.27   12.10
  -8  -9  -1  289.11   12.59
  -8  -9   1  280.93   12.55
  -8  -9   2   63.81    4.35
  -8  -9   2   53.01    3.72
  -8  -9   2   60.55    3.98
  -8  -9  -2   52.97    3.94
   9  -8  -2   61.76    3.63
  -8  -9   3   41.18    3.57
  -8  -9  -3   53.28    3.99
  -8  -9   3   48.35    3.79
   9  -8  -3   49.91    3.39
  -8  -9   4   76.45    5.28
  -8  -9   4   74.07    5.06
   9  -8  -4   76.29    4.63
  -8  -9  -4   82.05    5.08
  -8  -9   4   76.47    4.94
  -8  -9   5  271.94   12.71
  -8  -9   5  299.13   12.99
   9  -8  -5  261.23   12.08
  -8  -9   5  269.67   12.41
   9  -8   6   88.67    6.30
  -8  -9   6   83.53    6.04
   9  -8  -6   84.59    4.38
  -8  -9   6   77.39    5.75
  -8  -9  -7    5.51    1.60
  -8  -9   7    7.01    1.65
  -8  -9   7    9.61    2.66
  -8  -9  -8    0.31    1.48
  -8  -9   8    0.46    1.61
  -8  -9   8    2.03    1.72
  -8  -9  -9    3.21    1.68
  -8  -9   9    1.77    1.63
  -8  -9   9    3.40    1.88
  -8  -9  10    7.14    1.71
  -8  -9  10    2.50    1.86
  -8  -9  11    2.87    1.99
  -8  -9  11    4.08    1.54
  -9   8 -12   13.50    2.04
  -8  -9  12    9.89    2.26
  -9   8 -13    1.40    1.33
  -8  -9  13   -0.17    1.57
  -8  -9 -13   -0.37    1.32
   9  -8  13   -0.51    1.18
  -8  -9 -14    0.13    0.99
  -7  -9   0  492.38   19.81
  -7  -9   1  420.91   16.92
  -7  -9   1  373.47   16.17
   9  -7  -1  424.34   16.42
  -7  -9  -1  401.35   16.71
  -7  -9   1  424.48   16.73
  -7  -9   2    2.60    1.78
  -7  -9   2    7.24    2.20
  -7  -9  -2    3.16    2.01
  -7  -9   2    5.41    2.02
   9  -7  -2    6.91    1.86
  -7  -9  -3   12.75    2.36
  -7  -9   3   17.47    2.42
   9  -7  -3   15.58    2.21
  -7  -9   3   12.82    2.31
  -7  -9   4  464.01   19.81
  -7  -9   4  446.63   19.58
  -7  -9   4  489.22   19.68
  -7  -9  -4  485.71   19.65
   9  -7  -4  493.39   19.35
  -7  -9   5  302.59   13.64
  -7  -9   5  301.99   13.57
   9  -7  -5  303.55   13.17
  -7  -9   5  296.24   13.17
   9  -7  -6   -0.14    2.01
  -7  -9   6    2.08    1.92
  -7  -9   6    1.92    2.23
  -7  -9   7   80.22    6.16
  -7  -9   7   93.99    5.10
  -7  -9   7   97.70    6.77
   9  -7   7   99.40    6.82
   9  -7  -7   91.38    6.25
  -7  -9  -8   13.67    1.99
  -7  -9   8   11.30    2.23
  -7  -9   8   13.86    2.02
  -9   7  -8   11.75    2.06
  -7  -9   9    5.05    1.90
  -7  -9   9    4.22    1.64
  -9   7  -9    2.99    1.71
  -7  -9  10    3.56    1.83
  -9   7 -10    1.84    1.65
  -7  -9  10    2.64    1.47
  -9   7 -11   12.52    2.18
  -7  -9  11   11.47    1.94
  -7  -9  11   14.89    2.60
  -9   7 -12    2.33    1.71
  -7  -9  12    7.98    2.15
  -9   7 -12    6.36    1.87
  -7  -9  12   -0.99    1.80
   7   9  13    1.76    1.77
  -7  -9 -13    1.64    1.40
  -7  -9  13    0.09    1.68
   9  -7 -13    0.84    1.36
  -9   7 -13   -2.23    1.33
  -7  -9 -14   -0.28    1.09
  -7  -9  14   -0.27    1.34
  -6  -9   0    2.63    1.91
  -6  -9   0    0.63    1.66
  -6  -9   1   20.35    2.11
  -6  -9   1   24.90    2.61
  -6  -9  -1   22.46    2.38
  -6  -9   1   18.72    2.36
   9  -6  -1   26.13    2.43
  -6  -9   2   12.49    2.40
  -6  -9   2   14.70    2.04
  -6  -9  -2   16.48    2.20
  -6  -9   2   17.25    2.26
   9  -6  -2   17.94    2.20
  -6  -9  -3  602.41   23.09
  -6  -9   3  572.72   22.95
  -6  -9   3  535.01   22.70
   9  -6  -3  591.70   22.70
  -6  -9  -4  161.58    7.69
  -6  -9   4  161.15    7.61
  -6  -9   4  149.18    7.83
  -6  -9   4  136.35    7.47
   9  -6  -4  156.92    7.46
  -6  -9   5   43.47    3.92
  -6  -9   5   44.75    3.57
   9  -6  -5   53.92    3.78
  -6  -9   5   42.84    3.80
   9  -6  -6    0.82    1.95
  -6  -9   6    3.31    2.13
  -6  -9   6   -0.33    2.15
  -6  -9   7   36.19    4.14
   9  -6   7   46.13    4.58
   9  -6  -7   41.93    4.15
  -6  -9   7   35.57    4.27
  -9   6  -8    4.94    1.70
  -6  -9   8    7.26    1.73
  -6  -9   8    5.37    1.95
  -9   6  -9   -0.83    1.61
  -6  -9   9   -1.28    1.75
  -6  -9  10   -0.08    1.49
  -9   6 -11    1.61    1.67
  -6  -9  11   -3.06    1.93
  -6  -9  11   -0.50    1.43
  -6  -9  12    6.82    2.30
  -6  -9  12    4.92    1.48
  -9   6 -12    5.82    1.82
  -9   6 -13    1.33    1.39
  -6  -9  13   -1.00    1.78
  -6  -9 -13    1.87    1.44
  -9   6 -14    1.46    1.15
  -6  -9 -14   -0.87    1.10
  -9   6 -14    1.34    1.15
  -6  -9  14    0.07    1.39
  -5  -9   0  196.35    8.52
  -5  -9   0  181.50    8.34
  -5  -9   1   89.26    4.55
  -5  -9   1  100.63    5.19
  -5  -9   1   95.82    4.98
  -5  -9  -1   97.33    5.03
  -5  -9   2  124.01    6.39
  -5  -9   2  115.81    5.90
   9  -5  -2  127.80    6.03
  -5  -9   2  128.69    6.18
  -5  -9  -2  127.06    6.20
  -5  -9   3  628.39   25.62
  -5  -9  -3  686.05   25.45
  -5  -9   3  661.36   25.35
   9  -5  -3  650.71   25.11
  -5  -9   3  588.57   25.05
  -5  -9  -4  533.34   20.86
  -5  -9   4  532.04   20.81
  -5  -9   4  465.55   20.66
   9  -5  -4  537.92   20.75
  -5  -9   5    5.18    2.26
   9  -5  -5    4.03    1.99
  -5  -9   5    3.85    1.61
  -5  -9  -5    4.73    1.75
  -5  -9   5    5.77    2.07
  -5  -9   6   18.57    2.97
   9  -5  -6   20.77    2.81
  -5  -9   6   21.28    3.12
   9  -5   7   -1.13    2.47
  -5  -9   7    3.54    2.34
  -9   5  -7   -0.47    1.48
   9  -5  -7   -0.91    2.20
  -5  -9   7    1.93    1.63
  -5  -9   7    3.63    2.29
   9  -5   8    3.62    2.79
  -9   5  -8    9.25    1.88
   9  -5  -8    5.05    2.75
  -5  -9   8   12.14    2.04
  -5  -9   8    4.24    2.45
  -9   5  -9    1.70    1.73
  -5  -9   9    1.39    1.86
  -5  -9   9    3.45    1.60
  -9   5 -10    3.09    1.78
  -5  -9  10   -2.10    1.95
  -5  -9  11   -0.44    1.85
  -5  -9  11    1.44    1.38
  -9   5 -12   -0.64    1.73
  -5  -9  12   -0.31    1.93
  -5  -9  12    5.06    2.24
  -5  -9  12    3.44    1.33
  -5  -9 -13    1.73    1.54
  -5  -9  13   -1.27    1.73
  -9   5 -13   -0.08    1.52
  -9   5 -14    0.17    1.22
  -5  -9 -14    0.50    1.18
  -9   5 -14    3.42    1.22
  -4  -9   0    0.24    1.04
  -4  -9   0   -0.09    1.56
  -4  -9   0    3.51    1.62
  -4  -9   1  138.85    6.24
  -4  -9   1  144.49    6.77
  -4  -9  -1  143.47    6.70
  -4  -9   1  136.47    6.59
  -4  -9  -1  150.52    6.69
  -4  -9   2  344.94   14.38
  -4  -9  -2  361.89   14.30
  -4  -9   2  352.61   14.18
   9  -4  -2  355.66   14.10
  -4  -9   2  314.53   13.83
  -4  -9   3  424.43   18.01
  -4  -9   3  465.57   18.19
  -4  -9  -3  481.26   18.40
  -4  -9   3  426.18   18.51
   9  -4  -3  460.07   18.17
  -4  -9  -4   43.98    3.34
  -4  -9   4   36.09    3.00
  -4  -9   4   43.28    3.40
   9  -4  -4   37.38    3.20
  -4  -9   5   34.56    3.29
  -4  -9   5   28.74    2.77
   9  -4  -5   38.20    3.30
  -4  -9   5   32.38    3.47
   9  -4  -6   -1.96    1.99
  -4  -9   6    2.74    2.32
  -4  -9   6   -0.90    2.13
  -4  -9   7   23.83    3.45
  -4  -9   7   25.97    3.44
   9  -4   7   32.78    3.73
  -9   4  -7   22.44    2.29
   9  -4  -7   21.59    3.11
  -4  -9   8    8.73    2.94
   9  -4   8    4.60    2.98
  -9   4  -8    3.77    1.72
   9  -4  -8    2.38    2.60
  -4  -9   8    6.23    2.64
  -4  -9   9   -0.70    1.53
  -9   4  -9    0.66    1.76
  -4  -9  10   -0.54    1.51
  -9   4 -10    2.75    1.80
  -9   4 -11    5.68    2.03
  -4  -9  11    1.38    1.48
  -4  -9  11    3.50    2.06
  -9   4 -12   -1.25    1.89
  -4  -9  12    1.57    1.25
  -9   4 -13    8.99    2.09
  -4  -9 -13    8.65    2.02
  -4  -9  13    6.69    2.45
  -9   4 -13    8.70    1.98
   4   9  14    3.04    1.93
   9  -4 -14    2.57    1.33
  -9   4 -14   -0.44    1.25
  -4  -9 -14   -2.71    1.24
  -9   4 -14   -0.83    1.22
  -4  -9  14   -0.34    1.53
  -3  -9   0 1484.89   55.42
  -3  -9   0 1421.33   54.80
  -3  -9   0 1566.89   55.51
  -3  -9   1  103.56    4.87
  -3  -9  -1  103.53    5.15
  -3  -9   1  107.94    5.42
  -3  -9   1  105.37    5.14
  -3  -9  -1  102.02    5.22
  -3  -9   2  524.96   21.36
   9  -3  -2  548.57   21.55
  -3  -9   2  559.80   21.89
  -3  -9  -2  568.36   21.66
  -3  -9   2  544.46   21.51
  -3  -9   3   55.57    3.68
   9  -3  -3   56.11    3.73
  -3  -9   3   51.65    4.07
  -3  -9   3   57.42    3.64
  -3  -9  -3   61.98    3.86
  -3  -9   4    2.58    1.92
   9  -3  -4   -2.62    2.02
  -3  -9  -4    0.24    1.79
  -3  -9   4   -0.11    1.59
  -3  -9   5   21.49    3.08
  -3  -9   5   18.73    2.73
   9  -3  -5   22.70    2.74
  -9   3  -5   17.22    2.32
   9  -3  -6    1.44    2.00
  -3  -9   6    3.35    2.32
  -3  -9   6   -0.52    2.22
  -9   3  -6    0.47    2.23
  -3  -9   7    3.93    2.48
   9  -3   7    5.89    2.67
   9  -3  -7    5.17    2.31
  -9   3  -7    6.61    1.56
  -3  -9   7    5.72    1.75
  -3  -9   7    7.00    2.69
  -3  -9   8   48.45    3.69
  -3  -9   8   54.48    5.15
   9  -3  -8   57.44    5.18
  -3  -9   8   64.37    5.30
   9  -3   8   55.91    5.45
  -9   3  -8   61.69    3.75
  -9   3  -9    5.29    1.92
  -3  -9   9    8.97    1.93
  -3  -9   9    3.42    1.98
  -9   3 -10   17.75    2.58
  -3  -9  10   16.97    2.17
  -3  -9  10   14.12    2.53
  -3  -9  11    3.03    1.51
  -3  -9  11    0.12    1.97
  -9   3 -11    0.21    1.77
  -9   3 -11    2.01    1.87
  -3  -9  12    9.94    2.33
  -9   3 -12   10.59    2.30
  -3  -9  12    7.37    2.68
  -9   3 -12   10.07    2.20
  -3  -9  13    0.30    1.83
  -3  -9 -13    1.18    1.41
  -9   3 -13   -1.62    1.60
  -9   3 -13    1.98    1.57
  -3  -9  13   -4.41    2.13
  -3  -9  14    0.08    1.61
  -9   3 -14    3.75    1.31
  -3  -9  14   -0.35    1.61
  -9   3 -14    3.05    1.40
  -2  -9   0   -0.08    1.51
  -2  -9   0    0.08    1.50
  -2  -9   0   -0.23    1.03
  -2  -9  -1  214.22    9.15
  -2  -9   1  234.38    9.54
  -2  -9  -1  220.24    9.34
  -2  -9   1  210.83    9.26
  -2  -9   1  214.10    8.97
  -2  -9   2    5.50    1.71
  -2  -9  -2    5.20    1.92
  -2  -9   2    5.63    1.75
   9  -2  -2    9.44    2.07
  -2  -9  -2    6.72    1.54
  -2  -9   2    6.37    2.01
   9  -2  -3  159.64    7.54
  -9   2   3  170.13    7.60
  -2  -9   3  157.39    7.41
  -2  -9   3  167.66    8.06
   9  -2  -4   81.74    4.81
  -9   2  -4   75.51    4.56
  -2  -9   4   82.64    4.69
  -2  -9   4   78.63    5.37
  -9   2  -5  134.71    7.39
  -2  -9   5  145.67    7.21
  -9   2   5  133.33    6.84
  -9   2  -5  137.05    6.85
   9  -2  -5  149.23    7.16
  -2  -9   6   78.41    5.66
  -2  -9   6   74.37    5.10
  -9   2  -6   72.94    5.27
   9  -2  -6   79.41    5.01
  -9   2  -7    5.91    1.52
  -2  -9   7    5.68    1.75
  -2  -9   7   10.36    2.81
  -2  -9   7    4.08    2.46
   9  -2   7    9.49    2.82
   9  -2  -7    7.51    2.49
   9  -2  -8   11.70    2.88
  -9   2  -8    9.33    1.82
  -2  -9   8    9.42    2.76
  -2  -9   8   12.79    2.17
  -2  -9   9   59.72    4.63
  -9   2  -9   72.70    4.53
  -2  -9  10    6.97    1.96
  -9   2 -10   12.78    2.21
  -9   2 -10    8.39    2.28
  -2  -9  10    8.29    2.30
  -9   2 -11    5.18    2.05
  -2  -9  11    7.47    2.52
  -2  -9  11    3.37    1.65
  -9   2 -11    4.21    1.97
  -2  -9  12    1.62    1.49
  -2  -9  12    6.17    2.26
  -9   2 -12    8.23    2.05
  -2  -9  12    5.96    2.50
  -2  -9  13    6.77    2.22
  -9   2 -13    6.71    1.88
  -2  -9  13    5.63    2.33
  -9   2 -13    9.27    1.93
  -2  -9  14   -0.09    1.57
  -9   2 -14   -0.07    1.39
  -2  -9  14   -0.63    1.65
  -9   2 -14    1.68    1.31
  -9   2 -15    2.11    1.23
  -2  -9  15   -0.80    1.34
  -1  -9   0  397.56   14.99
  -1  -9   0  360.34   14.43
  -1  -9  -1  134.78    5.99
  -1  -9   1  135.02    6.32
  -9   1   1  131.17    6.50
  -1  -9   1  132.87    5.96
  -1  -9  -2    2.41    1.35
  -1  -9   2    2.16    1.84
  -9   1   2    4.94    1.95
  -1  -9   2    3.26    1.72
  -9   1  -3    9.74    2.03
  -9   1   3    7.87    1.98
  -1  -9   3    9.16    2.48
  -9   1   3   10.95    2.19
  -9   1  -3   11.57    2.58
  -1  -9   3   10.54    2.00
  -9   1  -4  122.23    6.10
  -9   1   4  128.35    6.11
  -9   1  -4  112.70    6.38
  -1  -9   4  118.01    6.12
  -9   1   5   13.29    2.16
  -9   1  -5   21.32    2.29
  -1  -9   5   19.18    2.60
  -9   1  -5   21.47    3.01
  -9   1  -6  136.97    7.59
  -1  -9   6  145.88    7.64
  -9   1  -7   30.09    2.52
  -9   1  -7   31.84    2.38
  -1  -9   7   25.13    3.75
  -1  -9   7   29.82    3.69
   9  -1   7   33.48    4.01
  -1  -9   8   19.03    3.54
  -9   1  -8   22.65    2.32
  -9   1  -9   23.81    2.61
  -1  -9   9   26.18    2.73
  -9   1  -9   29.95    2.90
  -1  -9  10    3.35    1.70
  -9   1 -10    4.98    1.93
  -9   1 -10    9.19    2.13
  -1  -9  11    8.90    1.88
  -9   1 -11    5.67    2.11
  -1  -9  11    9.99    2.80
  -9   1 -11    3.51    2.08
  -1  -9  12   11.64    1.81
  -9   1 -12   14.63    2.31
  -1  -9  12    9.65    2.82
  -9   1 -12   17.41    2.38
  -9   1 -13    2.02    1.56
  -1  -9  13    2.19    2.04
  -9   1 -14    4.18    1.52
  -9   1 -14    7.74    1.66
  -9   1 -15    1.69    1.18
  -9   0   0    0.19    1.75
  -9   0   0    0.74    2.03
   0  -9   0    1.72    1.44
   0  -9   0    1.33    1.33
  -9   0  -1   52.15    3.35
  -9   0   1   55.23    3.50
   0  -9   1   52.01    3.40
   0  -9  -1   49.03    2.90
  -9   0  -1   50.36    3.61
  -9   0   1   56.28    3.76
   0  -9  -1   45.48    2.47
   0  -9   1   51.18    3.08
   9   0  -2  163.21    7.52
  -9   0  -2  171.89    7.60
  -9   0   2  174.26    7.61
   0  -9  -2  149.75    6.86
  -9   0   2  175.27    7.70
   0  -9   2  165.06    7.41
   9   0  -3  200.16    8.93
  -9   0  -3  194.84    8.80
  -9   0   3  193.70    8.79
  -9   0   3  197.59    8.89
  -9   0  -3  205.57    9.29
   0  -9   3  201.45    8.93
  -9   0   4    2.28    1.58
  -9   0  -4    2.09    1.54
   0  -9   4    1.04    1.94
  -9   0  -4    0.26    2.13
   9   0  -4    0.77    1.88
   9   0  -5  380.62   14.60
  -9   0  -5  332.42   14.07
  -9   0   5  306.60   13.91
  -9   0  -5  346.51   14.75
   0  -9   5  348.15   14.59
   9   0  -6   92.28    5.44
   0  -9   6   87.92    5.45
   9   0  -7   16.89    2.91
   0  -9   7   15.20    2.13
   0  -9   7   19.15    3.06
  -9   0  -7   12.87    1.90
  -9   0  -8    1.48    1.55
   9   0  -8    1.02    2.56
   0  -9   8    0.78    1.61
  -9   0  -8   -0.97    1.49
   0  -9   9  110.95    6.25
  -9   0  -9  101.03    6.02
  -9   0  -9  117.07    6.13
   0  -9  10    1.15    1.99
   0  -9  10    1.75    1.64
  -9   0 -10    1.51    1.95
  -9   0 -10    0.18    1.90
   0  -9  10    4.35    2.34
  -9   0 -11   25.99    2.94
  -9   0 -11   19.81    2.70
   0  -9  11   17.89    2.41
   0  -9  12    6.01    1.64
  -9   0 -12    9.13    2.15
   0  -9  12    8.09    2.28
   0  -9  12    6.44    2.71
  -9   0 -12    6.76    1.94
   0  -9  13    2.41    2.32
  -9   0 -13    5.04    1.75
   0  -9  13    5.03    1.32
  -9   0 -14    2.03    1.48
   0  -9  14    1.76    1.71
  -9   0 -14    2.68    1.38
   0  -9  14    1.08    1.76
  -9   0 -15   -0.50    1.12
   1  -9   0  318.53   12.77
  -9  -1   0  308.35   13.29
   1  -9   0  337.04   12.96
  -9  -1   0  309.85   13.13
   1  -9  -1  320.69   12.84
  -9  -1  -1  331.74   13.71
  -9  -1   1  326.65   13.56
   1  -9   1  335.12   13.23
   1  -9  -1  321.61   12.92
  -9  -1  -1  329.09   13.41
  -9  -1   1  326.49   13.44
   1  -9   2  127.83    6.29
  -9  -1   2  137.45    6.44
  -9  -1   2  132.31    6.27
   9   1  -2  126.91    6.31
  -9  -1  -2  137.46    6.37
  -9  -1  -3   90.70    5.20
   1  -9   3   92.61    4.97
  -9  -1   3   85.95    4.82
  -9  -1   3   82.39    4.68
   9   1  -3   92.19    4.94
  -9  -1  -3   87.90    4.70
   1  -9   4  247.23   10.61
  -9  -1  -4  227.76   10.57
   9   1  -4  259.19   10.52
  -9  -1  -4  225.05   10.16
  -9  -1   4  224.04   10.10
  -9  -1  -5  259.90   12.35
   1  -9   5  316.40   12.68
  -9  -1  -5  280.32   11.82
  -9  -1   5  249.15   11.63
   9   1  -5  313.36   12.49
   9   1  -6   27.84    3.20
  -9  -1  -6   21.18    2.99
  -9  -1   6   26.63    3.46
   1  -9   6   26.79    3.35
   1  -9   7   13.97    2.05
   9   1  -7   15.18    2.81
   1  -9   7   11.53    2.16
  -9  -1  -7   13.14    1.77
  -9  -1   7   12.85    3.18
  -9  -1   8   97.57    6.76
   1  -9   8   76.63    5.11
  -9  -1  -8   83.30    4.55
   9   1  -8   87.51    6.27
   1  -9   8   77.00    4.83
   1  -9   9    4.06    2.03
   1  -9   9    6.01    2.36
   1  -9  10   55.61    4.26
   1  -9  10   50.11    4.66
  -9  -1 -10   55.41    3.97
   1  -9  10   62.25    4.00
  -9  -1 -11   11.15    2.23
   1  -9  11    9.85    2.95
   1  -9  11   10.08    2.07
   1  -9  12    4.01    2.15
   1  -9  12    2.68    2.24
  -9  -1 -12    3.26    1.67
   1  -9  12   -1.33    1.38
   1  -9  13   -0.82    2.08
  -9  -1 -13    4.04    1.63
   1  -9  14    1.73    1.74
  -9  -1 -14   -0.27    1.23
  -9  -2   0    1.14    2.02
  -9  -2   0   -0.19    1.64
  -9  -2  -1  367.11   15.46
  -9  -2   1  367.59   15.32
   2  -9  -1  386.08   14.77
  -9  -2   1  378.41   15.23
  -9  -2  -1  371.10   15.20
   2  -9   2   22.26    2.69
  -9  -2  -2   19.94    2.25
  -9  -2   2   23.13    2.26
   9   2  -2   25.87    2.49
  -9  -2  -3  111.01    5.81
   2  -9   3  110.91    5.76
   9   2  -3  108.42    5.46
  -9  -2  -3   99.66    5.21
  -9  -2   3   96.04    5.19
   2  -9   4  483.07   18.86
  -9  -2  -4  454.04   18.77
   9   2  -4  501.78   18.78
  -9  -2  -4  441.15   18.36
  -9  -2   4  430.89   18.20
   9   2  -5   23.95    2.90
  -9  -2   5   16.88    2.17
  -9  -2  -5   23.62    2.48
  -9  -2   5   20.46    3.11
   2  -9   5   22.44    2.97
  -9  -2   6    2.64    2.52
   2  -9   6    3.74    2.31
   9   2  -6    5.01    2.13
   9   2  -7   29.93    3.66
  -9  -2  -7   29.30    2.48
   2  -9   7   31.79    2.74
   2  -9   7   36.43    3.04
  -9  -2  -7   30.90    2.33
  -9  -2   7   30.98    3.90
  -9  -2  -8    2.83    1.51
   2  -9   8    3.64    1.75
   2  -9   8    1.46    2.44
  -9  -2   8    1.53    2.61
  -9  -2  -8   -1.26    1.61
   9   2  -8   -2.09    2.36
   2  -9   8    1.38    1.76
  -9  -2  -9    6.82    1.92
   2  -9   9    5.50    2.11
   2  -9   9    5.99    2.30
  -9  -2  -9   10.26    1.90
   2  -9   9    7.22    1.70
  -9  -2 -10   11.84    2.40
   2  -9  10   16.09    2.63
  -9  -2 -10   16.54    2.33
   2  -9  10   11.89    2.78
  -9  -2 -11    0.09    1.62
   2  -9  11    3.27    2.44
  -9  -2 -11    1.63    1.83
   2  -9  11    2.68    1.63
  -9  -2 -12    3.98    1.83
   2  -9  12    1.07    1.34
   2  -9  12    0.87    2.10
  -9  -2 -12    2.17    1.60
   2  -9  12   -0.40    2.04
  -9  -2 -13    2.89    1.60
   2  -9  13   -1.15    1.20
   2  -9  13    3.62    2.07
  -9  -2 -13    6.06    1.52
   2  -9  14    1.28    1.79
  -9  -2 -14    1.64    1.45
  -9  -2 -15    1.31    1.18
  -9  -3   0 1032.37   39.35
  -9  -3  -1  134.20    6.50
  -9  -3   1  136.18    6.52
   3  -9  -1  148.22    6.17
   9   3  -2 1075.85   40.15
  -9  -3  -2 1049.42   40.15
  -9  -3   2 1034.56   40.06
   9   3  -3  357.17   14.64
  -9  -3   3  347.38   14.49
  -9  -3  -3  347.94   14.59
   3  -9   3  373.88   15.03
  -9  -3  -4  291.59   12.14
  -9  -3   4  255.53   11.80
   9   3  -4  287.05   12.15
  -9  -3   4  296.84   12.59
   3  -9   4  282.64   12.40
   9   3  -5    6.21    2.23
  -9  -3  -5    8.65    2.00
  -9  -3   5    7.70    1.80
   3  -9   5   12.76    2.57
   9   3  -6   -1.51    2.01
  -9  -3   6    3.60    2.40
   3  -9   6    5.07    2.24
   9   3  -7    6.05    2.49
  -9  -3   7    3.78    2.61
   3  -9  -7    4.45    1.35
   3  -9   7    6.66    1.87
  -9  -3  -7    4.21    1.52
  -9  -3  -7    6.73    1.51
   3  -9   7    5.71    1.81
  -9  -3  -8    4.03    1.50
   3  -9   8    1.39    1.74
   3  -9   8    1.28    2.51
   9   3  -8    3.72    2.54
  -9  -3  -8    5.85    1.70
   3  -9   8    4.82    1.86
  -9  -3  -9    1.90    1.75
  -9  -3  -9    2.03    1.51
   3  -9   9   -0.12    1.86
   3  -9   9    1.25    1.50
   3  -9   9    3.38    1.94
  -9  -3 -10    2.73    1.83
  -9  -3 -10    0.93    1.66
   3  -9  10   -1.80    2.13
   3  -9  11    4.81    2.29
   3  -9  11    4.40    2.31
  -9  -3 -11    2.74    1.67
  -9  -3 -11    3.15    1.90
   3  -9  12    1.34    1.39
   3  -9  12    1.77    2.09
   3  -9  12    1.87    1.96
  -9  -3 -12   -1.53    1.53
  -9  -3 -12    2.39    1.67
   3  -9  13    1.41    1.15
  -9  -3 -13    0.25    1.54
  -9  -3 -13   -1.04    1.35
   3  -9  14    2.93    1.56
  -9  -3 -14    3.73    1.61
  -9  -4   0    1.42    1.72
  -9  -4   1  104.80    5.42
  -9  -4  -1  114.18    5.52
  -9  -4  -2  464.51   18.48
  -9  -4   2  447.14   18.36
   9   4  -2  464.23   18.28
  -9  -4   3   49.68    3.31
   9   4  -3   48.84    3.39
  -9  -4  -3   44.16    3.37
  -9  -4   3   48.43    3.78
  -9  -4   4   18.09    2.90
   4  -9   4   14.58    2.77
  -9  -4  -4   13.11    2.26
  -9  -4   4   12.50    2.10
   9   4  -4   17.52    2.42
  -9  -4  -5    5.58    1.81
  -9  -4   5    7.17    1.90
   9   4  -5    9.70    2.30
  -9  -4   5    4.62    2.55
   4  -9   5    5.48    2.48
  -9  -4   5    7.28    2.04
   9   4  -6   16.41    2.70
  -9  -4   6   14.04    2.36
  -9  -4  -7    0.31    1.31
   4  -9  -7    0.63    1.19
  -9  -4   7    0.40    2.52
   4  -9   7   -3.29    1.66
  -9  -4  -7   -0.40    1.29
   9   4  -7    0.47    2.09
  -9  -4   8    2.85    2.59
   4  -9   8    2.06    2.27
  -9  -4  -8   -0.88    1.52
  -9  -4  -8    3.02    1.45
   4  -9   8    0.72    1.66
   9   4  -8    1.42    2.46
   4  -9   9    2.10    1.87
  -9  -4  -9    0.40    1.63
  -9  -4  -9    2.71    1.78
  -9  -4 -10    3.52    1.71
  -9  -4 -10    3.66    1.98
   4  -9  10    7.04    2.19
  -9  -4 -10    5.22    1.74
   4  -9  11    0.90    2.05
  -9  -4 -11    0.95    1.55
  -9  -4 -11    0.81    1.85
  -9  -4 -12    1.01    1.46
   4  -9  12    1.21    1.42
   4  -9  12    0.11    1.85
   4  -9  13    1.35    1.16
  -9  -4 -13    3.01    1.59
   9   4 -14   -0.57    1.44
  -9  -4 -14   -1.35    1.42
  -4   9  14    0.78    1.58
  -9  -5   0   35.83    2.90
  -9  -5   1  145.80    6.99
  -9  -5  -1  150.98    6.99
   9   5  -2    2.71    1.73
  -9  -5  -2    4.09    1.85
  -9  -5   2    3.99    1.76
  -9  -5   3   46.02    3.79
   9   5  -3   51.79    3.37
  -9  -5  -3   45.11    3.42
   9   5  -4  209.83    9.19
  -9  -5   4  181.94    9.01
  -9  -5  -4  200.98    9.35
  -9  -5   4  199.93    9.31
  -9  -5   4  201.40    9.64
  -9  -5  -5    8.49    2.02
  -9  -5   5    5.55    1.79
  -9  -5   5    8.64    2.11
  -9  -5   5    8.21    2.66
   5  -9   5   12.57    2.78
   9   5  -5    5.02    2.18
  -9  -5   6   10.04    2.19
   9   5  -6    9.51    2.38
  -9  -5   6    8.62    2.90
  -9  -5  -7   26.34    2.39
   5  -9   7   22.25    2.52
   9   5  -7   23.20    3.39
  -9  -5  -7   22.46    2.06
   5  -9   7   21.43    3.40
  -9  -5  -8   39.81    3.13
   5  -9   8   40.06    3.27
  -9  -5  -8   41.44    2.87
  -9  -5  -9    5.58    1.83
   5  -9   9    3.21    2.12
  -9  -5  -9    6.85    1.77
  -9  -5  -9    4.81    1.98
  -9  -5 -10    4.53    1.64
  -9  -5 -10    1.43    1.89
  -9  -5 -10   -0.47    1.52
   5  -9  10    3.61    2.00
   5  -9  10    2.03    1.52
  -9  -5 -11    9.94    2.26
  -9  -5 -11    8.17    1.93
   5  -9  12    1.00    1.99
   5  -9  12    1.68    1.38
  -9  -5 -12    2.96    1.75
   5  -9  13    1.51    2.07
  -9  -5 -13    1.10    1.50
   5  -9  13    2.70    1.18
  -5   9 -14    3.46    1.35
  -9  -5 -14    0.48    1.28
  -9  -5 -15    1.20    0.97
  -9  -6   0   -0.55    1.68
  -9  -6  -1  253.52   11.08
  -9  -6   1  267.65   11.11
   9   6  -1  247.22   10.75
  -9  -6  -2  914.26   35.01
  -9  -6   2  903.30   34.91
   9   6  -2  893.41   34.61
  -9  -6   3   21.17    2.91
   9   6  -3   27.61    2.64
  -9  -6   3   23.44    2.91
  -9  -6  -3   26.76    2.89
  -9  -6   3   23.44    2.57
   9   6  -4   79.09    4.69
  -9  -6   4   68.26    5.01
  -9  -6   4   76.63    4.97
  -9  -6  -4   89.37    5.16
  -9  -6   4   82.27    4.86
  -9  -6   5   30.98    3.55
   6  -9   5   23.03    3.34
  -9  -6   5   31.73    2.97
  -9  -6   5   28.94    3.19
   9   6  -5   30.58    3.00
   6  -9  -6   11.60    1.64
  -9  -6   6   16.60    2.54
  -9  -6   6   13.16    3.04
   9   6  -6   15.23    2.57
   9   6  -7    4.02    2.30
  -9  -6   7    5.64    2.76
   6  -9   7    6.62    2.62
  -9  -6  -7    3.93    1.42
  -9  -6   7    4.74    1.92
   6  -9  -7    6.24    1.43
   6  -9   7    5.62    1.64
  -9  -6  -8   15.94    2.04
   9   6  -8   13.47    3.48
  -9  -6  -8   19.22    2.26
   6  -9   8   16.63    2.54
  -9  -6  -8   18.41    2.39
  -9  -6   8   21.16    2.09
  -9  -6  -9   20.82    2.29
  -9  -6  -9   13.83    2.07
   6  -9   9   17.58    2.65
  -9  -6  -9   17.41    2.52
  -9  -6 -10    4.64    1.80
   6  -9  11    1.60    2.16
  -9  -6 -11    2.76    1.91
   6  -9  12    3.45    2.15
  -9  -6 -12    2.85    1.76
   6  -9  13    0.72    1.16
  -9  -6 -13    1.63    1.47
  -6   9 -14    2.52    1.54
  -9  -6  14    3.16    1.77
  -9  -6 -15    1.81    1.00
  -9  -7   0   22.49    2.56
  -9  -7  -1    2.07    1.70
  -9  -7   1    0.47    1.60
   9   7  -1   -0.09    1.53
  -9  -7  -2  557.50   21.86
  -9  -7   2  536.77   21.72
   9   7  -2  533.70   21.29
  -9  -7   3    4.04    2.29
  -9  -7  -3    3.16    1.93
  -9  -7   3    0.13    1.68
   9   7  -3    0.61    1.65
  -9  -7   3    3.18    2.28
  -9  -7   4  141.60    7.59
  -9  -7   4  151.92    7.73
   9   7  -4  136.98    7.01
  -9  -7  -4  152.69    7.67
  -9  -7   4  142.12    7.31
  -9  -7   5   84.14    5.40
  -9  -7   5   77.54    5.53
   7  -9   5   89.53    5.84
   9   7  -5   76.66    4.86
  -9  -7   5   78.61    4.97
  -9  -7   6    9.97    2.56
   9   7  -6    8.56    2.39
   7  -9  -6    9.28    1.59
   7  -9  -7    5.09    1.57
  -9  -7  -7    6.74    1.63
  -9  -7   7    7.43    2.33
  -9  -7   7    9.04    2.99
   7  -9   7    8.09    2.79
  -9  -7  -8    0.08    1.54
   7  -9   8   -1.00    1.83
  -9  -7  -8    2.51    1.61
  -9  -7   8    0.43    1.42
  -9  -7   9   22.99    2.28
   7  -9   9   25.78    2.86
  -9  -7  -9   23.15    2.63
  -9  -7  -9   29.04    2.87
  -9  -7 -10   12.78    2.05
  -9  -7 -10   13.54    2.31
   7  -9  10    9.26    2.36
  -9  -7 -11    4.63    2.08
   7  -9  11    5.62    2.40
  -9  -7 -12    0.50    1.63
   7  -9  13    0.05    1.20
  -7   9  13    2.43    1.43
   9   7 -13    0.06    1.40
  -9  -7  13    1.50    1.81
  -7   9 -13   -0.19    1.55
  -9  -7 -14    5.48    1.44
  -9  -7  14    3.97    1.62
  -9  -8   0    0.38    1.68
  -9  -8  -1  215.14    9.94
  -9  -8   1  220.68    9.86
  -9  -8  -2   44.79    3.58
  -9  -8   2   40.80    3.40
  -9  -8   3  200.28    9.46
  -9  -8   3  199.50    9.65
  -9  -8   3  179.40    9.32
  -9  -8  -4   47.23    3.85
  -9  -8   4   42.25    3.45
  -9  -8   4   42.76    3.90
  -9  -8   5  295.61   13.22
  -9  -8   5  324.12   14.00
   8  -9  -5  283.92   11.97
  -9  -8   5  323.09   13.79
  -9  -8   6   12.65    2.97
   8  -9  -6   12.19    1.72
  -9  -8   6   12.11    2.70
  -9  -8  -7   21.90    2.36
  -9  -8   7   29.42    2.37
  -9  -8   7   19.71    3.38
  -9  -8   8   33.23    2.68
  -9  -8  -8   27.67    2.59
  -9  -8  -8   29.45    2.76
  -9  -8  -9    8.59    2.02
  -9  -8   9    5.06    1.76
  -9  -8  -9    8.49    2.02
  -9  -8 -10    1.04    1.78
  -9  -8 -10    1.77    1.83
  -9  -8  10    2.37    1.53
  -9  -8 -11   58.15    4.11
  -9  -8  12    6.10    2.26
  -9  -8  13    4.99    1.76
  -8   9 -13    1.28    1.37
   8  -9  13    1.35    1.28
  -9  -8 -13    0.19    1.44
  -9  -8 -14    2.69    1.10
  -9  -9   0  294.65   12.86
  -9  -9   1  143.80    7.25
  -9  -9  -1  143.55    7.34
  -9  -9  -2  222.82   10.61
  -9  -9   2  238.67   10.67
  -9  -9  -3   26.16    2.99
  -9  -9   3   28.50    2.91
  -9  -9   3   23.24    2.80
  -9  -9   3   29.30    3.31
  -9  -9   4  152.74    8.32
  -9  -9   4  160.20    8.62
  -9  -9  -4  167.28    8.39
  -9  -9   4  165.22    8.27
   9  -9  -5  126.80    5.87
  -9  -9   5  122.61    7.51
  -9  -9   5  130.40    7.62
  -9  -9   5  140.79    7.19
   9  -9   6   51.40    5.02
  -9  -9   6   41.60    4.35
   9  -9  -6   43.74    3.02
  -9  -9   6   44.48    4.67
  -9  -9   7    7.74    1.77
  -9  -9   7    7.00    1.70
  -9  -9  -7    4.95    1.71
  -9  -9   8    0.62    1.59
  -9  -9  -8    2.45    1.56
  -9  -9   9   10.80    1.99
  -9  -9  -9   13.29    2.25
  -9  -9  10   11.46    2.41
  -9  -9  10   12.95    2.00
  -9  -9 -10   16.54    2.26
  -9  -9  11   45.75    3.28
  -9  -9  11   51.91    3.97
   9  -9  11   41.28    3.16
  -9  -9  12   -1.31    1.75
  -9   9 -12    2.16    1.56
  -9  -9 -12   -0.50    1.51
   9  -9  13    0.63    1.19
  -9  -9 -13   -0.57    1.22
  -9   9 -13   -0.16    1.22
  -9  -9  13    1.84    1.40
  -9  -9 -14    0.42    0.93
  -9 -10   0    0.29    1.57
  -9 -10  -1  246.17   10.95
  -9 -10   1  233.30   10.86
  -9 -10  -2   50.14    3.97
  -9 -10   2   45.42    3.62
  -9 -10  -3  148.59    7.58
  -9 -10   3  143.08    7.32
  -9 -10   4  154.69    8.02
  -9 -10  -4  148.92    7.73
  -9 -10   4  149.25    7.64
  -9 -10   4  133.49    6.00
  -9 -10  -4  135.41    6.00
  -9 -10   4  137.90    7.61
  10  -9  -4  129.81    6.01
  -9 -10   5    4.82    2.52
  -9 -10   5   10.73    2.89
  -9 -10   5    6.55    2.19
  10  -9  -5   10.30    1.68
  -9 -10  -6   35.09    2.59
  -9 -10   6   38.74    2.71
  -9 -10   6   41.27    2.99
  10  -9  -6   40.74    2.75
  -9 -10  -6   36.35    2.73
  -9 -10   7  208.41    9.08
  -9 -10   7  205.40    9.22
  -9 -10  -7  227.87    9.34
  -9 -10   7  205.73    9.68
  -9 -10  -8    1.50    1.57
  -9 -10   8    2.07    1.88
  -9 -10   8    2.57    1.56
  -9 -10   8    1.88    1.61
  -9 -10   9    4.30    1.91
  -9 -10  -9    2.57    1.60
  -9 -10   9    5.26    1.69
  -9 -10  10   11.60    2.32
  -9 -10  10   12.43    1.92
  -9 -10 -10   15.67    2.05
  -9 -10 -11    0.23    1.66
  -9 -10  11    2.23    1.74
 -10   9 -11    2.69    1.74
  -9 -10  11    2.70    1.47
  -9 -10 -12    0.26    1.35
 -10   9 -12    3.46    1.44
  -9 -10  12    0.49    1.50
 -10   9 -13    0.20    1.12
  -9 -10  13   -0.43    1.20
  10  -9  13    0.69    1.15
  -9 -10 -13    0.75    1.13
  -9 -10 -14    0.35    0.78
  10  -8   0  167.24    7.41
  -8 -10   0  141.63    7.53
  10  -8  -1  119.60    5.85
  -8 -10  -1  110.16    6.18
  -8 -10   1  115.51    6.11
  -8 -10   2   74.74    4.93
  10  -8  -2   70.44    4.24
  -8 -10  -2   74.89    4.78
  -8 -10   2   68.95    4.61
  10  -8  -3    5.43    1.91
  -8 -10   3    3.86    2.03
  -8 -10  -3    4.14    2.03
  -8 -10   3    3.92    1.98
  10  -8  -4   49.15    3.68
  -8 -10   4   47.59    4.01
  -8 -10   4   47.87    4.31
  -8 -10  -4   55.31    4.14
  -8 -10   4   49.05    3.98
  10  -8  -5   65.86    4.49
  -8 -10   5   70.38    4.78
  10  -8  -5   60.54    3.51
  -8 -10   5   69.59    5.05
  -8 -10   5   68.35    5.07
  -8 -10   6   10.72    2.88
  -8 -10   6    8.62    1.88
  -8 -10   6   10.16    2.70
  -8 -10   7   57.24    3.88
  -8 -10   7   49.29    3.34
  -8 -10  -7   49.91    3.35
  -8 -10   7   52.65    3.45
  -8 -10   8  162.63    8.31
  -8 -10  -8  191.03    8.22
  -8 -10   8  190.60    8.05
  -8 -10   8  185.00    8.78
  -8 -10   9    0.24    1.53
  -8 -10   9   -1.27    1.91
  -8 -10  -9    0.82    1.60
  -8 -10  10    1.02    1.79
  -8 -10  10    2.26    1.57
  -8 -10  11   -0.33    1.42
 -10   8 -11    0.78    1.69
  -8 -10  11    1.80    1.81
  -8 -10 -11    2.59    1.60
  -8 -10  12    0.10    1.14
 -10   8 -12    1.21    1.44
  -8 -10  12    2.49    1.66
  -8 -10 -12    0.56    1.47
  10  -8  13    3.16    1.21
  -8 -10 -13    4.10    1.26
  -8 -10 -14    2.02    0.93
  -7 -10   0    0.12    1.77
  -7 -10  -1  238.15   10.77
  -7 -10   1  239.59   10.82
  10  -7  -1  254.48   10.61
  -7 -10   1  244.61   11.06
  10  -7  -2    1.47    1.74
  -7 -10   2   -0.15    1.99
  -7 -10   2    0.32    1.56
  -7 -10  -2    2.33    1.70
  -7 -10   2    2.40    1.87
  -7 -10  -3  218.75   10.09
  -7 -10   3  240.30   10.15
  -7 -10   3  192.56   10.06
  -7 -10   3  196.52    9.64
  10  -7  -3  220.63    9.66
  -7 -10   4    2.70    1.92
  -7 -10  -4   -0.78    2.03
  -7 -10   4    3.71    2.11
  10  -7  -4    1.26    1.86
  -7 -10   5   61.70    4.86
  -7 -10   5   58.81    4.23
  10  -7  -5   51.64    4.14
  -7 -10   5   54.37    4.57
  10  -7  -6   -0.15    2.05
  -7 -10   6    6.34    2.51
  -7 -10   6    4.90    1.72
  -7 -10   6    2.32    2.24
  10  -7  -7   87.30    6.29
  -7 -10   7   92.51    4.73
  -7 -10   7   86.11    5.35
 -10   7  -7   98.26    5.19
  -7 -10  -7  104.09    4.98
  -7 -10   7  108.15    5.15
  -7 -10   8   12.25    2.10
  -7 -10  -8   12.71    1.95
  -7 -10   8    6.27    2.24
 -10   7  -8   15.18    2.19
  -7 -10   8   10.83    2.40
  -7 -10   8   13.14    1.95
 -10   7  -9   11.12    2.26
  -7 -10  -9   17.43    2.35
  -7 -10   9   14.91    2.16
  -7 -10   9   10.72    2.36
  -7 -10   9   15.95    2.52
  -7 -10  10    3.32    1.65
 -10   7 -10    2.57    1.75
  -7 -10  10    7.53    1.94
  -7 -10  10    2.62    2.03
  -7 -10  11   15.05    2.02
  -7 -10  11   15.06    2.61
 -10   7 -11   17.10    2.36
 -10   7 -11   12.79    2.21
  -7 -10  12    0.88    1.22
 -10   7 -12    3.03    1.47
  -7 -10  12    0.50    1.67
 -10   7 -12    1.70    1.62
  -7 -10 -12   -0.07    1.50
  -7 -10  13    4.38    1.73
 -10   7 -13    4.58    1.49
  -7 -10 -13    2.76    1.49
  -6 -10   0   14.38    2.20
  -6 -10   0   10.83    1.95
  -6 -10   1   29.39    2.97
  -6 -10  -1   24.82    2.69
  -6 -10   1   31.97    2.76
  10  -6  -1   37.01    2.87
  -6 -10   2    5.59    2.04
  10  -6  -2    6.17    1.92
  -6 -10   2    3.39    1.69
  -6 -10  -2    5.00    2.02
  -6 -10   2    4.89    1.91
  -6 -10   3    1.06    2.03
  10  -6  -3    0.47    1.80
  -6 -10  -3    1.82    1.88
  -6 -10   3    2.44    1.95
  -6 -10   3    0.60    1.84
  -6 -10   4   80.30    5.33
  10  -6  -4   94.15    5.32
  -6 -10   4   96.72    5.47
  -6 -10  -4   94.27    5.49
  10  -6  -5    9.83    2.33
  -6 -10   5    9.88    2.55
  -6 -10   5    8.78    2.55
  -6 -10   5    8.34    2.04
 -10   6  -6   27.18    2.44
  -6 -10   6   22.05    2.48
  -6 -10   6   21.25    3.36
  -6 -10   6   34.46    3.77
  -6 -10   6   26.48    2.48
  10  -6  -6   31.32    3.40
 -10   6  -7   24.11    2.39
  -6 -10   7   24.62    3.68
  10  -6   7   23.77    3.93
  -6 -10   7   22.61    2.55
  -6 -10   7   21.53    3.45
  -6 -10   7   19.02    2.68
  10  -6  -7   19.01    3.38
 -10   6  -8   24.01    2.71
  -6 -10   8   28.73    2.49
  -6 -10  -8   28.03    2.55
  -6 -10   9    4.02    1.71
  -6 -10   9    2.06    1.97
 -10   6  -9    3.34    1.80
  -6 -10  10    9.24    1.89
 -10   6 -10    9.41    2.13
 -10   6 -10   14.90    2.36
  -6 -10  10   11.83    2.36
  -6 -10  11    1.94    1.72
 -10   6 -11    0.28    1.76
 -10   6 -11    1.50    1.78
  -6 -10  11    1.07    1.89
  -6 -10  11   -0.50    1.44
 -10   6 -12    7.45    1.99
  -6 -10 -12    9.91    2.01
  -6 -10  12   12.69    2.37
 -10   6 -12    9.03    1.98
  -6 -10  12    4.25    1.52
  -6 -10 -13    1.87    1.35
 -10   6 -13    0.20    1.31
  -6 -10  13    2.65    1.61
 -10   6 -14    0.23    1.11
  -5 -10   0    2.19    1.94
  -5 -10   0    2.72    1.78
  -5 -10  -1  636.13   24.59
  -5 -10   1  644.58   24.61
  -5 -10   1  585.10   23.96
  -5 -10   1  650.08   24.75
  -5 -10  -2   30.83    2.73
  -5 -10   2   29.50    2.75
  10  -5  -2   31.26    2.81
  -5 -10   2   27.16    3.02
  -5 -10   2   23.50    2.44
  10  -5  -3    2.43    2.05
  -5 -10   3    2.45    2.00
  -5 -10   3    1.91    2.26
  -5 -10  -3    1.57    1.94
  -5 -10   3    2.38    1.85
  -5 -10  -4    1.88    1.80
  -5 -10   4    3.50    1.89
  -5 -10   4   -1.30    2.14
  10  -5  -4   -1.00    1.96
  -5 -10   5   39.44    3.31
  -5 -10   5   36.29    3.61
  -5 -10   5   46.46    4.24
  10  -5  -5   51.94    3.77
  -5 -10   6   15.92    2.91
  -5 -10   6   15.53    2.23
  10  -5  -6   16.51    2.74
  -5 -10   6   15.83    2.94
  -5 -10   6   15.70    2.07
 -10   5  -6   18.29    1.99
  10  -5  -7   18.42    3.09
  -5 -10   7   20.60    3.42
  -5 -10   7   19.76    2.39
 -10   5  -7   19.76    2.28
  -5 -10   7   18.80    3.29
  10  -5   7   23.69    3.72
  -5 -10   8    6.31    2.14
  -5 -10   8    7.91    1.68
  -5 -10   8    6.17    1.94
 -10   5  -9   56.28    3.91
  -5 -10   9   51.78    4.03
  -5 -10   9   50.60    3.51
  -5 -10   9   48.11    4.03
 -10   5 -10    2.01    1.77
 -10   5 -10   -0.09    2.00
  -5 -10  10    1.77    1.98
  -5 -10  10   -0.44    1.80
 -10   5 -11   13.27    2.30
 -10   5 -11   16.79    2.42
  -5 -10  11   16.38    2.70
  -5 -10  11   10.90    1.99
  -5 -10  12    1.48    1.83
  -5 -10  12    4.24    1.38
 -10   5 -12    3.19    1.76
  -5 -10 -12    5.08    1.74
  -5 -10  12    5.23    2.04
  -5 -10 -13    1.17    1.47
  -5 -10  13    2.27    1.80
 -10   5 -14    0.31    1.13
 -10   5 -14    0.48    1.12
  -4 -10   0  194.09    8.41
  -4 -10   0  173.66    8.17
  -4 -10   1  178.11    8.15
  -4 -10  -1  169.74    7.92
  -4 -10   1  165.93    7.40
  -4 -10  -1  180.82    7.99
  -4 -10   1  173.04    7.85
  -4 -10   2   84.95    4.70
  10  -4  -2   82.97    4.42
  -4 -10   2   64.43    4.01
  -4 -10   2   72.53    4.25
  -4 -10  -2   71.21    4.39
  -4 -10   3  191.57    9.14
  -4 -10   3  195.63    8.82
  -4 -10  -3  190.65    8.88
  -4 -10   3  183.50    8.67
  10  -4  -3  201.20    8.86
  -4 -10   4   51.07    4.27
  -4 -10   4   48.25    3.64
  -4 -10  -4   48.84    3.75
  10  -4  -4   53.94    3.82
  -4 -10   4   48.47    3.74
  10  -4  -5    8.00    2.36
  -4 -10   5    0.57    2.07
  -4 -10   6   36.78    3.05
  10  -4  -6   35.56    3.55
 -10   4  -6   34.39    4.11
  -4 -10   6   37.13    4.05
  -4 -10   6   40.20    3.82
  -4 -10   7    0.21    1.53
  -4 -10   7    0.61    2.44
  10  -4  -7   -0.95    2.13
  -4 -10   7   -0.55    2.27
  10  -4   7   -1.63    2.64
  -4 -10   8   50.20    3.20
  -4 -10   8   59.10    3.61
  -4 -10   9    7.16    2.31
 -10   4  -9    7.47    2.18
  -4 -10   9    3.84    1.78
 -10   4 -10   27.02    2.84
  -4 -10  10   26.09    3.30
  -4 -10  10   23.02    2.49
  -4 -10  11    4.12    1.91
 -10   4 -11    0.72    1.86
  -4 -10  12   17.33    2.04
  -4 -10  12   16.76    2.69
 -10   4 -12   21.54    2.64
  -4 -10 -12   19.56    2.53
 -10   4 -13   -0.13    1.46
  -4 -10 -13    2.59    1.45
 -10   4 -13    0.70    1.49
  10  -4 -14    0.57    1.34
 -10   4 -14    2.46    1.30
 -10   4 -14   -0.10    1.18
   4  10  14   -0.83    1.84
  -4 -10  14   -0.22    1.42
  -3 -10   0    2.00    1.72
  -3 -10   0    3.89    1.62
  -3 -10  -1  411.97   16.28
  -3 -10   1  424.96   16.59
  -3 -10   1  386.47   15.84
  -3 -10  -1  408.71   16.34
  -3 -10   1  399.18   16.28
  -3 -10   2   14.71    2.11
  -3 -10  -2   17.83    2.32
  -3 -10   2   17.13    2.18
  -3 -10   2   18.72    2.54
  10  -3  -2   16.56    2.39
  10  -3  -3   58.38    3.86
  -3 -10   3   51.84    3.61
  -3 -10  -3   61.96    3.91
  -3 -10   3   56.07    4.18
 -10   3   3   57.20    3.90
  -3 -10   3   51.32    3.65
  10  -3  -4   55.95    3.92
  -3 -10   4   53.20    4.21
  -3 -10   4   49.26    3.84
 -10   3   5  278.66   13.07
  10  -3  -5  323.51   13.27
 -10   3  -5  309.77   13.85
  -3 -10   5  295.20   13.39
  10  -3  -6    5.65    2.44
  -3 -10   6    9.73    2.59
 -10   3  -6   12.20    2.96
  -3 -10   6   12.52    3.06
 -10   3  -7   18.22    2.19
  -3 -10   7   11.60    2.26
  -3 -10   7   18.17    3.26
  -3 -10   7   11.70    2.10
  10  -3  -7   13.60    2.82
  10  -3   7   19.22    3.51
  -3 -10   7   11.99    3.02
  -3 -10   8   13.59    2.03
 -10   3  -8   14.46    2.21
  -3 -10   8   11.55    2.27
  -3 -10   8   12.51    2.18
  -3 -10   8    6.57    3.02
 -10   3  -8   13.81    2.08
 -10   3  -9   92.13    5.25
  -3 -10   9   82.91    4.94
 -10   3  -9  102.02    5.30
  -3 -10   9   79.88    5.51
  -3 -10   9   85.82    5.34
  -3 -10  10    6.55    2.14
  -3 -10  10    6.93    1.82
 -10   3 -11   15.82    2.42
  -3 -10  11   15.37    2.08
 -10   3 -12    7.06    2.00
  -3 -10  12    3.61    1.47
  -3 -10 -12    2.59    1.76
 -10   3 -12    6.83    2.00
  -3 -10  12    6.33    2.26
  -3 -10  13    2.53    1.19
 -10   3 -13    5.28    1.66
  -3 -10  13    2.50    1.90
  -3 -10  13    4.79    1.85
 -10   3 -13    3.49    1.65
  -3 -10  14    4.85    1.72
 -10   3 -14    2.02    1.43
 -10   3 -14    4.70    1.41
  -2 -10   0 2184.00   85.71
  -2 -10   0 2404.55   85.80
  -2 -10  -1  490.05   19.66
  -2 -10   1  483.16   19.58
  -2 -10   1  487.61   19.19
  -2 -10  -1  495.41   19.45
  -2 -10   1  514.90   19.83
 -10   2   2  189.65    8.58
  -2 -10   2  180.77    8.13
  10  -2  -2  188.57    8.45
  -2 -10  -2  174.00    7.99
  -2 -10   2  194.53    8.69
 -10   2   3   77.54    4.60
  -2 -10   3   73.84    4.43
  10  -2  -3   76.26    4.58
  -2 -10   3   75.48    5.03
 -10   2  -4  266.18   12.08
  -2 -10   4  244.46   11.46
  10  -2  -4  262.72   11.55
 -10   2  -4  261.36   11.59
 -10   2   4  272.27   11.63
  -2 -10   4  284.21   12.36
  10  -2  -5    8.09    2.29
  -2 -10   5    7.38    2.36
 -10   2   5    2.41    1.75
 -10   2  -5    4.46    2.50
  10  -2  -6  135.37    7.25
  -2 -10   6  137.13    8.09
  -2 -10   6  135.21    7.47
 -10   2  -6  119.76    7.49
 -10   2  -7   16.66    2.03
  10  -2   7   19.24    3.64
  -2 -10   7   21.88    3.36
  -2 -10   7   17.42    2.25
  -2 -10   7   21.23    3.73
 -10   2  -7   18.83    2.15
  -2 -10   7   15.46    2.39
  10  -2  -7   16.71    3.12
 -10   2  -8   40.64    3.03
 -10   2  -8   27.94    2.65
  10  -2  -8   20.68    3.77
  -2 -10   8   36.62    3.11
  -2 -10   8   23.86    4.00
  -2 -10   8   29.40    2.81
  -2 -10   8   35.05    4.29
  -2 -10   9   41.80    3.15
 -10   2  -9   43.63    3.50
  -2 -10   9   44.19    3.81
  -2 -10  10   31.56    3.60
  -2 -10  10   30.35    2.87
  -2 -10  10   32.42    3.15
 -10   2 -10   33.72    3.20
  -2 -10  11   19.65    2.15
  -2 -10  11   12.99    3.00
  -2 -10 -11   11.89    2.40
  -2 -10  12   10.81    2.49
  -2 -10  12    6.62    1.70
 -10   2 -12   11.26    2.18
 -10   2 -12   13.11    2.23
  -2 -10  12    7.07    2.50
  -2 -10  13    2.53    1.81
 -10   2 -13    3.85    1.52
  -2 -10  13    0.86    1.86
 -10   2 -13   -2.66    1.65
  -2 -10  13   -0.20    1.08
 -10   2 -14    2.86    1.48
 -10   2 -14    3.79    1.43
  -1 -10   0    0.32    1.11
 -10   1   0    0.12    2.15
  -1 -10   0    0.18    1.56
 -10   1  -1  848.32   31.66
 -10   1   1  836.70   31.48
  -1 -10   1  791.23   30.71
  -1 -10  -1  774.44   30.78
  -1 -10   1  810.84   31.26
 -10   1   2   54.32    3.99
  -1 -10   2   54.37    3.43
  -1 -10  -2   46.08    3.08
  -1 -10   2   60.12    4.00
 -10   1  -2   59.31    3.85
 -10   1   2   63.25    3.84
 -10   1   3  203.35    9.09
 -10   1  -3  193.54    9.61
  -1 -10   3  187.35    8.83
  -1 -10   3  194.13    9.60
 -10   1  -3  197.64    9.08
 -10   1   3  215.68    9.21
 -10   1  -4  146.87    7.86
  -1 -10   4  148.18    7.33
  -1 -10   4  149.30    7.98
 -10   1  -4  151.63    7.31
 -10   1   4  149.02    7.31
  -1 -10   5  190.26    9.02
 -10   1  -5  191.88    9.43
  -1 -10   5  201.86    9.77
 -10   1   5  164.25    8.51
  -1 -10   6   -0.64    2.19
 -10   1  -6   -0.33    2.25
  -1 -10   7   46.82    4.80
 -10   1  -7   43.74    3.05
  -1 -10   7   46.53    4.49
 -10   1  -7   42.99    3.09
  -1 -10   8   14.77    3.38
 -10   1  -8   23.20    2.34
  -1 -10   8   23.74    3.65
  -1 -10   8   19.89    2.78
 -10   1  -9    4.82    1.90
  -1 -10   9    4.40    1.87
  -1 -10   9    7.21    2.33
  -1 -10   9    6.10    1.67
  -1 -10  10    2.20    1.72
 -10   1 -10    2.59    1.89
  -1 -10  10    1.09    2.16
  -1 -10  11   46.54    4.18
 -10   1 -11   45.98    3.61
  -1 -10  12   -2.10    2.17
 -10   1 -12   -1.10    1.68
 -10   1 -12   -0.29    1.64
  -1 -10  13    7.33    2.08
 -10   1 -13    4.84    1.65
 -10   1 -13    2.60    1.61
 -10   1 -14    0.82    1.27
 -10   1 -14    4.67    1.42
   0 -10   0  331.34   13.20
 -10   0   0  328.83   13.58
   0 -10   0  308.26   12.72
 -10   0   0  326.43   13.72
   0 -10   1 2436.54   90.61
   0 -10  -1 2327.86   90.11
 -10   0  -1 2488.81   90.80
 -10   0   1 2530.61   90.76
 -10   0   1 2438.21   90.78
 -10   0  -1 2462.29   91.02
   0 -10   1 2349.27   90.17
   0 -10   2  582.48   23.14
 -10   0   2  601.25   23.03
  10   0  -2  562.25   22.80
 -10   0  -2  592.20   22.95
 -10   0   2  571.74   23.00
   0 -10   2  560.00   22.65
  10   0  -3  112.64    6.01
 -10   0  -3  120.45    6.05
 -10   0   3  112.66    5.95
 -10   0   3  120.13    6.12
   0 -10   3  117.13    6.08
 -10   0  -3  121.45    6.59
  10   0  -4  345.05   13.76
 -10   0  -4  304.80   13.45
 -10   0   4  322.74   13.58
 -10   0  -4  303.15   13.96
   0 -10   4  331.16   13.82
 -10   0   5   31.16    2.77
  10   0  -5   40.96    3.49
   0 -10   5   32.02    3.33
 -10   0  -5   29.88    3.55
   0 -10   6    3.97    2.34
  10   0  -6   -0.15    2.11
 -10   0  -6    4.47    2.47
   0 -10   7   48.02    3.74
   0 -10   7   45.53    3.50
 -10   0  -7   46.70    3.13
   0 -10   7   51.70    4.67
  10   0  -7   43.57    4.51
   0 -10  -7   46.90    2.87
 -10   0  -8   24.47    2.44
   0 -10   8   18.44    2.50
   0 -10   8   17.49    3.69
   0 -10   8   24.64    2.86
  10   0  -8   19.40    3.48
   0 -10   8   21.16    3.64
   0 -10   9    1.33    1.84
 -10   0  -9    0.77    1.82
   0 -10   9    0.73    1.60
   0 -10   9   -0.63    2.01
   0 -10   9    5.28    1.87
   0 -10  10   51.28    4.10
 -10   0 -10   51.73    3.93
   0 -10  10   62.64    4.68
   0 -10  10   52.64    3.75
 -10   0 -10   51.41    3.76
   0 -10  11   -1.31    1.96
   0 -10  11    2.83    1.62
 -10   0 -11   -1.04    1.71
 -10   0 -11   -0.09    1.82
   0 -10  11    0.14    2.06
   0 -10  12    8.75    2.43
   0 -10  12   10.51    1.84
 -10   0 -12   16.35    2.44
 -10   0 -12   11.61    2.22
   0 -10  12   13.61    2.78
   0 -10  13    0.51    1.83
 -10   0 -13    0.92    1.61
 -10   0 -13    2.81    1.53
   0 -10  13   -0.15    1.12
   0 -10  14    4.62    1.80
 -10   0 -14    5.66    1.63
 -10   0 -14    5.54    1.55
 -10  -1   0    3.61    2.31
   1 -10   0    2.95    1.73
   1 -10   0    1.94    1.60
 -10  -1   0    1.63    1.79
   1 -10   1  222.89    9.50
   1 -10  -1  208.04    8.93
 -10  -1   1  214.21    9.60
 -10  -1  -1  201.82    9.77
   1 -10   1  205.83    9.15
 -10  -1  -1  213.73    9.49
 -10  -1   1  230.99    9.55
 -10  -1   2   17.37    2.39
  10   1  -2   13.67    2.27
   1 -10   2   17.53    2.34
 -10  -1  -2   14.22    2.23
 -10  -1   2   17.00    2.22
 -10  -1  -3  352.04   15.07
   1 -10   3  359.54   14.72
  10   1  -3  347.94   14.64
 -10  -1   3  354.58   14.60
 -10  -1  -3  344.72   14.59
 -10  -1  -4   25.90    3.17
  10   1  -4   24.38    2.89
   1 -10   4   27.81    3.09
 -10  -1   4   22.92    2.38
 -10  -1  -4   24.24    2.60
 -10  -1  -5    8.50    2.38
  10   1  -5    7.28    2.36
 -10  -1   5    5.48    1.64
   1 -10   5    3.40    2.33
  10   1  -6    9.72    2.65
   1 -10   6   15.83    2.96
   1 -10   7  187.09    9.44
  10   1  -7  174.35    9.36
   1 -10   7  174.80    8.19
   1 -10  -7  158.84    7.27
   1 -10   7  161.45    7.86
   1 -10   8   18.34    2.32
 -10  -1  -8   13.80    2.09
  10   1  -8   17.30    3.38
   1 -10   9   31.29    3.37
 -10  -1  -9   29.43    2.85
   1 -10   9   27.72    3.07
   1 -10   9   29.00    2.53
 -10  -1 -10    0.65    1.79
   1 -10  10    0.81    2.25
   1 -10  10   -0.12    1.85
   1 -10  10    1.58    1.78
   1 -10  11   13.95    2.78
 -10  -1 -11   16.17    2.37
   1 -10  11   12.85    2.44
   1 -10  11   13.98    2.16
   1 -10  12    7.02    2.46
 -10  -1 -12    2.50    1.74
   1 -10  12    7.63    2.29
   1 -10  12    5.03    1.52
 -10  -1 -13   11.47    1.97
   1 -10  13    7.10    2.34
   1 -10  13    3.80    2.30
 -10  -2   0    8.96    2.01
   2 -10   0   10.01    1.81
 -10  -2   0    6.71    2.23
   2 -10   0   10.32    1.94
 -10  -2  -1    2.17    1.73
 -10  -2   1    2.04    1.84
   2 -10  -1    3.18    1.42
 -10  -2  -1    4.31    2.24
 -10  -2   1    2.48    2.15
   2 -10   1    2.88    1.94
   2 -10   2    2.49    2.08
 -10  -2  -2    1.29    1.80
 -10  -2   2    2.44    1.79
  10   2  -2    4.64    2.00
  10   2  -3  229.47    9.60
 -10  -2  -3  198.44    9.32
 -10  -2   3  191.98    9.18
 -10  -2  -3  217.97    9.91
   2 -10   3  227.49    9.73
  10   2  -4   42.02    3.35
 -10  -2  -4   38.02    2.99
 -10  -2   4   34.27    2.88
 -10  -2  -4   30.78    3.41
   2 -10   4   41.68    3.49
  10   2  -5    4.37    2.26
 -10  -2   5    1.93    1.51
   2 -10   5    1.21    2.25
   2 -10   6   53.72    4.58
  10   2  -6   54.24    4.40
   2 -10   7   -1.26    2.38
   2 -10   7    0.32    1.61
 -10  -2  -7    2.35    1.46
   2 -10   7    1.51    1.67
 -10  -2  -7    1.04    1.39
  10   2  -7    1.14    2.31
   2 -10  -7    1.38    1.25
 -10  -2  -8    9.76    2.09
   2 -10   8   14.90    2.33
 -10  -2  -8   16.64    2.07
   2 -10   8   14.33    2.35
  10   2  -8   16.04    3.20
 -10  -2  -9    3.98    1.94
   2 -10   9    6.84    2.11
   2 -10   9    6.72    1.79
   2 -10   9    9.38    2.31
 -10  -2  -9    5.22    1.85
 -10  -2 -10   -0.72    1.68
   2 -10  10   -0.24    1.90
   2 -10  10    2.73    1.40
   2 -10  10    2.23    2.07
 -10  -2 -10    3.82    1.81
 -10  -2 -11    0.80    1.71
   2 -10  11   -0.40    2.11
   2 -10  11    1.77    1.63
 -10  -2 -11    0.38    1.45
 -10  -2 -12    9.46    2.11
   2 -10  12   10.52    2.36
 -10  -2 -12    8.49    1.91
   2 -10  12    6.71    1.64
   2 -10  13    4.09    1.31
 -10  -2 -13    8.99    1.73
   2 -10  13    4.55    2.01
 -10  -2 -13    7.20    1.74
   2 -10  13    8.25    2.17
   2 -10  14    0.73    1.43
 -10  -2 -14    5.18    1.42
 -10  -3   0    0.51    1.60
 -10  -3   1   23.55    2.39
 -10  -3  -1   26.34    2.41
   3 -10   2    2.49    2.16
 -10  -3  -2    6.21    1.85
 -10  -3   2    3.29    1.70
  10   3  -2    2.80    1.94
  10   3  -3  252.03   10.44
 -10  -3   3  224.29   10.19
 -10  -3  -3  219.14   10.19
   3 -10   3  250.95   10.75
   3 -10   4    4.95    2.29
 -10  -3  -4    5.75    1.85
 -10  -3   4    4.21    1.71
  10   3  -4    5.12    2.13
   3 -10   5   24.42    3.20
  10   3  -5   29.35    3.14
 -10  -3   5   22.69    2.59
 -10  -3   6    2.52    2.37
   3 -10   6    0.17    2.20
  10   3  -6   -0.44    2.04
 -10  -3   7    2.12    2.54
   3 -10   7    1.13    2.51
   3 -10   7    0.83    1.51
 -10  -3  -7    4.21    1.44
   3 -10   7    2.06    1.63
 -10  -3  -7    1.97    1.48
  10   3  -7   -0.82    2.26
   3 -10  -7    1.35    1.25
 -10  -3  -8   12.80    2.05
  10   3  -8    7.73    3.10
   3 -10   8   13.71    2.34
 -10  -3  -8   17.48    2.07
   3 -10   8   12.60    2.33
 -10  -3  -9    2.56    1.75
   3 -10   9    0.12    1.91
 -10  -3  -9    0.09    1.69
   3 -10   9    4.45    1.69
   3 -10   9    3.40    1.99
 -10  -3 -10    0.92    1.74
   3 -10  10   -1.24    1.96
 -10  -3 -10   -0.71    1.62
   3 -10  10    0.32    1.46
   3 -10  10    2.41    1.96
 -10  -3 -11    1.97    1.52
   3 -10  11    3.08    1.65
 -10  -3 -11    3.00    1.72
 -10  -3 -12    2.61    1.69
   3 -10  12   -0.27    1.39
 -10  -3 -12   -0.62    1.54
 -10  -3 -13    3.33    1.62
   3 -10  13    1.91    1.98
   3 -10  13   -0.25    1.16
 -10  -3 -14    4.30    1.56
 -10  -4   0    7.82    1.95
 -10  -4  -1    0.98    1.61
 -10  -4   1    2.25    1.61
 -10  -4   2   30.80    2.71
 -10  -4  -2   32.57    2.76
  10   4  -2   28.61    2.70
 -10  -4  -3   23.12    2.60
 -10  -4   3   21.28    2.46
  10   4  -3   26.35    2.65
   4 -10   3   19.03    2.89
 -10  -4  -4    9.47    2.17
 -10  -4   4    7.95    1.98
  10   4  -4   12.33    2.42
   4 -10   4   11.67    2.65
 -10  -4   5    3.99    1.67
  10   4  -5   -1.11    2.09
 -10  -4   5   -0.91    2.45
   4 -10   5    0.49    2.22
   4 -10   6    4.78    2.43
  10   4  -6    7.86    2.34
   4 -10  -6    4.12    1.33
 -10  -4  -6    6.58    1.44
 -10  -4   7    2.78    2.72
 -10  -4  -7    4.56    1.43
   4 -10  -7    4.16    1.43
  10   4  -7    3.47    2.43
 -10  -4  -8   20.45    2.21
 -10  -4  -9    4.83    1.73
   4 -10   9    5.21    1.77
   4 -10  10    5.79    1.74
 -10  -4 -10    7.04    1.94
   4 -10  10    4.86    2.09
 -10  -4 -10    7.72    1.88
 -10  -4 -11    7.33    1.77
 -10  -4 -11    6.31    1.85
   4 -10  11    6.64    2.42
 -10  -4 -11    8.26    2.06
 -10  -4 -12    5.97    1.91
   4 -10  12    3.20    1.62
   4 -10  12    8.35    2.34
 -10  -4 -13    9.95    1.88
   4 -10  13    6.99    1.49
   4 -10  13    5.34    1.90
  10   4 -14   -2.08    1.36
 -10  -4 -14   -2.11    1.35
  -4  10  14    0.54    1.51
 -10  -4 -15    1.59    0.92
 -10  -5   0    0.91    1.50
 -10  -5  -1  273.40   11.79
 -10  -5   1  275.79   11.80
  10   5  -2   59.14    3.65
 -10  -5  -2   54.18    3.80
 -10  -5   2   50.07    3.77
  10   5  -3   38.13    3.11
 -10  -5  -3   37.65    3.15
 -10  -5   3   35.64    3.05
  10   5  -4    4.69    2.09
 -10  -5  -4    0.57    1.78
 -10  -5   4    2.18    1.72
 -10  -5   4   -0.17    2.42
   5 -10   4    2.32    2.28
  10   5  -5   26.94    2.97
 -10  -5   5   20.33    3.33
   5 -10   5   22.27    3.31
 -10  -5   5   22.48    2.59
 -10  -5  -6    8.10    1.48
  10   5  -6   12.74    2.58
   5 -10   6    8.88    2.05
 -10  -5  -6    7.81    1.65
 -10  -5   6   14.05    2.91
   5 -10   6    9.80    2.90
 -10  -5  -7   29.03    2.74
 -10  -5  -7   35.84    2.60
  10   5  -7   26.55    3.77
   5 -10   7   37.37    3.07
   5 -10   8    8.66    2.11
 -10  -5  -8    8.23    2.00
 -10  -5  -8   10.50    1.80
 -10  -5  -8    9.80    1.85
   5 -10   9    3.85    1.87
 -10  -5  -9    1.03    1.54
 -10  -5  -9    5.27    1.95
 -10  -5  -9    3.23    1.70
 -10  -5 -10    6.87    1.90
 -10  -5 -10    8.59    2.02
 -10  -5 -10    8.80    2.17
   5 -10  10   14.15    2.52
   5 -10  10    7.32    1.86
   5 -10  10    9.75    2.07
 -10  -5 -11    2.09    1.78
 -10  -5 -11    1.42    1.61
   5 -10  12    1.38    1.83
   5 -10  12    4.52    1.61
 -10  -5 -12    5.36    1.89
   5 -10  13    1.49    1.19
 -10  -5 -13    2.36    1.49
 -10  -5 -14   -0.38    1.31
 -10  -5  14   -1.96    1.52
 -10  -5 -15    1.90    0.93
 -10  -6   0   35.97    2.93
  10   6  -1   43.09    3.17
 -10  -6  -1   41.09    3.26
 -10  -6   1   39.27    3.17
  10   6  -2  181.45    8.05
 -10  -6  -2  172.67    8.36
 -10  -6   2  167.79    8.28
  10   6  -3   82.99    4.69
 -10  -6  -3   83.73    5.10
 -10  -6   3   73.91    4.81
 -10  -6   4   59.40    4.65
  10   6  -4   64.16    4.21
 -10  -6  -4   63.93    4.40
 -10  -6   4   55.94    4.05
 -10  -6   5   43.77    4.13
 -10  -6   5   35.86    3.35
   6 -10   5   40.73    4.17
  10   6  -5   39.95    3.50
  10   6  -6   20.39    3.02
   6 -10  -6   19.67    2.03
 -10  -6  -6   22.62    2.22
   6 -10   6   24.79    2.42
 -10  -6   6   27.42    3.64
   6 -10   6   22.98    3.47
   6 -10   7   50.89    3.74
   6 -10  -7   42.14    3.04
 -10  -6   7   50.55    5.07
 -10  -6  -7   47.27    3.33
  10   6  -7   49.43    4.58
   6 -10   7   42.23    3.27
 -10  -6  -7   47.48    3.03
 -10  -6   8   20.20    2.22
 -10  -6  -8   22.67    2.63
 -10  -6  -8   21.38    2.25
 -10  -6  -8   20.63    2.30
 -10  -6  -9    5.54    1.80
 -10  -6  -9    5.36    2.10
   6 -10  10    3.18    1.72
 -10  -6 -10    2.45    1.96
   6 -10  10    8.71    2.34
 -10  -6 -10    4.57    1.83
   6 -10  10    5.57    1.65
 -10  -6 -11    3.69    1.82
   6 -10  11    4.85    2.14
 -10  -6 -12    0.85    1.65
   6 -10  12    4.43    1.50
 -10  -6 -13    1.52    1.55
   6 -10  13    0.05    1.20
 -10  -6  14    6.49    1.84
 -10  -7   0    1.16    1.69
 -10  -7   1   54.13    3.84
 -10  -7  -1   59.16    3.86
  10   7  -1   54.58    3.57
 -10  -7  -2   99.87    5.59
 -10  -7   2   88.69    5.36
  10   7  -2  102.57    5.20
 -10  -7  -3   95.28    5.68
 -10  -7   3   98.14    5.56
  10   7  -3   95.11    5.18
 -10  -7   4  115.52    6.37
 -10  -7  -4  119.45    6.65
 -10  -7   4  100.65    6.52
  10   7  -4  117.98    6.11
 -10  -7   5   78.03    5.06
 -10  -7   5   88.16    5.95
   7 -10  -5   73.29    4.05
   7 -10   5   97.04    6.17
  10   7  -5   84.27    5.09
   7 -10   6   61.48    5.33
 -10  -7   6   51.16    4.60
 -10  -7   6   67.46    5.42
   7 -10  -6   59.32    3.56
 -10  -7  -6   59.60    3.54
   7 -10   6   64.19    3.88
   7 -10  -7   35.22    2.61
 -10  -7  -7   31.12    2.69
 -10  -7   7   32.99    2.55
 -10  -7  -7   27.84    2.55
 -10  -7  -8   13.77    2.01
 -10  -7  -8   13.25    2.16
 -10  -7   8    7.31    1.82
   7 -10   8    8.45    2.19
   7 -10   9   23.23    2.70
 -10  -7  -9   23.35    2.76
 -10  -7  -9   18.34    2.46
 -10  -7   9   22.55    2.35
 -10  -7 -10   10.59    2.51
 -10  -7 -10   16.80    2.36
 -10  -7 -11    2.76    1.54
   7 -10  11    2.70    1.49
 -10  -7 -11    3.23    1.79
 -10  -7 -12    2.78    1.62
   7 -10  13   13.89    1.79
 -10  -7  13   15.38    2.22
  -7  10 -13   12.49    1.96
  -7  10 -14    1.70    1.26
 -10  -7 -14    2.56    1.23
 -10  -8   0  699.93   27.75
 -10  -8  -1    4.99    1.87
 -10  -8   1    4.87    1.89
 -10  -8  -2   38.87    3.37
 -10  -8   2   38.98    3.37
 -10  -8  -3    6.40    2.22
 -10  -8   3    3.01    1.93
 -10  -8  -4    1.88    2.14
 -10  -8   4    0.46    1.75
 -10  -8   4    5.06    2.30
   8 -10  -4    2.96    1.25
 -10  -8   5    2.91    2.56
   8 -10   5    6.99    3.07
   8 -10  -5    7.08    1.53
 -10  -8   5    5.57    1.89
 -10  -8   5    7.92    2.53
 -10  -8   6   98.06    6.89
   8 -10  -6  102.17    4.87
 -10  -8   6   87.10    6.26
 -10  -8   7   14.25    1.97
   8 -10  -7   15.27    2.01
 -10  -8  -7   13.57    1.99
 -10  -8  -7   14.88    1.90
 -10  -8  -8    1.52    1.65
 -10  -8  -8    2.44    1.60
 -10  -8   8    1.66    1.51
 -10  -8  -9   -0.09    1.75
 -10  -8   9    3.20    1.60
 -10  -8  -9    4.28    1.73
 -10  -8 -10  191.47    9.19
 -10  -8  10  176.49    8.60
 -10  -8 -11    6.83    1.75
 -10  -8 -11    7.86    1.95
   8 -10  11    4.67    1.64
 -10  -8  12   -1.29    1.78
 -10  -8 -13    1.94    1.39
 -10  -8  13    1.08    1.49
  -8  10 -13    1.18    1.32
   8 -10  13    1.56    1.23
 -10  -8 -14    3.51    1.12
 -10  -9   0    1.19    1.82
 -10  -9   1  305.33   13.63
 -10  -9  -1  319.46   13.70
 -10  -9  -2    8.98    2.32
 -10  -9   2    9.56    2.13
 -10  -9  -3    9.08    2.38
 -10  -9   3    9.61    2.21
 -10  -9   4    3.36    2.34
 -10  -9  -4    1.18    2.13
 -10  -9   4   -1.42    2.48
 -10  -9  -4   -0.18    1.95
 -10  -9   4    1.12    1.84
   9 -10  -4    0.63    1.18
 -10  -9   5  149.77    8.21
   9 -10  -5  160.87    7.00
 -10  -9   5  163.54    9.06
 -10  -9   5  164.23    8.98
   9 -10  -6   35.51    2.68
 -10  -9   6   35.46    2.71
 -10  -9  -6   40.03    2.62
 -10  -9  -6   32.86    2.74
 -10  -9   6   39.33    2.70
 -10  -9  -7    1.87    1.48
 -10  -9  -7   -0.61    1.58
 -10  -9   7    1.27    1.58
 -10  -9   7    3.73    1.66
 -10  -9   8   -0.11    1.83
 -10  -9   8    1.63    1.64
 -10  -9  -8    2.14    1.59
 -10  -9   9   58.36    3.71
 -10  -9   9   55.10    4.32
 -10  -9  10   50.16    3.65
 -10  -9  10   51.82    4.14
 -10  -9  11    1.07    1.30
 -10  -9 -11    0.89    1.41
 -10  -9  11    1.64    1.72
   9 -10  11    2.90    1.45
 -10  -9  12    1.88    1.53
  -9  10 -12    1.20    1.48
 -10  -9 -12    3.18    1.48
  -9  10 -13    2.55    1.19
   9 -10  13    0.14    1.19
 -10  -9 -13    0.57    1.22
 -10 -10   0   71.35    4.71
 -10 -10  -1   78.20    5.07
 -10 -10   1   83.92    5.06
 -10 -10  -1   80.69    3.99
 -10 -10   1   77.93    3.93
 -10 -10  -2  212.81    9.97
 -10 -10   2  215.98    9.97
 -10 -10   2  199.19    8.48
 -10 -10  -2  206.99    8.59
  10 -10  -3   14.36    1.57
 -10 -10  -3   12.49    2.66
 -10 -10   3   12.01    2.46
 -10 -10  -3    9.58    1.80
 -10 -10   3    8.92    1.73
 -10 -10  -4  162.30    8.12
 -10 -10   4  145.81    7.86
 -10 -10   4  147.67    8.00
  10 -10  -4  132.81    6.28
 -10 -10   4  142.04    6.41
 -10 -10  -4  140.37    6.36
 -10 -10  -5  151.23    6.78
 -10 -10   5  138.88    8.50
  10 -10  -5  141.59    6.52
 -10 -10  -5  145.11    6.61
 -10 -10   5  152.90    6.82
 -10 -10  -5  142.89    6.46
 -10 -10   5  149.44    6.53
 -10 -10   5  141.17    7.11
 -10 -10   6  142.50    6.64
 -10 -10  -6  136.04    6.51
 -10 -10   6  145.92    6.43
 -10 -10  -6  156.23    6.48
 -10 -10  -6  125.12    6.57
  10 -10  -6  124.22    6.39
 -10 -10  -7   74.15    4.35
 -10 -10   7   84.54    4.30
 -10 -10   7   73.29    4.36
 -10 -10  -7   87.16    4.43
 -10 -10   8    5.59    1.67
 -10 -10  -8    8.12    1.89
 -10 -10   8    6.66    1.81
 -10 -10   8    6.51    2.00
 -10 -10  -9    0.55    1.59
 -10 -10   9    3.54    1.65
 -10 -10   9    1.03    1.69
 -10 -10 -10    1.23    1.51
 -10 -10  10   -0.77    1.47
 -10 -10  10   -0.58    1.61
 -10 -10 -11    6.16    1.72
 -10 -10  11    4.47    1.67
 -10  10 -11    5.85    1.73
 -10 -10  11    4.52    1.41
  10 -10  11    5.49    1.52
 -10 -10 -12    3.24    1.39
 -10  10 -12    2.03    1.33
 -10 -10 -13    0.23    1.05
  10 -10  13    2.37    1.09
 -10  10 -13    0.48    1.05
 -10 -11   0   -0.16    2.06
 -10 -11  -1  151.29    7.94
 -10 -11   1  155.44    7.91
 -10 -11  -1  154.99    6.61
 -10 -11   1  146.31    6.51
 -10 -11  -2   75.87    5.12
 -10 -11   2   78.82    5.17
 -10 -11  -2   75.54    3.90
 -10 -11   2   69.62    3.76
 -10 -11  -3   49.35    4.42
 -10 -11   3   53.58    4.26
  11 -10  -3   43.66    2.76
 -10 -11  -3   51.41    3.07
 -10 -11   3   46.09    2.96
 -10 -11   4  214.51    9.08
 -10 -11  -4  200.37    8.77
  11 -10  -4  189.40    8.69
 -10 -11  -4  211.65    9.04
 -10 -11   4  215.63   10.62
 -10 -11   4  210.93    8.82
 -10 -11  -4  207.32    8.83
 -10 -11   4  221.44    8.98
  11 -10  -5   48.60    3.02
 -10 -11  -5   53.34    3.16
 -10 -11  -5   51.25    3.25
 -10 -11   5   44.44    3.96
 -10 -11  -5   45.87    3.13
 -10 -11   5   50.13    3.15
 -10 -11   6   79.86    4.35
 -10 -11  -6   69.27    4.11
 -10 -11  -6   71.46    3.96
 -10 -11  -6   62.56    4.04
 -10 -11   6   75.39    4.07
 -10 -11   7   31.82    2.70
 -10 -11  -7   31.63    2.57
 -10 -11  -7   25.43    2.75
 -10 -11   7   28.92    2.50
 -10 -11  -7   28.56    2.53
 -10 -11  -8    2.46    1.70
 -10 -11   8    2.52    1.67
 -11  10  -8    7.35    1.80
 -10 -11   8    6.57    1.69
 -10 -11   8    5.43    1.74
 -10 -11  -8    4.81    1.72
 -10 -11   9    8.15    1.85
 -10 -11   9    5.38    1.72
 -11  10  -9    5.93    1.85
 -10 -11  -9   11.60    1.83
 -10 -11  10   -0.48    1.39
 -10 -11 -10    2.71    1.42
 -11  10 -10   -0.67    1.53
 -10 -11  10   -0.87    1.52
 -10 -11 -10    0.08    1.58
 -10 -11  11    2.01    1.27
 -10 -11 -11    0.20    1.43
 -10 -11  11    1.04    1.37
  11 -10  11    1.44    1.42
 -11  10 -11    1.44    1.44
 -10 -11 -12   -0.49    1.19
 -10 -11  12    0.88    0.92
 -11  10 -12    0.26    1.15
  11 -10  13    0.15    1.01
 -10 -11 -13    0.70    0.93
  -9 -11   0   29.91    2.97
  -9 -11   1   20.91    2.72
  -9 -11  -1   21.44    1.94
  -9 -11   1   20.96    1.87
  -9 -11  -1   21.50    2.66
  -9 -11  -2   65.81    3.46
  -9 -11   2   63.99    3.36
  -9 -11  -2   71.32    4.78
  -9 -11   2   65.27    4.58
  -9 -11  -3   92.07    5.61
  -9 -11   3   84.11    5.31
  -9 -11   3   77.95    3.81
  -9 -11  -3   79.15    3.92
  -9 -11   4   -0.21    2.50
  -9 -11  -4    1.16    2.24
  -9 -11   4    2.50    2.16
  -9 -11   4   -0.86    1.41
  -9 -11  -4    2.16    1.42
  11  -9  -4    1.30    1.25
  -9 -11  -5   49.43    3.04
  11  -9  -5   39.68    2.83
  -9 -11   5   41.51    4.30
  -9 -11  -5   44.51    2.92
  -9 -11   5   45.08    2.98
  -9 -11  -5   47.23    2.83
  -9 -11   5   38.53    2.72
  -9 -11   6  179.59    7.83
  -9 -11   6  184.22    8.10
  -9 -11  -6  171.18    8.12
  -9 -11  -6  191.25    7.97
  -9 -11  -6  169.56    7.87
  -9 -11  -7   17.14    2.08
  -9 -11   7   12.57    2.16
  -9 -11   7    9.44    1.95
  -9 -11   7   10.83    2.17
  -9 -11   8   23.49    2.54
  -9 -11  -8   26.18    2.46
  -9 -11   8   20.61    2.30
  -9 -11   8   19.80    2.57
  -9 -11   9   12.49    2.03
  -9 -11  -9   16.10    2.09
  -9 -11  -9   13.78    2.13
  -9 -11   9   12.33    2.24
 -11   9  -9   13.66    2.24
  -9 -11 -10   15.08    2.25
 -11   9 -10   16.69    2.24
  -9 -11  10   18.28    2.33
  -9 -11 -10   16.60    2.07
  -9 -11  10   18.54    2.12
  -9 -11 -11    3.22    1.55
  -9 -11  11    1.70    1.39
 -11   9 -11    1.19    1.57
  -9 -11  11    1.20    1.56
  -9 -11  12    1.45    1.02
  -9 -11 -12    1.58    1.25
  -9 -11  12   -1.33    1.33
 -11   9 -12    0.46    1.26
  -9 -11 -13    0.69    0.98
 -11   9 -13    0.65    1.03
  11  -9  13   -0.72    1.09
  -8 -11   0    0.14    1.77
  11  -8   0   -0.64    1.78
  -8 -11  -1    5.38    1.96
  -8 -11   1    2.06    1.81
  11  -8  -1    5.56    1.89
  -8 -11   2   22.15    3.11
  -8 -11  -2   21.56    2.87
  -8 -11   2   20.04    2.68
  11  -8  -2   24.92    2.62
  -8 -11   3  103.03    6.43
  11  -8  -3  104.16    5.68
  -8 -11   3   94.18    4.52
  -8 -11  -3  100.05    4.62
  -8 -11  -3  106.23    6.17
  -8 -11   3  105.42    6.06
  -8 -11   4    0.50    2.06
  11  -8  -4    1.66    2.05
  -8 -11   4    2.07    1.19
  -8 -11  -4    1.37    1.23
  11  -8  -4    1.01    1.22
  -8 -11  -4   -0.54    2.19
  -8 -11   4   -0.51    1.85
  11  -8  -5    8.12    1.54
  -8 -11   5    6.30    2.71
  -8 -11   5    6.62    2.18
  -8 -11   5    4.92    2.55
  -8 -11  -6  184.55    8.20
  -8 -11   6  194.11    8.24
  -8 -11   6  193.65    8.46
  -8 -11   6  175.25    8.54
  -8 -11  -6  194.03    8.14
  -8 -11   7  199.33    8.52
  -8 -11  -7  213.61    8.58
  -8 -11   7  193.91    8.72
  -8 -11  -8   15.15    2.05
  -8 -11   8   16.17    2.46
  -8 -11  -8   16.68    2.24
  -8 -11   8   14.04    2.18
  -8 -11   8   21.65    2.21
  -8 -11  -9    6.23    1.79
  -8 -11  -9    5.53    1.78
  -8 -11   9    3.60    1.56
  -8 -11   9    7.61    1.85
  -8 -11   9    4.19    1.93
 -11   8  -9    5.78    1.88
  -8 -11 -10    0.08    1.53
  -8 -11  10    0.76    1.49
 -11   8 -10    3.65    1.68
  -8 -11  10    4.76    1.86
  -8 -11 -11    2.33    1.49
  -8 -11  11   -0.52    1.33
 -11   8 -11    3.83    1.62
  -8 -11  11    2.48    1.71
  -8 -11 -12    2.90    1.43
 -11   8 -12    4.79    1.53
  -8 -11  12    1.32    1.22
 -11   8 -13    2.31    1.16
  -8 -11  13    1.63    1.20
  11  -8  13    0.55    1.21
  -7 -11   0  254.93   11.37
  11  -7  -1   86.89    4.80
  -7 -11  -1   74.25    4.80
  -7 -11   1   80.90    4.94
  -7 -11   1   83.38    5.17
  11  -7  -2   49.15    3.61
  -7 -11   2   46.60    3.84
  -7 -11  -2   46.89    3.82
  -7 -11   2   46.57    3.63
  11  -7  -3    2.90    1.91
  -7 -11   3    2.65    2.30
  -7 -11   3    2.84    1.91
  -7 -11  -3    2.46    2.01
  -7 -11   3    3.47    2.13
  11  -7  -4    4.17    2.06
  -7 -11   4    6.09    2.16
  -7 -11  -4    7.29    2.28
  -7 -11   4    7.15    2.14
  -7 -11   5    5.49    1.61
  11  -7  -5    5.40    1.32
  -7 -11   5    4.96    2.42
  -7 -11   5    7.66    2.21
  -7 -11   5    4.65    2.45
  11  -7  -5    4.50    2.19
  -7 -11  -6    5.49    1.68
  -7 -11   6    6.97    1.84
  -7 -11   6    8.67    2.86
  11  -7  -6    4.50    2.55
  -7 -11   6    6.81    2.76
  -7 -11   6    5.73    1.73
  -7 -11   7   37.75    2.93
  -7 -11   7   27.83    3.13
  -7 -11  -7   32.74    2.91
  -7 -11   7   43.13    2.87
 -11   7  -7   32.68    2.98
  -7 -11  -7   36.35    2.77
  -7 -11   8  358.71   14.71
  -7 -11   8  363.10   14.99
 -11   7  -8  379.75   14.57
 -11   7  -8  336.87   14.65
  -7 -11   8  368.98   14.35
  -7 -11  -8  353.14   14.43
  -7 -11   9    9.77    2.29
 -11   7  -9   14.51    2.27
  -7 -11  -9   13.25    2.12
  -7 -11  -9   13.59    2.18
 -11   7  -9    8.55    2.11
  -7 -11   9   10.76    1.90
  -7 -11   9   10.61    2.03
 -11   7 -10    2.93    1.72
  -7 -11  10    4.04    1.94
  -7 -11  10    2.58    1.72
 -11   7 -10    1.00    1.69
  -7 -11 -10    2.64    1.69
 -11   7 -11    3.15    1.67
  -7 -11  11    2.17    1.72
  -7 -11  11   -1.02    1.45
 -11   7 -11   -0.74    1.54
  -7 -11 -11    3.22    1.57
 -11   7 -12   14.11    1.93
  -7 -11  12   11.01    2.10
  -7 -11  12    7.13    1.55
  -7 -11 -12    9.48    1.83
 -11   7 -12   10.53    1.83
 -11   7 -13    0.78    1.21
  -7 -11 -13    2.78    1.18
  -7 -11 -14    0.03    0.82
  -6 -11   0    1.12    1.95
  -6 -11   0    2.73    1.70
  11  -6  -1    0.99    1.77
  -6 -11  -1    0.80    1.74
  -6 -11   1    0.13    1.68
  -6 -11   1    3.48    2.11
  -6 -11  -2  103.71    5.70
  -6 -11   2   99.27    5.68
  -6 -11   2   93.27    5.85
  11  -6  -2  106.20    5.57
  -6 -11   3    7.03    2.22
  -6 -11   3    9.38    2.13
  11  -6  -3    5.75    2.03
  -6 -11  -3    6.30    2.02
  -6 -11   3    9.24    2.04
  -6 -11   4    4.33    2.08
  -6 -11  -4    2.21    1.86
  -6 -11   4    0.91    1.72
  11  -6  -4    0.56    2.01
  11  -6  -5   15.37    2.73
  -6 -11   5   14.20    2.04
 -11   6  -5   16.23    1.76
 -11   6  -5   17.40    2.04
  -6 -11   5   17.33    2.86
  -6 -11   5   19.10    3.13
  -6 -11   5   18.71    2.64
  -6 -11   6    0.89    1.64
 -11   6  -6    1.11    1.41
  -6 -11   6   -0.38    2.50
  11  -6  -6    1.08    2.13
 -11   6  -6    2.16    1.64
  -6 -11   6    4.19    2.41
  -6 -11  -7   42.46    3.33
 -11   6  -7   44.11    3.47
  -6 -11  -7   52.91    3.24
  -6 -11   7   54.98    3.53
  -6 -11   7   53.12    3.34
  -6 -11   7   43.93    3.53
 -11   6  -7   52.14    3.42
 -11   6  -8   15.56    2.48
  -6 -11   8   25.40    2.37
  -6 -11  -8   16.36    2.16
  -6 -11   8   18.16    2.63
 -11   6  -8   18.70    2.49
  -6 -11   9   41.92    3.60
 -11   6  -9   39.76    3.24
  -6 -11   9   45.45    3.25
  -6 -11  -9   36.56    3.24
  -6 -11   9   37.70    2.91
 -11   6  -9   42.92    3.38
  -6 -11  10    2.47    1.70
  -6 -11 -10    1.46    1.64
 -11   6 -10    4.84    1.86
 -11   6 -10    3.26    1.88
  -6 -11  10    1.17    1.76
 -11   6 -11   20.78    2.59
  -6 -11  11   23.41    2.90
 -11   6 -11   24.10    2.61
  -6 -11 -11   20.27    2.43
  -6 -11  11   20.73    2.27
  -6 -11  12    0.84    1.21
  11  -6 -12   -0.61    1.59
 -11   6 -12   -1.62    1.58
  -6 -11 -12    2.12    1.48
  -6 -11  12   -0.96    1.60
 -11   6 -12    1.87    1.51
 -11   6 -13    1.83    1.29
  -6 -11  13    6.10    1.60
  -6 -11 -13    2.40    1.29
 -11   6 -13    2.51    1.36
  -6 -11 -14   -0.68    0.84
  -5 -11   0  311.45   12.67
  -5 -11   0  274.25   12.37
  -5 -11  -1   45.06    3.44
  -5 -11   1   47.79    3.39
  11  -5  -1   52.88    3.53
  -5 -11   1   39.95    3.44
  -5 -11  -2  182.50    8.43
  -5 -11   2  170.60    8.32
  11  -5  -2  184.16    8.25
  -5 -11   2  179.88    8.60
  -5 -11   2  156.91    7.82
  11  -5  -3   21.68    2.67
  -5 -11   3   17.61    2.44
  -5 -11   3   19.31    2.91
  -5 -11  -3   18.78    2.57
  -5 -11   3   19.52    2.59
  11  -5  -4   20.90    2.73
  -5 -11   4   10.02    2.24
  -5 -11   4   15.56    2.89
  -5 -11  -4   19.14    2.62
  -5 -11   4   17.42    2.51
  11  -5  -5   20.65    2.95
  -5 -11   5   20.56    2.95
 -11   5  -6  101.80    7.16
  -5 -11   6   95.09    6.60
 -11   5  -6  101.30    4.99
 -11   5  -6   90.24    4.71
  -5 -11   6   84.10    5.09
  -5 -11   6  101.90    6.46
  11  -5  -6   98.10    6.12
  -5 -11   7    1.19    1.74
 -11   5  -7   -1.73    1.69
 -11   5  -7   -1.71    1.69
  -5 -11   7    1.43    1.54
  -5 -11   7   -0.49    1.59
  -5 -11  -7   -0.78    1.40
  11  -5  -7    3.71    2.26
  -5 -11   8   -0.25    1.62
  -5 -11   8    1.52    1.82
 -11   5  -8    2.29    1.75
  -5 -11   8    1.96    1.87
 -11   5  -8    1.62    1.75
  -5 -11   8    0.14    1.67
  -5 -11   9   -1.29    1.48
 -11   5  -9    2.29    1.70
  -5 -11   9   -0.45    1.79
  -5 -11  -9    2.31    1.54
 -11   5  -9    1.60    1.84
  -5 -11   9   -0.48    1.66
  -5 -11   9   -0.08    1.57
  -5 -11  10   26.84    3.17
 -11   5 -10   31.26    2.93
  -5 -11  10   29.59    2.72
  -5 -11  10   24.44    3.01
  -5 -11 -10   26.45    2.73
 -11   5 -10   33.46    3.04
  -5 -11  11    3.85    1.62
  -5 -11  11    4.15    2.01
 -11   5 -11    3.14    1.80
  -5 -11 -11    2.50    1.68
 -11   5 -11    7.41    1.94
  -5 -11  12    7.18    1.62
 -11   5 -12   12.92    2.05
 -11   5 -12    8.93    1.93
  -5 -11  12    6.95    2.06
  -5 -11 -12    7.98    1.88
  -5 -11  13    3.21    1.55
  -5 -11 -13   -0.06    1.27
 -11   5 -13    1.06    1.30
  -5 -11  13    0.16    0.96
 -11   5 -14    1.64    1.03
  -4 -11   0   -0.12    1.63
  -4 -11   0    0.68    1.55
  -4 -11   1  278.52   11.93
  -4 -11  -1  271.85   11.70
  -4 -11  -1  264.42   11.71
  -4 -11   1  271.71   11.65
  -4 -11   2  156.41    7.63
  -4 -11   2  138.42    6.89
  -4 -11  -2  147.46    7.39
  -4 -11   2  148.11    7.25
  11  -4  -2  157.06    7.31
  -4 -11   3  135.26    7.39
  -4 -11   3  127.68    6.79
  -4 -11  -3  139.57    7.19
  -4 -11   3  148.99    7.15
  11  -4  -3  146.07    7.10
  -4 -11   4   61.22    4.45
  -4 -11   4   71.04    5.07
  11  -4  -4   71.68    4.59
 -11   4   5   24.54    3.01
  -4 -11   5   25.90    3.23
  11  -4  -5   31.34    3.30
  11  -4  -6    2.92    2.34
 -11   4  -6    4.45    1.62
  -4 -11   6    1.34    1.61
 -11   4  -6    3.22    1.48
  -4 -11   6    2.63    2.26
 -11   4  -6    6.86    2.74
  -4 -11   6    0.42    2.66
  -4 -11   7   50.84    3.30
  -4 -11   7   46.99    3.46
  -4 -11   7   45.40    4.89
  -4 -11   7   39.09    3.50
 -11   4  -7   50.13    3.28
 -11   4  -7   41.59    3.17
  11  -4  -7   41.39    4.27
  -4 -11   7   47.84    4.64
  -4 -11   8   18.68    2.24
 -11   4  -8   15.25    2.18
  -4 -11   8   22.06    2.66
  -4 -11   8   19.83    2.22
  -4 -11   8   14.51    2.52
 -11   4  -8   18.50    2.36
  -4 -11   9    5.79    1.72
 -11   4  -9    5.74    1.94
 -11   4  -9    2.99    1.94
  -4 -11   9    4.38    1.97
  -4 -11  -9    6.40    1.73
 -11   4 -10    8.49    2.12
  -4 -11  10    6.33    1.87
  -4 -11  10    8.35    2.16
 -11   4 -10    5.77    2.08
  -4 -11  10    7.32    2.17
  -4 -11 -10    3.20    1.74
 -11   4 -11   13.37    2.29
  -4 -11  11   12.82    2.00
  -4 -11  11   11.82    2.40
  -4 -11  11   12.11    2.49
  -4 -11 -11   13.73    2.19
  -4 -11 -12    2.28    1.50
 -11   4 -12   -1.44    1.72
  -4 -11  12   -1.40    1.33
 -11   4 -13    3.38    1.47
  -4 -11  13    0.35    1.03
 -11   4 -13    2.11    1.38
  -4 -11 -13    2.31    1.28
 -11   4 -14   -0.60    1.13
   4  11  14    1.13    1.67
  11  -4 -14    1.17    1.19
 -11   4 -14    1.17    1.15
  -3 -11   0  363.96   14.68
  -3 -11   0  340.94   14.49
  -3 -11  -1   29.11    2.77
  -3 -11   1   33.52    3.06
  -3 -11  -1   30.22    2.81
  -3 -11   1   32.76    2.76
  -3 -11   2  174.51    8.04
  11  -3  -2  169.92    7.67
  -3 -11   2  146.81    7.24
  -3 -11  -2  161.86    7.75
  -3 -11   2  146.91    7.43
 -11   3   3   41.56    3.44
  -3 -11   3   34.83    3.14
  11  -3  -3   35.79    3.28
  -3 -11   3   36.00    3.65
 -11   3  -4  391.46   16.80
  -3 -11   4  351.21   15.81
  11  -3  -4  367.75   15.80
 -11   3  -4  377.58   16.01
 -11   3   4  370.55   15.93
  -3 -11   4  389.83   16.53
  -3 -11   5   10.02    2.62
 -11   3  -5   13.31    2.96
 -11   3   5   16.99    2.62
  11  -3  -5   10.40    2.52
  -3 -11   6   80.56    5.78
 -11   3  -6   81.01    6.32
  11  -3  -6   85.96    5.60
 -11   3  -6   72.54    4.18
  -3 -11   6   76.44    4.80
 -11   3  -6   83.96    4.31
  -3 -11   6   78.96    4.53
  -3 -11   6   83.57    6.09
 -11   3  -7   -1.56    1.64
  -3 -11   7    1.73    2.44
 -11   3  -7   -0.24    1.45
  -3 -11   7    0.11    1.66
  -3 -11   7    0.44    2.55
  11  -3  -7    0.50    2.29
  -3 -11   8   21.95    2.79
 -11   3  -8   37.71    2.87
 -11   3  -8   31.66    2.79
  -3 -11   8   25.53    2.38
  -3 -11   8   24.87    2.59
  -3 -11  -8   18.40    2.33
  -3 -11   9   29.42    3.18
 -11   3  -9   32.45    3.00
 -11   3  -9   30.91    2.99
  -3 -11  -9   23.00    2.58
  -3 -11   9   24.18    2.69
  -3 -11   9   26.27    2.42
 -11   3 -10    0.21    1.80
  -3 -11 -10    4.03    1.68
 -11   3 -10    1.85    1.93
  -3 -11  11    6.55    1.83
  -3 -11  11    7.42    2.07
  -3 -11 -11    4.41    1.88
 -11   3 -11    9.16    2.13
  -3 -11 -12    1.52    1.49
 -11   3 -12    1.21    1.67
  -3 -11  12    0.43    1.29
 -11   3 -13    3.72    1.58
 -11   3 -13    1.88    1.54
  -3 -11  13    5.50    1.82
  -3 -11  13    2.45    1.13
 -11   3 -14    0.67    1.11
 -11   3 -14    0.82    1.19
 -11   2   0    1.70    2.14
  -2 -11   0    1.19    1.59
 -11   2  -1  409.23   17.20
 -11   2   1  433.21   17.04
  -2 -11   1  394.37   16.07
  -2 -11  -1  393.80   16.36
  -2 -11   1  417.32   16.82
  11  -2  -2   27.66    2.80
 -11   2   2   25.57    3.08
  -2 -11   2   25.72    2.52
  -2 -11   2   22.19    2.77
  11  -2  -3  130.11    6.82
 -11   2  -3  142.47    7.06
 -11   2   3  135.22    6.90
 -11   2  -3  133.87    7.39
  -2 -11   3  130.25    6.68
 -11   2   3  132.08    6.97
  -2 -11   3  131.71    7.31
  11  -2  -4   16.56    2.61
  -2 -11   4   17.54    3.05
 -11   2  -4   17.82    3.25
  -2 -11   4   13.67    2.47
 -11   2  -4   17.17    2.48
 -11   2   4   15.65    2.51
  -2 -11   5  138.22    7.80
  11  -2  -5  132.46    7.04
 -11   2   5  119.36    6.76
  -2 -11   5  117.17    6.97
 -11   2  -5  132.57    7.74
  -2 -11   6    8.92    1.91
 -11   2  -6    5.99    2.84
  -2 -11   6    4.02    2.43
  11  -2  -6    9.02    2.49
 -11   2  -6    5.18    1.56
  -2 -11   6    8.37    1.94
 -11   2  -6    8.19    1.65
  11  -2  -7   36.92    4.10
 -11   2  -7   35.30    2.88
  -2 -11   7   39.02    3.34
 -11   2  -7   37.84    2.85
  -2 -11   7   36.34    4.37
  -2 -11   7   40.28    4.66
  -2 -11  -8   16.99    2.16
  -2 -11   8   20.46    2.20
 -11   2  -8   24.66    2.55
 -11   2  -8   20.72    2.41
  -2 -11   8   25.12    2.37
  -2 -11   8   22.94    2.73
 -11   2  -9   10.90    2.27
  -2 -11   9    6.20    1.77
  -2 -11  -9    6.81    1.80
 -11   2  -9    8.70    2.08
  -2 -11   9    6.28    2.20
  -2 -11   9    7.45    2.13
  -2 -11 -10    8.55    1.89
 -11   2 -10    9.26    2.10
  -2 -11  10    6.53    1.93
  -2 -11 -11    5.77    1.88
  -2 -11  11    5.66    2.17
  -2 -11  11    4.85    2.29
 -11   2 -11   11.35    2.18
  -2 -11  12    1.98    1.83
  -2 -11  12   -1.14    1.39
 -11   2 -12    4.44    1.81
 -11   2 -12    5.07    1.75
  -2 -11  12    2.67    2.00
 -11   2 -13    2.42    1.56
  -2 -11  13    1.77    1.06
 -11   2 -13    1.00    1.47
  -2 -11  13    1.99    1.69
 -11   2 -14    3.70    1.35
 -11   2 -14    3.51    1.43
 -11   1   0 1493.50   54.85
 -11   1   0 1430.68   54.93
  -1 -11   0 1396.58   54.34
 -11   1  -1  375.25   14.96
 -11   1   1  378.70   14.91
 -11   1  -1  351.42   15.21
  -1 -11   1  331.82   14.01
 -11   1   1  372.98   15.03
  -1 -11  -1  327.11   14.16
  -1 -11   1  341.91   14.60
 -11   1  -2   66.70    4.39
 -11   1   2   69.52    4.53
  -1 -11   2   59.48    3.87
 -11   1   2   70.02    4.51
  -1 -11   2   64.04    4.45
 -11   1  -3   54.40    3.97
 -11   1   3   58.27    4.02
 -11   1  -3   53.69    4.31
 -11   1   3   54.08    3.99
  -1 -11   3   47.01    3.68
  -1 -11   3   54.44    4.37
 -11   1  -4   28.18    2.85
 -11   1   4   26.72    2.90
  -1 -11   4   24.87    2.98
 -11   1  -4   32.54    3.87
  -1 -11   4   34.98    3.69
 -11   1   5    2.26    1.65
  -1 -11   5    3.81    2.23
  -1 -11   5    0.96    2.45
 -11   1  -5   -0.18    2.34
  -1 -11   6   22.09    3.17
 -11   1  -6   13.79    2.92
 -11   1  -6   16.29    1.87
  -1 -11   7    3.27    2.42
  -1 -11   7    4.35    2.81
  -1 -11  -7    4.80    1.34
 -11   1  -7    1.43    1.50
  -1 -11   8   14.02    2.51
 -11   1  -8   13.05    2.10
  -1 -11   8   14.13    2.21
  -1 -11  -8   13.45    1.89
  -1 -11   8   10.02    1.80
  -1 -11   8   16.89    2.13
 -11   1  -9   17.74    2.51
  -1 -11   9   17.90    2.12
  -1 -11   9   22.12    2.89
  -1 -11   9   26.48    2.67
  -1 -11  10   27.62    2.75
 -11   1 -10   24.87    2.85
  -1 -11  10   25.52    2.32
  -1 -11  10   24.83    3.11
 -11   1 -11    2.10    1.78
  -1 -11  11    1.43    2.08
 -11   1 -11    3.52    1.86
  -1 -11  11    0.39    1.59
 -11   1 -12    3.29    1.72
 -11   1 -12    1.52    1.66
  -1 -11  12    1.60    1.34
 -11   1 -13   -0.89    1.45
 -11   1 -13    0.08    1.46
  -1 -11  13    1.61    1.10
  -1 -11  14    2.23    1.39
 -11   1 -14    3.12    1.27
 -11   1 -14    0.65    1.20
 -11   0   0    1.54    2.22
   0 -11   0    0.41    1.60
 -11   0   0    1.18    1.85
 -11   0   1  101.30    6.02
   0 -11   1  107.87    5.38
 -11   0  -1   99.44    6.24
   0 -11  -1  100.72    5.21
   0 -11   1  108.58    5.81
 -11   0  -1  115.03    6.02
 -11   0   1  119.10    5.99
  11   0  -2   11.96    2.34
   0 -11   2    6.84    1.99
   0 -11   2    5.02    2.33
 -11   0   2    9.78    2.41
 -11   0  -2    9.55    2.22
 -11   0   2    8.20    2.14
  11   0  -3   20.41    2.68
   0 -11   3   16.54    2.58
   0 -11   3   19.85    2.93
 -11   0  -3   22.13    3.22
 -11   0   3   19.20    2.51
 -11   0  -3   15.33    2.34
 -11   0   3   17.01    2.42
  11   0  -4    2.16    2.09
   0 -11   4    2.82    2.12
   0 -11   4    1.34    2.26
 -11   0  -4    2.32    2.19
 -11   0  -4   -1.26    1.72
 -11   0   4   -0.51    1.60
  11   0  -5   15.62    2.76
   0 -11   5   11.45    2.62
   0 -11   5   18.97    3.21
 -11   0  -5   14.70    2.77
 -11   0   5   11.71    2.16
  11   0  -6   38.22    3.80
   0 -11   6   35.69    3.04
   0 -11   6   33.63    3.88
 -11   0  -6   32.75    2.53
 -11   0  -6   27.68    2.56
 -11   0  -6   37.24    3.81
   0 -11   6   35.47    3.82
   0 -11   7   19.78    2.47
 -11   0  -7   18.98    2.21
  11   0  -7   16.31    3.15
   0 -11   7   17.26    3.31
   0 -11   7   11.84    3.39
   0 -11   7   16.00    2.33
   0 -11  -7   17.67    1.76
 -11   0  -7   15.59    2.00
   0 -11   8   14.16    1.76
   0 -11   8   13.86    2.37
   0 -11   8   13.16    2.18
   0 -11   8   12.24    1.96
 -11   0  -8   12.39    2.10
   0 -11   8    5.13    2.08
   0 -11   9   22.96    3.03
   0 -11   9   17.83    2.69
   0 -11   9   23.34    2.83
   0 -11   9   24.21    2.47
 -11   0  -9   24.95    2.67
   0 -11  10   11.52    1.91
 -11   0 -10   12.37    2.35
   0 -11  10   10.94    2.48
 -11   0 -10   16.79    2.49
   0 -11  10   18.34    2.83
   0 -11  10   15.98    2.49
   0 -11  11   18.05    2.40
 -11   0 -11   20.95    2.73
   0 -11  11   23.73    3.16
 -11   0 -11   22.83    2.75
   0 -11  12    2.71    1.41
 -11   0 -12    0.39    1.42
   0 -11  12    4.69    1.94
 -11   0 -12    2.89    1.73
 -11   0 -12    1.98    1.76
 -11   0 -13   12.42    2.04
 -11   0 -13   14.98    2.06
   0 -11  13   13.55    2.33
   0 -11  13    8.20    1.56
 -11   0 -14    1.89    1.27
   0 -11  14    1.06    1.37
   1 -11   0 1948.71   71.78
 -11  -1   0 1873.31   72.27
 -11  -1   0 1894.71   72.10
   1 -11   1   93.94    5.28
 -11  -1   1   82.72    5.34
   1 -11   1   94.79    4.88
 -11  -1  -1   92.62    5.52
 -11  -1   1   91.15    5.22
 -11  -1  -1   95.38    5.27
   1 -11   2   52.30    3.97
 -11  -1   2   55.05    3.93
   1 -11   2   58.91    3.74
  11   1  -2   54.31    3.83
 -11  -1  -2   48.36    3.57
 -11  -1   2   50.14    3.71
 -11  -1  -3   41.36    3.90
   1 -11   3   40.39    3.43
  11   1  -3   46.14    3.46
 -11  -1  -3   36.11    3.18
 -11  -1   3   40.76    3.31
 -11  -1  -4   -0.80    2.25
   1 -11   4    0.99    2.09
 -11  -1  -4    2.18    1.58
 -11  -1   4    2.57    1.66
  11   1  -4    0.41    2.07
 -11  -1  -5  173.27    8.88
   1 -11   5  178.81    8.86
  11   1  -5  193.19    8.80
  11   1  -6  173.82    8.57
   1 -11  -6  138.43    6.67
   1 -11   6  160.75    7.51
 -11  -1  -6  155.40    6.95
   1 -11   6  157.88    7.51
   1 -11   6  164.90    8.59
   1 -11   7    0.56    1.68
   1 -11  -7    0.91    1.34
  11   1  -7   -1.02    2.36
   1 -11   7    0.19    2.48
   1 -11   8   20.67    2.77
   1 -11   8   21.27    2.02
   1 -11   8   24.03    2.73
 -11  -1  -9   13.21    2.32
   1 -11   9   12.69    2.52
   1 -11   9   12.73    2.31
   1 -11   9   15.90    2.12
   1 -11   9    9.86    2.36
 -11  -1 -10    0.76    1.79
   1 -11  10    0.91    2.09
   1 -11  10    2.86    1.84
   1 -11  10    0.19    1.41
   1 -11  10    3.08    2.00
 -11  -1 -11    2.65    1.80
   1 -11  11    0.16    1.58
   1 -11  12   16.22    2.60
   1 -11  12   12.43    2.04
 -11  -1 -12   11.83    2.00
   1 -11  12   13.59    2.73
 -11  -1 -12   18.84    2.35
   1 -11  13   -1.59    1.14
 -11  -1 -13    0.47    1.49
 -11  -2   0    1.72    2.17
   2 -11   0    1.00    1.64
   2 -11   0    0.27    1.56
 -11  -2   0    0.36    1.72
 -11  -2   1   55.76    4.13
   2 -11   1   65.99    4.09
 -11  -2  -1   61.01    4.37
   2 -11   1   65.19    3.89
 -11  -2  -1   66.10    4.16
 -11  -2   1   55.67    3.94
  11   2  -2   22.67    2.68
   2 -11   2   24.68    2.66
 -11  -2  -2   22.07    2.50
 -11  -2   2   24.71    2.53
 -11  -2  -3   94.88    5.70
   2 -11   3   99.07    5.47
  11   2  -3  103.56    5.43
 -11  -2  -3   79.88    4.98
 -11  -2   3   95.89    5.14
 -11  -2  -4   14.85    2.63
 -11  -2  -4    7.68    1.97
 -11  -2   4   14.70    2.07
   2 -11   4   15.65    2.65
  11   2  -4   14.10    2.46
 -11  -2   5    3.80    1.72
  11   2  -5    4.47    2.32
   2 -11   5    2.29    2.37
  11   2  -6    3.34    2.27
 -11  -2  -6    2.28    1.42
   2 -11  -6    2.08    1.19
   2 -11   6    1.71    1.77
   2 -11   6    0.36    2.28
   2 -11   6    0.32    1.63
 -11  -2  -7   30.26    2.69
   2 -11   7   39.93    4.15
   2 -11  -7   28.96    2.46
  11   2  -7   34.18    3.86
 -11  -2  -8    1.65    1.31
 -11  -2  -8    1.96    1.75
   2 -11   8    0.89    1.91
 -11  -2  -8    1.58    1.73
   2 -11   8    0.79    1.24
   2 -11   8    2.27    1.78
   2 -11   8    3.79    1.69
 -11  -2  -9   11.33    2.23
   2 -11   9    9.21    2.35
   2 -11   9   15.23    2.50
 -11  -2  -9   13.43    2.27
   2 -11   9   13.11    2.04
   2 -11  10   -0.73    1.73
 -11  -2 -10    4.77    1.87
   2 -11  10    2.50    1.54
 -11  -2 -10    1.32    1.81
   2 -11  11    8.38    1.99
 -11  -2 -11    6.97    1.94
 -11  -2 -11   11.85    2.15
   2 -11  11   11.30    2.50
   2 -11  11   12.44    2.50
 -11  -2 -11   10.82    2.20
   2 -11  12    1.24    1.43
 -11  -2 -12    2.60    1.45
 -11  -2 -12    4.66    1.70
   2 -11  12    1.36    1.89
 -11  -2 -12    3.28    1.69
   2 -11  12    4.29    2.04
 -11  -2 -13    6.16    1.63
   2 -11  13    1.94    1.77
 -11  -2 -14    1.83    1.34
   2 -11  14    1.73    1.25
   2 -11  14   -0.06    0.90
 -11  -3   0    6.57    1.90
   3 -11   0    9.07    1.84
 -11  -3  -1   53.89    3.78
 -11  -3   1   50.72    3.66
   3 -11   1   60.14    3.84
  11   3  -2   43.19    3.24
 -11  -3   2   30.63    2.76
 -11  -3  -2   32.38    2.97
   3 -11   2   38.66    3.25
  11   3  -3  192.17    8.58
 -11  -3  -3  171.03    8.37
 -11  -3   3  170.95    8.35
   3 -11   3  189.77    8.74
  11   3  -4   -1.50    2.02
 -11  -3  -4    1.19    1.70
 -11  -3   4    2.66    1.57
   3 -11   4   -0.30    2.15
  11   3  -5   22.78    3.15
   3 -11   5   24.31    3.28
 -11  -3   5   20.45    2.65
   3 -11   6    0.44    1.81
 -11  -3  -6   -0.89    1.45
   3 -11  -6   -0.25    1.18
  11   3  -6   -0.95    2.31
   3 -11   6   -2.79    2.68
  11   3  -7    2.76    2.42
   3 -11  -7   -1.08    1.42
   3 -11   7    0.64    1.68
 -11  -3  -7   -0.63    1.46
 -11  -3  -7    1.14    1.48
   3 -11   7   -2.75    2.65
   3 -11   8    8.65    1.49
 -11  -3  -8   10.90    1.92
 -11  -3  -8    7.58    1.59
   3 -11   8    8.95    2.03
 -11  -3  -8    6.78    1.92
   3 -11   8    7.77    2.08
 -11  -3  -9    3.26    1.73
   3 -11   9    1.38    1.83
   3 -11   9    2.15    1.72
 -11  -3  -9    0.46    1.73
 -11  -3 -10   12.70    2.13
   3 -11  10    8.74    2.17
 -11  -3 -10    9.24    2.07
 -11  -3 -10    8.00    1.93
   3 -11  10    6.96    1.82
   3 -11  11   -0.97    1.62
 -11  -3 -11   -1.00    1.72
   3 -11  11    1.30    1.87
 -11  -3 -11   -0.98    1.48
 -11  -3 -11    0.70    1.67
   3 -11  11   -1.69    1.98
   3 -11  12    1.05    1.42
 -11  -3 -12    1.98    1.67
 -11  -3 -12   -0.77    1.50
   3 -11  13    2.36    1.17
 -11  -3 -13    0.82    1.50
 -11  -3 -14    5.69    1.41
 -11  -4   0   -0.36    1.62
 -11  -4  -1    0.85    1.77
 -11  -4   1    0.85    1.56
   4 -11   2   96.69    5.50
 -11  -4  -2   88.17    5.26
 -11  -4   2   91.93    5.24
  11   4  -2   99.64    5.27
   4 -11   3   51.62    3.99
  11   4  -3   54.89    3.77
 -11  -4  -3   44.89    3.58
 -11  -4   3   44.28    3.54
 -11  -4  -4    2.44    1.68
 -11  -4   4    4.16    1.77
   4 -11   4    2.59    2.23
  11   4  -4    3.56    2.17
 -11  -4   5   21.55    2.71
  11   4  -5   24.12    3.14
   4 -11  -6   14.83    1.83
   4 -11   6   19.89    3.31
 -11  -4  -6   14.10    1.90
 -11  -4  -6   18.95    1.90
  11   4  -6   17.50    2.90
  11   4  -7    9.30    2.87
 -11  -4  -7    9.59    1.83
   4 -11   7    8.86    1.96
   4 -11  -7    8.43    1.66
 -11  -4  -7   10.67    1.95
   4 -11   7   11.16    2.27
   4 -11   7   10.39    2.97
 -11  -4  -8    2.15    1.81
   4 -11   8    2.24    1.13
 -11  -4  -8    1.37    1.58
   4 -11   8    0.79    1.94
 -11  -4  -8   -1.03    1.34
 -11  -4  -9    8.19    1.94
   4 -11   9   12.60    2.38
 -11  -4  -9   13.93    2.23
   4 -11   9   11.22    2.09
 -11  -4  -9    7.71    1.99
 -11  -4 -10    3.30    1.73
   4 -11  10    1.91    1.90
 -11  -4 -10    2.40    1.92
 -11  -4 -10    2.95    1.63
   4 -11  10    2.85    1.63
   4 -11  10    2.45    1.82
 -11  -4 -11    0.83    1.56
   4 -11  11    0.48    1.94
 -11  -4 -11    2.68    1.71
 -11  -4 -11   -1.26    1.42
   4 -11  11    0.72    1.23
   4 -11  11    0.90    1.57
   4 -11  12    3.00    1.37
 -11  -4 -12    2.89    1.63
   4 -11  12   -0.19    1.60
   4 -11  13    1.53    1.25
 -11  -4 -13    5.81    1.67
  -4  11  14    2.42    1.47
   4 -11  14    0.28    0.81
 -11  -4 -14    0.26    1.22
  11   4 -14    1.77    1.24
 -11  -4  14   -1.17    1.37
 -11  -5   0    3.70    1.72
 -11  -5  -1    5.08    1.80
 -11  -5   1    4.24    1.76
  11   5  -2  386.84   15.53
 -11  -5   2  368.06   15.70
 -11  -5  -2  363.00   15.69
   5 -11   3    2.27    2.41
 -11  -5  -3    1.28    1.79
 -11  -5   3    1.36    1.68
  11   5  -3    3.98    1.92
 -11  -5  -4   51.14    4.08
 -11  -5   4   50.21    3.90
   5 -11   4   49.35    4.34
  11   5  -4   58.03    4.09
   5 -11   5    0.18    2.34
 -11  -5   5    0.99    1.55
  11   5  -5   -2.68    2.24
  11   5  -6   18.65    3.02
 -11  -5  -6   16.87    2.07
   5 -11   6   19.08    2.29
 -11  -5  -6   17.39    1.97
   5 -11   6   16.52    3.34
 -11  -5  -7   18.05    2.39
 -11  -5  -7   19.36    2.09
   5 -11   7   19.35    2.29
   5 -11  -7   17.44    2.11
  11   5  -7   14.17    3.16
   5 -11   8   -0.45    1.77
 -11  -5  -8    3.07    1.82
 -11  -5  -8    3.89    1.62
   5 -11   8    0.41    1.10
 -11  -5  -8    0.83    1.35
 -11  -5  -8    2.00    1.56
 -11  -5  -9    2.07    1.67
   5 -11   9    8.56    2.16
 -11  -5  -9    0.83    1.87
   5 -11   9    4.18    1.86
 -11  -5  -9    3.15    1.72
   5 -11  10    2.98    1.67
 -11  -5 -10    2.60    1.87
   5 -11  10    2.70    1.79
   5 -11  10    0.96    1.52
 -11  -5 -10   -0.08    1.60
 -11  -5 -11    2.34    1.73
   5 -11  11   -0.79    1.57
 -11  -5 -11   -0.44    1.49
   5 -11  11   -0.67    1.30
   5 -11  12    4.09    1.58
 -11  -5 -12    1.78    1.67
   5 -11  13    2.13    1.19
 -11  -5 -13    0.88    1.43
   5 -11  14    3.04    0.93
 -11  -6   0    0.54    1.69
 -11  -6  -1  112.97    6.37
 -11  -6   1  126.47    6.45
  11   6  -1  126.24    6.26
  11   6  -2    1.62    1.86
 -11  -6  -2    2.01    1.94
 -11  -6   2   -0.41    1.65
  11   6  -3   23.45    2.68
 -11  -6  -3   28.36    2.98
 -11  -6   3   19.95    2.61
   6 -11   4   95.39    6.21
 -11  -6  -4   92.13    5.66
 -11  -6   4   77.14    5.19
  11   6  -4   93.25    5.37
   6 -11  -5   26.36    2.19
   6 -11   5   28.56    3.77
 -11  -6   5   27.64    3.09
  11   6  -5   26.18    3.20
 -11  -6  -5   26.52    2.35
   6 -11  -6    4.09    1.46
  11   6  -6    3.83    2.29
 -11  -6  -6    4.61    1.63
 -11  -6  -7   11.06    1.84
 -11  -6  -7   13.10    2.18
 -11  -6   7    9.32    1.75
 -11  -6  -7    8.64    1.63
 -11  -6  -8    2.34    1.52
 -11  -6  -8    5.03    1.89
 -11  -6   8    2.61    1.42
 -11  -6  -8    3.11    1.46
 -11  -6  -9   -0.52    1.76
 -11  -6  -9    1.04    1.59
   6 -11  10    4.63    1.81
 -11  -6 -10    6.22    2.06
 -11  -6 -10    6.27    1.86
   6 -11  11    1.29    1.35
 -11  -6 -11    1.60    1.72
 -11  -6 -11    1.97    1.50
   6 -11  12    2.76    1.54
 -11  -6 -12    3.47    1.70
 -11  -6  13    6.17    1.82
   6 -11  13    3.26    1.37
 -11  -6 -13    3.57    1.58
  -6  11 -14    1.76    1.23
 -11  -6 -14    1.31    1.33
   6 -11  14    1.02    0.92
 -11  -7   0    5.10    2.05
 -11  -7  -1   20.89    2.55
 -11  -7   1   20.32    2.62
  11   7  -1   20.19    2.47
  11   7  -2  197.09    8.99
 -11  -7  -2  191.87    9.39
 -11  -7   2  197.51    9.25
  11   7  -3   34.22    3.05
 -11  -7  -3   39.96    3.54
 -11  -7   3   30.44    3.14
 -11  -7  -4    4.29    1.98
 -11  -7   4    4.20    1.95
   7 -11   4    2.22    2.59
  11   7  -4    5.01    1.99
   7 -11  -4    1.45    1.22
   7 -11  -5   54.82    3.29
 -11  -7  -5   53.69    3.38
 -11  -7   5   60.58    4.47
  11   7  -5   59.34    4.40
   7 -11  -6  122.13    5.52
 -11  -7  -6  120.04    5.69
 -11  -7   7   22.06    2.13
   7 -11  -7   15.45    2.16
 -11  -7  -7   20.28    2.40
 -11  -7  -7   17.05    1.95
 -11  -7  -7   18.56    2.23
 -11  -7  -8    0.10    1.70
 -11  -7   8    2.08    1.42
 -11  -7  -8    1.66    1.71
 -11  -7  -9   -2.80    1.91
 -11  -7  -9    2.00    1.73
 -11  -7   9    1.16    1.49
 -11  -7 -10   30.08    3.11
   7 -11  10   35.48    2.89
 -11  -7 -10   33.40    2.88
 -11  -7 -11   -0.27    1.59
 -11  -7 -11    0.54    1.41
   7 -11  11    1.79    1.35
   7 -11  12    4.61    1.65
 -11  -7 -12    3.56    1.66
 -11  -7  12    6.40    1.94
 -11  -7 -13    5.02    1.61
   7 -11  13    2.99    1.33
  -7  11 -13    8.16    1.58
 -11  -7 -14    1.39    0.99
 -11  -8   0   -0.45    1.76
 -11  -8  -1   32.76    3.14
 -11  -8   1   32.02    3.13
 -11  -8  -2   55.21    4.22
 -11  -8   2   52.69    4.02
 -11  -8  -3   13.61    3.50
 -11  -8   3   14.33    3.63
 -11  -8  -3   19.87    2.81
 -11  -8   3   17.85    2.47
   8 -11  -3   15.35    1.61
 -11  -8  -4    7.39    4.18
 -11  -8   4    4.51    4.63
   8 -11  -4    7.24    1.47
 -11  -8  -4    8.98    2.44
 -11  -8   4    6.08    2.14
   8 -11  -5    1.32    1.36
 -11  -8   5   -0.80    1.96
   8 -11   5    0.68    2.82
   8 -11  -6    4.62    1.68
 -11  -8  -6    6.36    1.70
 -11  -8   6    6.65    1.72
 -11  -8   6    8.18    1.75
 -11  -8  -6    6.70    1.58
   8 -11  -7   43.32    3.11
 -11  -8  -7   39.90    3.11
 -11  -8   7   44.20    3.06
 -11  -8  -7   50.62    3.12
 -11  -8  -7   38.35    3.19
 -11  -8  -8    5.20    1.91
 -11  -8  -8    3.49    1.75
 -11  -8   8    4.56    1.77
 -11  -8  -9  182.11    8.27
 -11  -8   9  177.26    8.03
 -11  -8  -9  171.60    8.40
   8 -11  10    2.13    1.69
 -11  -8 -10   -2.55    1.73
 -11  -8  10   -0.13    1.41
 -11  -8 -10   -0.36    1.81
 -11  -8 -11   -1.54    1.44
   8 -11  11    0.56    1.35
 -11  -8 -11    2.49    1.56
 -11  -8  11   -0.38    1.61
 -11  -8  12    1.11    1.43
   8 -11  12   -2.09    1.47
  -8  11 -13   13.72    1.65
   8 -11  13    9.83    1.52
 -11  -8 -14    1.09    0.94
 -11  -9   0  129.64    7.00
 -11  -9  -1    0.33    1.88
 -11  -9   1    0.32    1.72
 -11  -9   1    2.75    1.86
 -11  -9  -1    0.30    1.95
 -11  -9  -2   34.38    2.83
 -11  -9   2   30.23    2.73
   9 -11  -2   27.99    2.11
 -11  -9  -2   35.63    3.33
 -11  -9   2   31.23    3.18
 -11  -9  -3    5.38    2.25
 -11  -9   3    4.00    2.00
 -11  -9   3    4.71    3.00
 -11  -9  -3    5.52    3.11
   9 -11  -3    4.03    1.36
 -11  -9  -4   19.41    2.99
 -11  -9   4   23.49    3.04
 -11  -9  -4   24.41    4.40
 -11  -9   4   21.55    4.60
   9 -11  -4   23.29    2.08
 -11  -9  -5    1.69    1.48
 -11  -9   5    4.01    4.75
 -11  -9   5    0.86    1.46
 -11  -9  -5   -0.28    1.36
 -11  -9  -5    3.10    1.42
 -11  -9   5    1.24    1.59
   9 -11  -5    1.14    1.53
   9 -11  -6   19.54    2.22
 -11  -9   6   21.28    2.18
 -11  -9   6   18.72    2.18
 -11  -9  -6   18.27    2.11
 -11  -9  -6   20.66    2.11
 -11  -9  -7   14.87    2.05
 -11  -9  -7   13.34    2.04
 -11  -9   7   17.40    2.07
 -11  -9   7   15.25    2.18
 -11  -9   8   97.54    5.34
 -11  -9  -8  108.04    5.45
 -11  -9   9    3.40    1.59
 -11  -9   9    5.23    1.87
 -11  -9 -10    1.15    1.44
 -11  -9  10    1.23    1.55
 -11  -9  10    1.79    1.36
 -11  -9 -11   -0.36    1.30
 -11  -9  11   -0.59    1.51
 -11  -9  11   -1.08    1.21
   9 -11  11   -1.92    1.39
  -9  11 -12    4.54    1.46
   9 -11  12    3.80    1.47
   9 -11  13    1.89    1.05
 -11  -9 -13    0.23    1.12
 -11 -10   0    0.16    1.96
 -11 -10  -1   66.51    3.59
 -11 -10   1   65.36    3.54
 -11 -10  -1   64.75    4.60
 -11 -10   1   59.60    4.41
  10 -11  -1   61.95    3.33
 -11 -10  -2   12.53    2.49
 -11 -10   2   10.05    2.47
 -11 -10   2   10.28    2.12
 -11 -10  -2    8.97    2.23
  10 -11  -2    9.26    1.43
  10 -11  -3   85.94    4.35
 -11 -10  -3   99.92    6.00
 -11 -10   3   89.97    5.67
 -11 -10  -3   90.06    4.99
 -11 -10   3   83.15    4.87
 -11 -10  -4    5.71    1.41
 -11 -10  -4    2.84    1.43
 -11 -10   4    5.01    4.02
 -11 -10  -4    6.20    3.97
 -11 -10  -4    2.58    1.38
 -11 -10   4    2.81    1.72
  10 -11  -4    4.89    1.46
 -11 -10  -4    4.82    2.30
 -11 -10   4    5.05    2.22
 -11 -10  -5  201.98    8.42
 -11 -10   5  202.80    8.25
 -11 -10   5  202.08    8.41
  10 -11  -5  177.43    8.20
 -11 -10  -5  178.25    8.19
 -11 -10  -5  181.70    8.21
 -11 -10   5  162.90    9.24
 -11 -10   6   13.08    2.05
 -11 -10  -6   11.72    1.82
  10 -11  -6    9.64    1.83
 -11 -10  -6   11.00    1.99
 -11 -10  -6   12.63    1.77
 -11 -10   6   14.35    2.01
 -11 -10  -7    1.32    1.57
 -11 -10   7    1.47    1.63
 -11 -10  -7    1.74    1.67
 -11 -10  -7    0.81    1.46
 -11 -10   7    1.10    1.63
 -11 -10  -8    5.43    1.94
 -11 -10   8    2.93    1.74
 -11 -10  -8    5.99    1.73
 -11 -10   8    6.00    1.68
 -11 -10  -9    0.70    1.65
 -11 -10  -9    0.75    1.53
 -11 -10   9    0.44    1.49
 -11 -10  10    4.06    1.46
 -10  11 -10    4.87    1.80
 -11 -10  10    5.11    1.60
 -11 -10 -10    4.22    1.55
 -11 -10  11    1.15    1.15
 -10  11 -11   -0.98    1.42
 -11 -10 -11   -1.26    1.20
  10 -11  11    0.80    1.34
 -11 -10 -12    0.67    1.25
 -10  11 -12    0.21    1.18
  10 -11  13    1.42    0.95
 -11 -11   0   58.99    4.40
 -11 -11  -1    4.89    2.11
 -11 -11   1    3.93    2.16
 -11 -11   1    5.30    1.64
 -11 -11  -1    3.14    1.72
  11 -11  -2   10.99    1.59
 -11 -11  -2    7.72    2.44
 -11 -11   2    9.42    2.41
 -11 -11   2   11.44    2.09
 -11 -11  -2   10.68    2.18
 -11 -11  -3    6.68    1.44
 -11 -11   3    4.46    2.41
 -11 -11  -3    6.96    2.55
 -11 -11   3    7.70    1.63
 -11 -11  -3    5.97    1.53
 -11 -11   3    6.63    1.73
  11 -11  -3    6.27    1.46
 -11 -11  -3    3.69    1.38
 -11 -11  -4  119.81    5.57
 -11 -11   4  122.95    5.76
 -11 -11  -4  114.43    5.68
  11 -11  -4  116.38    5.60
 -11 -11  -4  129.11    6.55
 -11 -11   4  122.30    6.45
 -11 -11   4  117.93    5.74
 -11 -11  -5    7.62    1.72
 -11 -11   5    3.51    5.26
 -11 -11  -5    9.50    1.74
 -11 -11   5   11.16    1.82
  11 -11  -5    9.93    1.79
 -11 -11  -5   10.74    1.79
  11 -11  -6   65.26    4.18
 -11 -11   6   78.19    4.37
 -11 -11   6   83.04    4.27
 -11 -11  -6   80.45    4.28
 -11 -11  -6   80.66    4.07
 -11 -11  -6   67.72    4.34
 -11 -11  -7   12.04    1.94
 -11 -11  -7   12.28    2.10
 -11 -11   7   18.76    2.08
 -11 -11   7   17.22    2.19
 -11 -11  -7   13.51    1.99
 -11  11  -8    5.78    1.72
 -11 -11   8    6.01    1.75
 -11 -11  -8    6.52    1.75
 -11 -11  -8    5.33    1.78
 -11 -11   8    6.36    1.65
 -11 -11  -9    1.22    1.47
 -11 -11  -9   -0.33    1.58
 -11 -11   9    2.51    1.48
 -11  11  -9    0.60    1.50
 -11 -11  10    0.38    1.31
 -11  11 -10    3.05    1.49
 -11 -11 -10    3.16    1.32
 -11 -11 -11    0.88    1.11
 -11  11 -11    3.20    1.29
  11 -11  11   -0.91    1.34
 -11 -11  11    0.80    1.11
 -11  11 -12   -1.93    1.12
 -11 -11 -13    1.21    0.82
 -11 -12   0    0.14    1.65
 -11 -12   0    1.62    1.37
 -11 -12   0    1.04    1.61
 -11 -12   0    1.59    1.34
 -11 -12   0    1.22    1.40
 -11 -12  -1   70.94    3.67
 -11 -12   1   72.08    3.64
 -11 -12  -1   61.65    3.69
 -11 -12   1   67.13    3.73
 -11 -12   1   63.61    3.56
 -11 -12  -1   66.68    3.53
 -11 -12   1   66.21    3.49
 -11 -12  -1   67.92    3.57
 -11 -12  -1   67.69    3.75
 -11 -12   1   62.43    3.68
 -11 -12   2    4.14    1.81
 -11 -12  -2    4.80    1.94
 -11 -12   2    3.28    1.71
 -11 -12  -2    4.27    3.36
 -11 -12   2    2.14    1.43
 -11 -12  -2    1.91    1.40
 -11 -12  -2    4.47    1.47
 -11 -12   2    3.79    1.54
 -11 -12  -2    3.41    1.38
 -11 -12  -3    0.61    1.37
 -11 -12  -3   -0.14    1.48
  12 -11  -3   -1.46    1.41
 -11 -12   3   -0.45    2.14
 -11 -12  -3    2.23    2.47
 -11 -12  -3    0.14    1.37
 -11 -12   3   -0.39    1.41
 -11 -12   3    1.37    1.62
 -11 -12   4    1.64    1.78
 -11 -12  -4    0.21    1.31
  12 -11  -4   -0.34    1.33
 -11 -12   4    2.47    3.18
 -11 -12  -4   -1.93    3.48
 -11 -12   4    1.61    1.67
 -11 -12  -4    0.08    1.40
  12 -11  -5   10.25    1.83
 -11 -12   5   15.18    2.15
 -11 -12  -5   13.66    1.83
 -11 -12   5    8.66    4.91
 -11 -12  -5   13.36    1.85
 -11 -12  -6   12.08    1.86
 -11 -12   6   12.90    2.06
 -11 -12  -6   10.70    1.96
 -11 -12   6    9.67    2.03
 -11 -12  -6   10.48    1.77
 -11 -12  -7    1.58    1.48
 -11 -12   7   -1.13    1.69
 -11 -12  -7   -0.25    1.48
 -11 -12   7   -0.09    1.62
 -11 -12  -7    1.66    1.45
 -11 -12  -8    4.08    1.65
 -11 -12   8    1.05    1.61
 -11 -12  -8    1.31    1.47
 -11 -12   8    5.22    1.57
 -11 -12  -9    4.45    1.66
 -11 -12   9    3.75    1.49
 -12  11  -9    3.58    1.50
 -11 -12  -9    2.97    1.39
 -11 -12   9    4.13    1.63
 -11 -12 -10    3.00    1.30
 -11 -12  10   -1.23    1.35
 -11 -12 -11    0.21    1.04
 -12  11 -11    0.63    1.19
 -11 -12  11    1.72    1.08
  12 -11  11    2.70    1.32
 -11 -12  12    1.16    0.75
  12 -11  12    2.25    1.18
 -10 -12   0  119.54    6.76
 -10 -12   0  118.48    5.43
 -10 -12   1   14.58    1.76
 -10 -12  -1   14.58    1.79
 -10 -12  -1    9.82    2.43
 -10 -12   1   11.51    2.33
 -10 -12  -2  179.66    7.54
 -10 -12   2  175.66    7.66
 -10 -12  -2  177.75    7.63
 -10 -12   2  171.47    7.49
 -10 -12  -2  180.78    9.18
 -10 -12   2  180.54    9.08
 -10 -12  -2  168.19    7.48
 -10 -12  -3    0.62    1.36
 -10 -12   3    2.62    1.34
 -10 -12  -3   -0.35    1.46
 -10 -12   3    1.64    1.57
 -10 -12  -3    0.08    1.38
 -10 -12   3    0.25    1.51
 -10 -12  -3   -1.01    1.76
 -10 -12  -4    1.32    1.31
  12 -10  -4    0.97    1.29
 -10 -12   4   -0.54    1.68
 -10 -12   4    1.17    1.80
 -10 -12  -4    0.45    1.88
 -10 -12   4    0.33    1.54
 -10 -12  -4    0.55    1.28
 -10 -12  -5    1.28    1.49
 -10 -12   5    0.59    3.11
 -10 -12  -5    3.04    1.46
 -10 -12  -5    1.24    1.34
 -10 -12   5    1.46    1.75
  12 -10  -5    0.48    1.38
 -10 -12  -6   15.56    1.93
 -10 -12   6   13.09    2.19
 -10 -12  -6   15.03    1.89
 -10 -12   6   17.74    2.26
 -10 -12  -6   11.74    1.92
 -10 -12  -7   29.54    2.48
 -10 -12  -7   23.22    2.52
 -10 -12   7   28.89    2.75
 -10 -12  -7   28.19    2.47
 -10 -12   7   28.81    2.54
 -10 -12  -8    2.94    1.53
 -10 -12   8    5.73    1.64
 -12  10  -8    2.82    1.58
 -10 -12   8    3.27    1.81
 -10 -12   9    2.93    1.57
 -10 -12  -9    5.09    1.51
 -12  10  -9    3.48    1.51
 -10 -12   9    0.36    1.37
 -10 -12 -10    5.99    1.51
 -10 -12  10    6.35    1.57
 -10 -12 -10    5.47    1.61
 -10 -12  10    2.63    1.45
 -12  10 -11    3.55    1.31
 -10 -12  11    2.27    1.20
  12 -10  11    2.93    1.33
 -10 -12 -11    0.91    1.26
 -10 -12 -12   -0.84    1.08
 -10 -12  12    0.28    0.90
 -12  10 -12    2.59    1.11
 -10 -12 -13    0.28    0.79
  -9 -12   0    0.17    1.80
  -9 -12  -1  111.99    5.11
  -9 -12   1  106.64    5.04
  -9 -12  -1  117.25    6.41
  -9 -12   1  107.46    6.37
  -9 -12   2   26.98    2.06
  -9 -12  -2   26.22    2.18
  -9 -12  -2   22.34    3.17
  -9 -12   2   20.09    2.94
  -9 -12   3  105.71    6.66
  -9 -12  -3   97.93    6.31
  -9 -12   3  100.06    6.15
  -9 -12  -3   97.65    4.74
  -9 -12   3   93.54    4.62
  12  -9  -4   -0.68    1.28
  -9 -12  -4   -0.50    1.47
  -9 -12   4   -0.72    1.41
  -9 -12  -4    0.61    2.08
  -9 -12   4    1.69    2.24
  -9 -12   4    0.90    1.56
  -9 -12  -4    0.40    1.34
  -9 -12   4    0.65    1.63
  -9 -12  -4    0.49    1.34
  -9 -12  -5  114.05    5.46
  -9 -12  -5  111.57    5.36
  -9 -12   5  119.54    5.67
  -9 -12   5  107.78    5.24
  -9 -12  -5  114.79    5.56
  -9 -12   5  119.20    5.66
  12  -9  -5  102.48    5.18
  -9 -12  -6   31.40    2.76
  -9 -12   6   37.02    2.80
  -9 -12  -6   33.08    2.54
  -9 -12  -6   30.38    2.67
  -9 -12   7   47.08    3.24
 -12   9  -7   40.75    2.83
  -9 -12   7   40.49    3.02
  -9 -12  -7   38.68    2.93
 -12   9  -8   16.06    2.05
  -9 -12  -8   14.50    2.08
  -9 -12   8   18.26    2.30
  -9 -12   8   14.32    2.00
  -9 -12  -9    3.72    1.72
  -9 -12   9    3.86    1.69
  -9 -12   9    4.11    1.51
 -12   9  -9    6.86    1.74
  -9 -12  -9    3.75    1.61
  -9 -12  10   -1.21    1.51
 -12   9 -10    3.39    1.58
  -9 -12  10    2.29    1.50
  -9 -12 -10    1.89    1.45
  -9 -12 -10    2.19    1.43
  -9 -12 -11    4.48    1.43
  -9 -12  11    3.14    1.36
 -12   9 -11    3.61    1.48
  -9 -12  11    1.70    1.39
  -9 -12 -12    0.62    1.17
  -9 -12  12   -0.16    0.96
 -12   9 -12    1.87    1.16
  -9 -12  12    0.58    1.17
  12  -9  13    0.29    1.05
  -9 -12 -13    0.83    0.89
  12  -8   0   91.16    5.10
  -8 -12   0   76.07    5.17
  -8 -12  -1    6.27    2.18
  -8 -12   1    6.82    2.09
  12  -8  -1   10.61    2.20
  -8 -12   1    6.51    1.41
  -8 -12  -1    7.41    1.53
  -8 -12   2   60.27    4.69
  12  -8  -2   54.61    3.89
  -8 -12  -2   48.80    2.94
  -8 -12   2   49.90    2.86
  -8 -12  -2   52.76    4.13
  -8 -12   2   52.45    4.13
  -8 -12   3   11.26    2.93
  -8 -12   3   10.65    1.50
  -8 -12  -3   10.85    1.63
  -8 -12  -3    9.07    2.63
  -8 -12   3   12.69    2.67
  -8 -12   4  145.91    6.41
  -8 -12  -4  149.39    6.50
  -8 -12  -4  160.30    8.52
  -8 -12   4  142.85    8.26
  -8 -12  -5    8.18    1.57
  -8 -12  -5    5.27    1.52
  -8 -12   5    5.20    1.83
  -8 -12   5    7.21    1.54
  -8 -12   5    8.74    1.95
  -8 -12  -5    4.60    1.61
  -8 -12  -6  142.90    6.72
  -8 -12   6  150.20    6.86
 -12   8  -6  143.00    6.69
  -8 -12   6  136.89    6.99
  -8 -12  -7    2.49    1.55
  -8 -12   7    0.97    1.75
  -8 -12   7    0.97    1.61
  -8 -12  -7   -1.10    1.60
 -12   8  -7    1.49    1.59
  -8 -12  -8    6.56    1.68
  -8 -12  -8    8.18    1.92
  -8 -12   8   10.81    1.94
  -8 -12   8    6.74    1.94
 -12   8  -8   10.97    1.94
  -8 -12   8    8.96    1.91
  -8 -12   9   35.27    2.70
  -8 -12   9   32.78    3.03
 -12   8  -9   31.43    2.87
  -8 -12  -9   28.79    2.90
  -8 -12  -9   41.10    2.91
  -8 -12   9   34.78    3.01
  -8 -12  10    5.62    1.70
  -8 -12 -10    7.75    1.73
 -12   8 -10    7.87    1.85
  -8 -12  11    0.34    1.44
  -8 -12  11   -3.19    1.42
  -8 -12 -11    0.68    1.36
 -12   8 -11   -0.55    1.40
  -8 -12  12   -0.54    1.30
 -12   8 -12    0.85    1.26
  -8 -12  12    1.51    1.07
 -12   8 -13   -0.55    1.03
  -8 -12 -13    1.44    0.96
  12  -8  13    0.25    1.11
  -7 -12   0    0.60    1.73
  -7 -12   1  118.23    6.48
  -7 -12   1  106.64    4.97
  12  -7  -1  120.54    6.12
  -7 -12  -1  106.23    6.20
  -7 -12   1  113.42    6.21
  -7 -12   2   92.31    5.59
  -7 -12   2   77.74    3.91
  -7 -12  -2   79.65    4.02
  12  -7  -2   85.56    5.00
  -7 -12  -2   82.99    5.24
  -7 -12   2   79.49    5.16
  12  -7  -3   21.44    2.91
  -7 -12  -3   22.61    1.88
  -7 -12   3   21.31    1.90
  -7 -12   3   25.03    3.34
  -7 -12  -3   21.74    2.95
  -7 -12   3   23.78    2.99
  -7 -12  -4   28.04    3.29
  -7 -12   4   23.53    1.92
  -7 -12  -4   24.14    2.04
  -7 -12   4   30.85    3.28
  -7 -12   4   23.45    3.51
  12  -7  -4   28.52    3.26
  12  -7  -5    2.20    2.26
  -7 -12   5    3.20    2.45
 -12   7  -6   -0.19    1.61
  -7 -12  -6    0.70    1.37
  -7 -12   6    1.92    1.56
  -7 -12  -6    1.20    1.41
 -12   7  -6   -0.90    1.46
  -7 -12  -7  138.48    6.81
  -7 -12   7  144.07    7.10
 -12   7  -7  147.65    6.76
 -12   7  -7  144.00    7.05
  -7 -12   7  144.90    7.06
  -7 -12   7  147.74    6.75
  -7 -12  -7  149.63    6.80
 -12   7  -8    9.86    1.92
  -7 -12   8    8.34    2.06
 -12   7  -8    6.42    1.99
  -7 -12  -8    8.53    1.91
  -7 -12  -8    9.97    1.86
  -7 -12   8    7.30    1.96
  -7 -12   8   11.05    2.07
  -7 -12  -9   19.89    2.49
 -12   7  -9   30.10    2.71
  -7 -12   9   25.85    2.86
 -12   7  -9   24.29    2.69
  -7 -12   9   26.22    2.49
  -7 -12  -9   29.29    2.64
  -7 -12   9   30.07    2.80
 -12   7 -10    0.18    1.56
 -12   7 -10    1.44    1.60
  -7 -12  10    1.96    1.68
  -7 -12 -10    0.48    1.52
  -7 -12  10   -0.23    1.54
 -12   7 -11   11.53    1.99
 -12   7 -11   15.98    2.09
  -7 -12 -11   13.26    2.01
  -7 -12  11   15.22    1.94
 -12   7 -12    0.06    1.31
 -12   7 -12    0.55    1.34
  -7 -12 -12    2.76    1.31
  -7 -12  12   -1.95    1.22
  -7 -12  13    1.43    1.23
  -7 -12  13   -0.30    0.88
 -12   7 -13    2.66    1.14
  -7 -12 -13    1.05    1.10
  -6 -12   0   40.47    3.39
  -6 -12   0   37.44    3.37
  -6 -12   1    2.75    1.88
  -6 -12  -1    4.25    1.88
  -6 -12   1    5.22    1.96
  12  -6  -1    2.73    2.01
  -6 -12   2   -0.17    1.91
  -6 -12  -2    0.47    1.81
  -6 -12   2    1.53    1.86
  12  -6  -2   -0.14    1.97
  -6 -12   3   -0.93    2.28
  12  -6  -3   -1.88    2.06
  -6 -12  -3    1.01    1.82
  -6 -12   3    2.12    1.82
  -6 -12   4   27.80    2.44
  -6 -12  -4   32.83    3.61
  -6 -12   4   33.34    3.44
 -12   6  -4   37.19    2.64
  -6 -12   4   32.95    2.19
  -6 -12  -4   33.39    2.19
  12  -6  -4   30.85    3.35
  -6 -12   4   30.93    3.37
  -6 -12   4   35.11    3.95
  -6 -12   5    2.44    1.60
  12  -6  -5    4.50    2.26
 -12   6  -5    2.74    1.66
  -6 -12   5    4.73    2.43
 -12   6  -5    2.65    1.29
  -6 -12  -6    8.22    1.83
 -12   6  -6   11.03    1.73
  -6 -12   6    8.41    1.94
  -6 -12   6   13.54    1.97
 -12   6  -6   12.21    1.98
  -6 -12  -6    9.77    1.69
 -12   6  -6   13.64    3.64
  12  -6  -6    7.71    2.51
  -6 -12   6    9.31    2.94
  -6 -12  -7    3.27    1.54
  -6 -12  -7    3.82    1.58
 -12   6  -7    4.76    1.67
  -6 -12   7    4.25    1.89
 -12   6  -7    8.05    1.88
  -6 -12   7    3.79    1.72
  -6 -12   8   84.16    4.57
  -6 -12   8   83.99    5.04
 -12   6  -8   80.15    4.65
 -12   6  -8   76.22    4.71
  -6 -12  -8   75.23    4.63
  -6 -12   8   78.02    4.69
  -6 -12  -8   87.71    4.49
  -6 -12   9    2.92    1.78
  -6 -12   9    2.65    1.65
  -6 -12   9    1.01    1.76
 -12   6  -9    3.67    1.76
  -6 -12  -9    0.59    1.55
 -12   6  -9   -0.10    1.76
 -12   6 -10   24.24    2.80
  -6 -12  10   27.81    2.66
  -6 -12 -10   23.58    2.68
  -6 -12  10   32.76    3.02
  -6 -12  11    1.73    1.46
  -6 -12 -11   -1.35    1.51
 -12   6 -11   -0.98    1.54
 -12   6 -11    0.69    1.61
 -12   6 -12   10.60    1.76
  12  -6 -12   11.29    1.96
  -6 -12 -12    5.39    1.61
  -6 -12  12    7.11    1.49
 -12   6 -12    5.20    1.76
  -6 -12  13    1.31    0.90
  -6 -12 -13    3.12    1.21
 -12   6 -13    0.10    1.28
 -12   6 -13    1.71    1.22
  -5 -12   0    0.53    1.66
  -5 -12   0    0.58    1.85
  12  -5  -1  112.20    6.00
  -5 -12  -1  105.84    6.02
  -5 -12   1  109.92    5.98
  -5 -12   1  120.75    6.36
  -5 -12  -2    3.25    1.96
  -5 -12   2    7.19    2.06
  12  -5  -2    5.98    2.15
  -5 -12   2    7.08    2.25
  12  -5  -3   66.88    4.52
  -5 -12   3   66.46    4.90
  -5 -12  -3   69.11    4.65
  -5 -12   3   63.95    4.47
  -5 -12   4   34.29    3.51
  12  -5  -4   30.47    3.38
  -5 -12   4   33.55    3.70
  -5 -12   5  147.02    7.04
 -12   5  -5  137.59    6.50
 -12   5  -5  155.50    6.96
  12  -5  -5  162.18    8.26
 -12   5   5  158.80    8.43
  -5 -12   5  150.68    8.27
  -5 -12  -6    5.73    1.61
 -12   5  -6    8.18    1.70
  -5 -12   6   11.38    1.97
  -5 -12   6    2.54    2.60
  12  -5  -6    9.50    2.65
 -12   5  -6    6.36    1.81
 -12   5  -6    5.19    3.32
  -5 -12   6    8.10    3.15
  -5 -12  -7   33.37    2.76
  -5 -12   7   35.20    3.20
 -12   5  -7   38.62    2.88
 -12   5  -7   31.63    2.92
  -5 -12  -7   36.23    2.63
  -5 -12   7   39.87    3.16
  -5 -12   7   39.55    2.96
  -5 -12   8    4.05    1.77
  -5 -12  -8    4.11    1.68
  -5 -12   8    3.68    1.78
 -12   5  -8    3.59    1.73
  -5 -12   8    3.06    1.96
 -12   5  -8    3.06    1.84
  -5 -12  -9    8.87    1.96
 -12   5  -9   10.62    2.20
  -5 -12   9   16.29    2.03
 -12   5  -9   15.02    2.22
  -5 -12   9   12.58    2.28
 -12   5 -10    0.80    1.72
  -5 -12  10    2.49    1.82
  -5 -12 -10    2.31    1.57
  -5 -12  10   -0.24    1.69
 -12   5 -11   19.49    2.37
 -12   5 -11   23.43    2.58
  -5 -12 -11   18.01    2.32
  -5 -12  11   19.06    2.29
 -12   5 -12    0.79    1.51
 -12   5 -12    5.40    1.56
  -5 -12  12    3.54    1.28
  -5 -12  12    2.96    1.67
  -5 -12 -12    3.65    1.48
  -5 -12  13    0.76    0.91
 -12   5 -13   -2.02    1.32
  -5 -12 -13    0.48    1.14
 -12   5 -13    0.86    1.22
  -4 -12   0   10.34    2.08
  -4 -12   0    6.35    1.80
  -4 -12  -1    5.79    1.93
  -4 -12   1    9.64    2.27
  -4 -12  -1    5.94    1.95
  -4 -12   1    4.92    1.90
  -4 -12  -2  177.38    8.62
  -4 -12   2  171.76    8.57
  12  -4  -2  188.12    8.64
  -4 -12   2  180.12    8.91
  -4 -12   3   14.45    2.34
 -12   4   3   15.65    2.80
  -4 -12   3   16.58    2.88
  12  -4  -3   17.97    2.71
  -4 -12   4   52.42    4.05
  12  -4  -4   46.59    3.95
 -12   4  -4   54.12    4.38
  -4 -12   4   41.71    4.29
  12  -4  -5    3.52    2.34
 -12   4  -5    5.03    1.54
  -4 -12   5    3.04    2.18
 -12   4   5    9.08    2.35
 -12   4  -5    4.15    2.93
  -4 -12   5    6.79    2.66
  -4 -12   6   77.09    4.68
 -12   4  -6   80.16    4.22
 -12   4  -6   82.36    4.51
  -4 -12   6   78.17    5.81
  12  -4  -6   75.89    5.62
 -12   4  -6   75.87    6.63
  -4 -12   7    0.73    1.56
 -12   4  -7   -0.84    1.67
 -12   4  -7    2.29    1.64
  -4 -12   7    2.75    1.77
  -4 -12  -7    2.56    1.49
  -4 -12   7    0.61    1.74
  -4 -12   8   22.82    2.69
 -12   4  -8   24.59    2.52
 -12   4  -8   18.56    2.47
  -4 -12  -8   18.01    2.14
  -4 -12   8   20.38    2.28
  -4 -12   9    1.92    1.66
 -12   4  -9    0.72    1.75
  -4 -12   9    0.82    1.84
  -4 -12  -9    0.58    1.50
  -4 -12   9    4.11    1.79
  -4 -12  10    2.17    1.43
 -12   4 -10    2.88    1.78
 -12   4 -10    1.15    1.75
  -4 -12  10    0.70    1.75
  -4 -12 -10    2.23    1.51
  -4 -12  10    1.16    1.60
 -12   4 -11    0.97    1.79
  -4 -12 -11    0.71    1.55
  -4 -12  11   -0.11    1.72
 -12   4 -11    0.33    1.74
  -4 -12  11    0.15    1.50
 -12   4 -12   -1.86    1.55
  -4 -12  12    1.33    1.62
 -12   4 -12    0.78    1.51
  -4 -12  12    0.12    1.27
 -12   4 -13    0.33    1.30
  -4 -12  13   -0.08    0.91
  -4 -12 -13    0.34    1.09
  -3 -12   0   -0.13    1.73
 -12   3   1  108.73    6.07
  -3 -12   1  103.76    5.76
  -3 -12  -1   93.41    5.35
  -3 -12   2   56.31    4.42
 -12   3   2   67.28    4.65
  12  -3  -2   62.98    4.22
  -3 -12   3   52.90    4.39
  12  -3  -3   55.72    4.15
 -12   3  -3   61.12    4.63
 -12   3   3   60.94    4.38
 -12   3  -3   67.95    5.19
  -3 -12   3   53.86    3.95
 -12   3   3   64.46    4.53
 -12   3  -4    4.07    2.90
  -3 -12   4    0.97    2.36
  12  -3  -4    2.42    2.21
 -12   3  -4    5.99    2.17
 -12   3   4    2.82    2.11
  -3 -12   4    2.99    2.15
 -12   3   5   61.32    4.76
  12  -3  -5   63.41    4.81
 -12   3  -5   59.21    3.63
  -3 -12   5   67.97    5.37
  -3 -12   5   61.34    4.01
 -12   3  -5   59.77    3.37
  -3 -12   5   66.50    4.84
 -12   3  -5   72.10    5.82
  -3 -12   6   -1.50    2.57
  -3 -12   6    1.28    1.70
 -12   3  -6    4.79    2.89
 -12   3  -6    0.96    1.52
  12  -3  -6    0.17    2.32
  -3 -12   7   64.76    4.29
 -12   3  -7   60.66    4.03
  -3 -12   7   68.84    3.90
  -3 -12  -7   61.21    3.73
  -3 -12   7   75.93    4.06
  -3 -12   8    1.51    1.71
 -12   3  -8    3.33    1.77
  -3 -12  -8    2.12    1.39
  -3 -12   8    0.37    1.59
  -3 -12   8   -0.81    1.83
 -12   3  -9    1.85    1.73
 -12   3  -9    4.73    1.91
  -3 -12   9    3.22    1.84
  -3 -12   9    1.50    1.64
  -3 -12  -9    2.84    1.49
  -3 -12   9    2.83    1.84
 -12   3 -10    8.16    2.03
 -12   3 -10    3.91    1.91
  -3 -12  10    1.75    1.49
  -3 -12 -10    2.55    1.61
  -3 -12  10    3.70    1.80
  -3 -12  11    2.53    1.53
  -3 -12 -11   -0.71    1.54
 -12   3 -11   -0.50    1.72
 -12   3 -11    4.22    1.78
 -12   3 -12    0.97    1.61
  -3 -12  12    0.12    1.22
  -3 -12  13   -0.38    0.97
 -12   3 -13    3.38    1.36
 -12   3 -13    0.62    1.38
 -12   3 -14    1.52    0.99
 -12   2   0    2.33    2.15
 -12   2   0    2.82    2.68
  -2 -12   0    3.52    1.76
 -12   2  -1   11.67    2.67
 -12   2   1   11.55    2.46
  -2 -12  -1    9.45    1.97
 -12   2  -1   12.50    2.98
 -12   2   1   15.61    2.84
  -2 -12   1    9.25    2.18
  12  -2  -2  115.55    6.06
 -12   2  -2  121.43    6.55
 -12   2   2  119.29    6.30
  -2 -12   2   96.27    5.55
 -12   2   2  116.17    6.42
  -2 -12   2  108.26    6.22
  12  -2  -3  113.57    6.39
 -12   2  -3  136.80    6.97
 -12   2   3  125.21    6.64
 -12   2   3  116.62    6.64
 -12   2  -3  132.76    7.44
  -2 -12   3  107.70    6.24
  -2 -12   3  111.91    6.74
  12  -2  -4  239.75   10.92
 -12   2  -4  230.25   11.08
 -12   2   4  233.31   11.04
  -2 -12   4  218.19   10.80
 -12   2  -4  248.28   11.90
  -2 -12   4  236.44   11.49
 -12   2  -5    0.88    1.21
 -12   2   5    2.01    1.86
 -12   2  -5   -2.33    2.74
  -2 -12   5   -1.24    2.56
  12  -2  -5   -0.32    2.25
  -2 -12   5    0.84    2.08
  -2 -12   5    1.05    1.64
 -12   2  -5   -0.48    1.42
  12  -2  -6   71.57    5.41
 -12   2  -6   69.84    4.07
  -2 -12   6   80.86    5.73
 -12   2  -6   72.83    5.82
  -2 -12   6   75.77    4.52
 -12   2  -6   71.85    4.03
 -12   2  -7    3.81    1.66
  -2 -12   7    1.60    1.66
 -12   2  -7    0.09    1.58
  -2 -12   7   -1.80    1.73
  -2 -12   7   -0.22    1.31
  -2 -12  -7    0.96    1.26
  -2 -12   8    6.35    2.00
  -2 -12  -8    3.04    1.50
 -12   2  -8    5.04    1.82
  -2 -12   8    5.72    1.96
 -12   2  -8    7.34    1.95
  -2 -12   9   27.04    2.94
  -2 -12   9   29.93    2.65
 -12   2  -9   21.94    2.75
  -2 -12  -9   21.58    2.46
  -2 -12   9   35.53    2.94
 -12   2  -9   32.19    3.02
  -2 -12  10    6.97    1.67
  -2 -12 -10    6.02    1.69
 -12   2 -10    6.07    2.12
 -12   2 -10    6.32    2.08
  -2 -12  10    6.82    1.96
 -12   2 -11    6.30    1.97
  -2 -12  11    3.56    1.62
 -12   2 -12    0.08    1.60
 -12   2 -12    2.25    1.72
 -12   2 -13   -0.18    1.34
 -12   2 -13    2.72    1.42
  -2 -12  13   -0.83    1.02
 -12   2 -14    3.18    1.16
 -12   1   0    0.16    2.45
  -1 -12   0    0.12    1.65
 -12   1   0   -0.61    2.20
 -12   1  -1   14.84    2.92
 -12   1   1   14.74    2.80
  -1 -12   1   13.63    2.38
  -1 -12  -1   10.56    1.87
 -12   1  -1   19.77    2.87
 -12   1   1   13.02    2.54
 -12   1  -2    0.63    2.21
 -12   1   2    2.39    1.90
 -12   1   2   -0.15    2.24
  -1 -12   2    0.89    2.02
  -1 -12   2    3.38    1.79
 -12   1  -3  556.67   22.08
 -12   1   3  551.11   21.92
  -1 -12   3  530.76   22.26
 -12   1   3  530.72   21.93
  -1 -12   3  497.79   21.52
 -12   1  -3  553.66   22.69
 -12   1  -4   58.09    4.24
 -12   1   4   59.15    4.23
 -12   1  -4   53.15    4.82
  -1 -12   4   52.24    4.15
  -1 -12   4   57.92    4.73
  -1 -12   5    2.68    2.40
 -12   1  -5   -1.81    2.48
 -12   1  -5    3.00    1.39
 -12   1   5   -0.90    1.84
 -12   1  -5   -0.07    1.29
  -1 -12   5    0.66    2.13
 -12   1  -6    0.08    1.46
  -1 -12  -6   -0.48    1.18
 -12   1  -6    2.00    1.47
  -1 -12   6    1.48    2.42
  -1 -12   6    3.29    2.46
 -12   1  -6   -4.43    2.55
 -12   1  -7   32.14    2.77
  -1 -12   7   31.53    2.49
 -12   1  -7   35.12    2.87
  -1 -12   7   36.35    2.78
  -1 -12  -7   30.53    2.43
  -1 -12   8    9.65    2.15
  -1 -12   8    6.98    1.87
 -12   1  -8    7.63    1.94
  -1 -12  -8    9.21    1.67
  -1 -12   8    5.07    1.61
 -12   1  -8    7.71    1.97
 -12   1  -9    4.91    1.85
  -1 -12   9    5.09    1.94
 -12   1  -9    3.09    1.92
  -1 -12   9    7.06    2.03
  -1 -12  10    2.36    1.54
  -1 -12  10    5.80    1.87
  -1 -12  10    0.49    1.83
 -12   1 -10    5.24    1.97
  -1 -12  11    1.77    1.66
  -1 -12  11    2.26    2.00
 -12   1 -11   -0.71    1.96
 -12   1 -11    2.33    1.85
  -1 -12  12    1.12    1.41
 -12   1 -12    2.89    1.75
 -12   1 -12    5.15    1.81
  -1 -12  13    1.03    1.00
 -12   1 -13    1.24    1.43
  -1 -12  13    2.00    1.58
 -12   1 -13    1.20    1.36
 -12   1 -14    2.08    1.16
 -12   0   0  791.73   29.87
   0 -12   0  736.73   29.30
 -12   0   0  729.81   29.89
 -12   0  -1   58.79    4.07
 -12   0   1   50.97    3.94
   0 -12   1   50.95    3.79
 -12   0  -1   47.40    4.36
 -12   0   1   55.72    4.26
  12   0  -2  300.39   13.00
 -12   0  -2  306.93   13.18
 -12   0   2  302.38   13.14
   0 -12   2  317.21   13.41
 -12   0   2  298.86   13.22
   0 -12   2  283.69   12.64
  12   0  -3  255.44   11.06
 -12   0  -3  229.00   10.88
 -12   0   3  224.00   10.82
 -12   0  -3  264.69   11.68
   0 -12   3  239.98   10.87
 -12   0   3  231.79   10.93
   0 -12   3  263.12   11.65
  12   0  -4   23.62    3.09
 -12   0  -4   16.94    2.48
 -12   0   4   17.88    2.66
   0 -12   4   21.48    2.94
   0 -12   4   24.57    3.32
 -12   0  -4   17.94    3.19
   0 -12   5    4.63    2.89
 -12   0  -5    2.26    2.42
   0 -12   5    7.02    2.52
 -12   0   5    0.83    1.78
 -12   0  -5    5.05    1.48
  12   0  -5    4.18    2.39
 -12   0  -5    5.89    1.62
 -12   0  -6   44.53    3.02
 -12   0  -6   41.47    3.01
   0 -12  -6   38.74    2.68
  12   0  -6   43.68    4.30
   0 -12   6   42.28    4.24
 -12   0  -6   47.01    4.39
   0 -12   6   39.30    4.56
 -12   0  -7    3.31    1.58
   0 -12  -7    3.99    1.36
   0 -12   7    6.18    1.75
 -12   0  -7    3.45    1.63
   0 -12   7    4.32    1.45
   0 -12   8   31.68    3.18
   0 -12   8   39.26    2.93
   0 -12   8   34.13    2.66
   0 -12   8   38.37    3.24
 -12   0  -8   33.13    3.01
 -12   0  -9   22.86    2.72
   0 -12   9   26.36    2.99
   0 -12   9   24.97    2.31
   0 -12   9   28.46    2.80
   0 -12  10   18.08    2.62
   0 -12  10   21.43    2.60
 -12   0 -10   21.49    2.57
   0 -12  10   18.18    2.19
 -12   0 -11    3.16    1.83
 -12   0 -11   -0.40    1.74
   0 -12  11    1.71    1.58
   0 -12  11    1.68    1.91
 -12   0 -12    4.04    1.87
   0 -12  12    6.51    2.06
 -12   0 -12    3.26    1.58
 -12   0 -12    5.99    1.81
 -12   0 -13   -0.73    1.40
 -12   0 -13   -0.38    1.41
   0 -12  13   -1.26    1.50
 -12   0 -14   -0.89    1.18
   0 -12  14   -0.88    0.75
   0 -12  14    0.06    1.16
 -12  -1   0   -1.39    2.00
   1 -12   0    0.67    1.58
 -12  -1   0    0.31    2.22
   1 -12   1   49.34    3.73
 -12  -1  -1   54.31    3.94
 -12  -1   1   52.65    3.92
 -12  -1  -1   50.43    4.14
 -12  -1   1   53.43    4.15
 -12  -1   2  105.20    6.19
   1 -12   2  118.74    6.43
   1 -12   2  110.60    5.85
  12   1  -2  109.90    6.02
 -12  -1  -2  112.34    6.22
 -12  -1   2  115.96    6.10
   1 -12   3   19.92    3.01
 -12  -1  -3   20.31    3.21
  12   1  -3   19.65    2.77
   1 -12   3   19.12    2.69
 -12  -1  -3   20.70    2.61
 -12  -1   3   21.59    2.60
   1 -12   4   98.36    6.12
 -12  -1  -4   97.66    6.03
   1 -12   4   90.46    5.68
  12   1  -4   96.63    5.72
 -12  -1  -4   86.23    5.27
 -12  -1   4   86.37    5.31
  12   1  -5  195.86    9.23
 -12  -1   5  162.26    8.43
   1 -12   5  190.81    9.18
   1 -12   5  203.55    8.36
 -12  -1  -5  177.14    7.58
   1 -12  -5  156.87    7.35
 -12  -1  -5  163.42    9.16
   1 -12   6   26.89    3.62
   1 -12  -6   25.01    2.24
   1 -12   6   27.38    3.75
 -12  -1  -6   34.77    2.58
  12   1  -6   23.99    3.59
   1 -12  -7   52.29    3.42
   1 -12   7   62.17    4.13
 -12  -1  -7   59.93    3.77
   1 -12   7   55.42    3.36
   1 -12   7   66.29    3.70
   1 -12   8   14.99    2.11
   1 -12   8   11.57    2.27
   1 -12   8   12.70    2.36
   1 -12   8   16.03    2.29
   1 -12   8    9.32    1.69
   1 -12   9    5.12    1.90
   1 -12   9    4.29    1.80
   1 -12   9    3.13    1.93
 -12  -1  -9    4.47    1.52
   1 -12   9    3.42    1.38
   1 -12   9    0.24    1.90
   1 -12  10    1.25    1.75
 -12  -1 -10   -0.10    1.89
   1 -12  10    3.06    1.94
   1 -12  10    0.73    1.50
 -12  -1 -11   13.48    2.39
   1 -12  11   12.67    2.14
 -12  -1 -12    4.03    1.72
 -12  -1 -12    4.42    1.43
   1 -12  12    2.08    1.43
   1 -12  13    6.15    1.29
 -12  -2   0   50.32    3.98
 -12  -2   0   50.16    3.78
 -12  -2  -1   64.92    4.61
   2 -12   1   64.94    4.23
   2 -12   1   65.48    3.98
 -12  -2  -1   66.78    4.32
 -12  -2   1   65.38    4.27
   2 -12   2  151.34    7.53
   2 -12   2  145.33    7.14
  12   2  -2  153.85    7.32
 -12  -2  -2  134.00    7.17
 -12  -2   2  139.25    7.09
  12   2  -3    8.22    2.35
 -12  -2  -3   11.61    2.10
 -12  -2   3   12.00    2.21
   2 -12   3   14.56    2.46
 -12  -2  -3   10.36    2.55
   2 -12   4  117.70    6.64
  12   2  -4  117.59    6.53
 -12  -2  -4  113.74    6.23
 -12  -2   4  112.15    6.26
 -12  -2   5    8.61    2.14
  12   2  -5   11.75    2.70
   2 -12  -5   11.74    1.60
   2 -12   5   12.03    2.17
 -12  -2  -5    9.00    1.68
 -12  -2  -5   14.16    1.78
   2 -12   5    9.79    2.73
 -12  -2  -6   57.47    3.72
   2 -12  -6   57.99    3.40
   2 -12   6   60.73    4.06
 -12  -2  -6   70.44    3.74
  12   2  -6   59.25    5.00
   2 -12   6   64.20    5.16
   2 -12   7    2.19    1.78
 -12  -2  -7    2.57    1.60
   2 -12  -7    3.26    1.48
   2 -12   7    3.06    1.39
 -12  -2  -8    1.96    1.70
   2 -12   8    3.65    1.83
 -12  -2  -8    2.46    1.45
   2 -12   8    1.81    1.32
 -12  -2  -9    1.75    1.96
   2 -12   9    3.48    1.89
   2 -12   9    5.50    1.90
   2 -12   9    4.34    1.95
 -12  -2  -9    0.79    1.42
   2 -12   9    4.12    1.36
 -12  -2  -9    3.81    1.84
   2 -12  10    6.04    1.79
 -12  -2 -10   10.40    2.07
 -12  -2 -10    5.48    2.14
 -12  -2 -11    2.07    1.72
   2 -12  11    1.27    1.53
 -12  -2 -11    1.52    1.79
 -12  -2 -11    0.97    1.49
 -12  -2 -12    4.59    1.55
   2 -12  12    5.29    1.96
   2 -12  12    5.32    1.55
 -12  -2 -12    6.96    1.81
 -12  -2 -12    6.51    1.78
 -12  -2 -13    2.10    1.38
   2 -12  13    0.55    1.03
 -12  -2 -14    1.06    1.16
   2 -12  14    0.81    0.73
 -12  -3   0   -0.65    1.77
 -12  -3  -1  230.31   10.55
 -12  -3   1  235.65   10.60
   3 -12   1  239.80   10.39
   3 -12   1  241.02   10.56
   3 -12   2   29.78    2.93
 -12  -3  -2   25.46    2.76
 -12  -3   2   28.33    2.72
  12   3  -2   30.92    3.03
   3 -12   3  108.77    6.19
  12   3  -3  120.69    6.30
 -12  -3  -3  112.76    6.15
 -12  -3   3  112.10    6.10
   3 -12   4   95.90    5.96
  12   3  -4   97.46    5.84
 -12  -3  -4   93.54    5.63
 -12  -3   4   96.34    5.57
   3 -12  -5   46.79    2.78
  12   3  -5   39.68    4.22
   3 -12   5   49.91    4.38
 -12  -3   5   44.10    3.73
 -12  -3  -5   44.55    3.04
   3 -12   5   50.15    3.46
 -12  -3  -5   41.90    2.88
   3 -12   6   29.91    2.88
 -12  -3  -6   28.04    2.52
   3 -12  -6   24.09    2.26
  12   3  -6   27.69    3.54
   3 -12   6   28.92    3.75
 -12  -3  -7    0.09    1.62
   3 -12  -7   -0.28    1.43
   3 -12   7    0.30    1.63
   3 -12   7    0.91    1.21
 -12  -3  -7    1.67    1.38
 -12  -3  -8   12.98    2.15
   3 -12   8   12.01    2.14
   3 -12   8   12.03    2.16
   3 -12   8    7.84    1.46
 -12  -3  -8   12.63    2.11
 -12  -3  -8    8.68    1.69
 -12  -3  -9   14.78    2.39
   3 -12   9   14.78    2.42
   3 -12   9   11.08    1.69
   3 -12   9   19.38    2.36
 -12  -3  -9   16.77    2.40
 -12  -3 -10    2.08    1.61
   3 -12  10   -0.09    1.83
 -12  -3 -10    3.43    1.84
   3 -12  10    1.36    1.51
 -12  -3 -10    4.62    1.90
 -12  -3 -11    2.86    1.61
   3 -12  11    4.31    1.77
   3 -12  11    2.74    1.89
 -12  -3 -11    6.69    1.87
   3 -12  11    2.53    1.36
 -12  -3 -11    3.80    1.85
 -12  -3 -12    1.44    1.54
   3 -12  12    1.26    1.39
 -12  -3 -12    1.43    1.36
 -12  -3 -13    0.75    1.37
  12   3 -14    0.37    1.11
   3 -12  14   -0.06    0.77
 -12  -4   0  137.87    6.96
 -12  -4  -1   10.71    2.14
 -12  -4   1   10.63    2.17
   4 -12   1   12.93    2.21
 -12  -4  -2  139.94    7.37
 -12  -4   2  146.94    7.33
  12   4  -2  158.60    7.46
   4 -12   2  142.40    7.37
 -12  -4  -3   42.10    3.51
 -12  -4   3   42.72    3.52
  12   4  -3   45.54    3.62
   4 -12   3   43.71    3.76
  12   4  -4   58.50    4.48
 -12  -4   4   54.53    4.11
 -12  -4  -4   62.17    4.45
   4 -12   4   60.57    4.57
   4 -12   5    0.92    2.38
 -12  -4  -5    2.87    1.50
 -12  -4   5    1.94    1.69
   4 -12  -5    1.24    1.33
  12   4  -5    1.60    2.32
 -12  -4  -6   16.19    2.11
  12   4  -6   14.61    2.93
   4 -12  -6   13.37    1.94
   4 -12   6   18.60    2.37
   4 -12   6   15.01    3.30
 -12  -4  -7    4.44    1.58
   4 -12  -7    8.11    1.70
   4 -12   7    7.89    2.00
   4 -12   7    9.13    1.56
 -12  -4  -7    7.89    1.83
 -12  -4  -7    7.14    1.85
 -12  -4  -8    3.82    1.46
   4 -12   8    2.92    1.71
 -12  -4  -8    3.28    1.74
   4 -12   8    0.25    1.22
   4 -12   8    4.04    1.82
 -12  -4  -8    3.35    1.82
 -12  -4  -9   14.78    2.37
   4 -12   9    7.74    2.07
 -12  -4  -9   17.74    2.32
   4 -12   9   13.53    2.24
 -12  -4  -9    9.18    2.12
   4 -12  10    8.41    2.11
   4 -12  10   10.00    1.90
 -12  -4 -10    9.38    1.84
 -12  -4 -10    4.15    1.98
 -12  -4 -11    1.65    1.42
 -12  -4 -11    4.23    1.72
   4 -12  11    0.77    1.25
   4 -12  11    0.16    1.61
   4 -12  12   -1.75    1.51
 -12  -4 -12    2.53    1.25
   4 -12  12   -1.01    1.41
 -12  -4 -12    3.55    1.62
   4 -12  13    4.08    1.19
 -12  -4 -13    2.47    1.42
 -12  -5   0    3.87    1.76
 -12  -5  -1  148.31    7.58
 -12  -5   1  155.51    7.68
  12   5  -1  156.34    7.62
 -12  -5  -2   29.94    3.09
 -12  -5   2   27.36    2.92
  12   5  -2   36.63    3.18
   5 -12   2   30.21    3.26
 -12  -5  -3  133.77    7.23
 -12  -5   3  133.92    7.14
   5 -12   3  144.00    7.47
  12   5  -3  132.67    7.01
 -12  -5  -4   30.00    3.18
 -12  -5   4   24.72    2.87
 -12  -5  -4   23.12    2.17
  12   5  -4   26.92    3.24
   5 -12   4   28.73    3.59
 -12  -5   5   43.34    3.85
 -12  -5  -5   49.00    3.16
   5 -12   5   43.24    4.36
  12   5  -5   47.38    4.13
   5 -12   6   10.62    2.98
 -12  -5  -6    9.57    1.82
  12   5  -6    8.86    2.55
   5 -12  -7    4.35    1.66
 -12  -5  -7    4.94    1.42
 -12  -5  -7    4.14    1.60
 -12  -5   7    3.75    1.45
 -12  -5  -7    2.51    1.71
 -12  -5  -8    3.27    1.42
   5 -12   8    4.38    1.32
 -12  -5  -8    2.46    1.85
 -12  -5  -8    5.55    1.71
 -12  -5  -9   11.69    2.07
 -12  -5  -9   17.67    2.42
   5 -12   9   17.64    2.34
 -12  -5 -10    2.48    1.54
   5 -12  10    2.78    1.63
 -12  -5 -10    2.06    1.79
 -12  -5 -11    2.82    1.72
 -12  -5 -11    2.65    1.47
   5 -12  11    3.45    1.61
   5 -12  11    2.21    1.38
   5 -12  11    2.78    1.66
   5 -12  12    1.68    1.45
 -12  -5 -12    0.55    1.58
 -12  -5 -12    2.96    1.30
   5 -12  13    2.21    1.18
 -12  -5 -13   -0.55    1.43
 -12  -6   0  226.01   10.48
  12   6  -1   21.24    2.66
 -12  -6  -1   17.72    2.39
 -12  -6   1   16.88    2.51
  12   6  -2   39.48    3.43
 -12  -6  -2   45.23    3.67
 -12  -6   2   41.77    3.47
   6 -12   3   11.12    2.80
  12   6  -3   10.96    2.27
 -12  -6  -3    8.56    2.23
 -12  -6   3   11.05    2.25
   6 -12  -3    6.29    1.39
 -12  -6  -4  119.65    6.58
 -12  -6   4  110.57    6.45
   6 -12   4  125.24    7.22
 -12  -6  -4  110.80    5.33
  12   6  -4  110.96    6.46
   6 -12  -4  106.05    5.15
 -12  -6  -5   98.60    4.96
   6 -12  -5   94.39    4.76
   6 -12   5  109.44    6.78
  12   6  -5   98.50    6.23
  12   6  -6    1.62    2.28
 -12  -6  -6    1.92    1.49
 -12  -6  -6    0.34    1.31
 -12  -6  -6    3.58    1.56
 -12  -6   6    0.22    1.51
 -12  -6  -7    4.03    1.62
 -12  -6   7    1.78    1.49
 -12  -6  -7    2.40    1.42
 -12  -6   8   18.76    2.12
   6 -12   8   18.25    2.25
 -12  -6  -8   19.35    2.07
 -12  -6  -8   19.95    2.52
 -12  -6  -8   13.70    2.13
   6 -12   8   15.23    1.81
 -12  -6  -9   -1.19    1.43
 -12  -6  -9    0.73    1.82
   6 -12   9    4.55    1.84
 -12  -6 -10    3.65    1.57
 -12  -6 -10    4.11    1.97
   6 -12  10    8.43    1.83
 -12  -6 -11    0.99    1.68
 -12  -6 -11    1.08    1.42
   6 -12  11    1.41    1.72
   6 -12  11    0.06    1.30
   6 -12  12    9.23    1.83
 -12  -6 -12    7.68    1.90
 -12  -6 -12   10.80    1.63
   6 -12  13    1.50    1.19
 -12  -7   0   -0.47    1.81
  12   7  -1   21.69    2.57
 -12  -7  -1   16.48    2.50
 -12  -7   1   14.83    2.44
 -12  -7   1   22.45    4.59
 -12  -7  -1   11.02    4.45
 -12  -7  -2   23.18    2.98
 -12  -7  -2   16.01    4.96
 -12  -7   2   22.43    5.27
 -12  -7   2   25.03    2.89
  12   7  -2   27.56    2.84
 -12  -7   3   99.88    6.49
 -12  -7  -3   88.81    6.03
 -12  -7  -3  110.84    6.08
 -12  -7   3   99.87    5.83
   7 -12  -3   92.41    4.54
  12   7  -3  102.35    5.73
  12   7  -4   85.26    5.38
 -12  -7  -4   81.90    5.03
 -12  -7   4   85.05    5.66
 -12  -7  -4   79.81    4.27
 -12  -7  -4   93.25    5.81
 -12  -7   4   82.50    5.32
   7 -12   4   97.54    6.26
   7 -12  -4   75.73    4.12
 -12  -7  -5  162.48    7.54
   7 -12  -5  168.69    7.51
   7 -12   5  187.43    9.96
 -12  -7  -6   69.75    4.00
   7 -12  -6   69.00    3.93
 -12  -7   6   61.19    3.88
 -12  -7  -6   62.14    3.66
 -12  -7  -6   69.03    3.85
 -12  -7   6   62.20    3.60
 -12  -7  -7    0.94    1.60
 -12  -7   7    2.12    1.49
   7 -12  -7    4.90    1.63
 -12  -7  -7    2.25    1.64
 -12  -7  -7    0.72    1.32
 -12  -7  -8   -0.08    1.52
 -12  -7   8   -0.22    1.49
 -12  -7  -8    1.15    1.44
 -12  -7  -8    1.68    1.72
 -12  -7   9   28.69    2.50
 -12  -7  -9   26.76    2.91
 -12  -7  -9   27.98    2.56
   7 -12  10    6.10    1.91
 -12  -7 -10    4.10    1.99
 -12  -7 -10    5.40    1.80
   7 -12  11    7.39    1.67
 -12  -7 -11   10.16    1.90
 -12  -7 -11   11.05    1.77
   7 -12  12   -0.24    1.42
 -12  -7 -12   -1.09    1.14
   7 -12  13    1.28    1.07
  -7  12 -13    0.56    1.18
 -12  -8   0    1.14    1.95
 -12  -8  -1    0.83    1.76
 -12  -8   1    1.63    1.77
 -12  -8   1    2.91    4.21
 -12  -8  -1   -0.19    4.15
 -12  -8  -2   14.29    2.46
 -12  -8   2   13.39    2.42
 -12  -8  -2   14.92    4.62
 -12  -8   2   11.18    4.63
   8 -12  -3   -0.27    1.24
 -12  -8  -3    0.18    1.93
 -12  -8   3    0.34    1.67
 -12  -8  -3   -2.12    5.00
 -12  -8   3    0.55    5.34
 -12  -8  -4   34.84    4.78
 -12  -8  -4   40.30    3.88
 -12  -8   4   32.10    3.45
   8 -12   4   40.76    4.55
 -12  -8   4   45.19    5.71
   8 -12  -4   35.44    2.51
 -12  -8   5   86.54    4.43
 -12  -8   5   83.67    4.29
   8 -12  -5   81.79    4.35
 -12  -8  -6  111.31    6.00
 -12  -8  -6  129.81    6.08
 -12  -8   6  131.28    6.08
 -12  -8   6  129.78    5.87
 -12  -8  -6  122.59    5.90
   8 -12  -6  125.77    6.13
   8 -12  -7   51.64    3.51
 -12  -8  -7   55.07    3.56
 -12  -8  -7   50.80    3.26
 -12  -8   7   49.98    3.37
 -12  -8  -7   49.25    3.53
 -12  -8  -8   25.98    2.64
 -12  -8   8   29.98    2.51
 -12  -8  -8   28.74    2.78
 -12  -8  -8   28.74    2.57
 -12  -8  -9   18.83    2.18
 -12  -8  -9   15.13    2.32
 -12  -8   9   16.88    2.06
   8 -12  10   10.73    2.07
 -12  -8 -10   13.07    1.89
 -12  -8 -10    9.75    2.08
 -12  -8  10   10.52    1.66
 -12  -8 -11    4.92    1.50
   8 -12  11    8.46    1.56
  -8  12 -12    7.73    1.60
   8 -12  12    5.63    1.58
 -12  -8 -12    6.79    1.62
   8 -12  13    3.98    1.14
  -8  12 -13    2.33    1.13
 -12  -9   0    1.88    2.07
 -12  -9  -1   54.19    4.71
 -12  -9   1   55.35    4.65
 -12  -9  -1   55.63    4.31
 -12  -9   1   55.21    4.25
 -12  -9  -2   17.96    2.80
 -12  -9   2   15.80    2.75
 -12  -9   2   15.60    4.43
 -12  -9  -2   19.71    4.44
   9 -12  -2   15.25    1.78
 -12  -9  -3   10.50    2.60
 -12  -9   3    8.91    2.35
   9 -12  -3   12.81    1.70
 -12  -9   3   17.29    4.96
 -12  -9  -3   11.99    4.83
 -12  -9  -4   12.98    1.72
 -12  -9  -4   14.35    5.01
 -12  -9   4   15.35    5.36
 -12  -9   4   14.96    2.02
 -12  -9  -4   13.16    1.82
 -12  -9   4   14.42    1.97
 -12  -9  -4   12.78    2.70
 -12  -9   4   14.64    2.67
   9 -12  -4   13.99    1.78
 -12  -9  -4   12.75    1.74
 -12  -9  -5    1.56    1.38
 -12  -9   5   -4.34    4.54
 -12  -9  -5    0.92    1.33
 -12  -9   5    0.07    1.71
   9 -12  -5    2.03    1.48
 -12  -9   5    1.46    1.53
   9 -12  -6   66.90    4.08
 -12  -9   6   70.86    3.89
 -12  -9  -6   70.23    3.90
 -12  -9   6   70.68    4.03
 -12  -9  -6   70.21    4.12
 -12  -9  -6   65.19    4.05
 -12  -9   7  120.12    6.08
 -12  -9  -7  123.63    5.90
 -12  -9  -7  122.05    6.03
 -12  -9   7  128.51    5.90
 -12  -9  -8    1.07    1.48
 -12  -9  -8    2.11    1.59
 -12  -9   8   -0.68    1.55
 -12  -9  -9    9.04    1.91
 -12  -9   9    9.81    1.75
 -12  -9 -10    2.96    1.68
 -12  -9 -10    2.10    1.39
   9 -12  10    6.67    1.77
 -12  -9  10    4.55    1.42
 -12  -9 -11   -1.21    1.51
   9 -12  11    2.93    1.35
 -12  -9 -11    2.05    1.24
  -9  12 -11    3.83    1.50
   9 -12  12    2.35    1.32
  -9  12 -12    2.08    1.21
   9 -12  13    2.22    0.98
 -12 -10   0   26.47    3.16
  10 -12  -1   13.00    1.71
 -12 -10  -1   13.41    2.58
 -12 -10   1   10.68    2.42
 -12 -10   1    8.30    3.34
 -12 -10  -1   11.07    3.46
 -12 -10   2  112.50    5.28
 -12 -10  -2  111.22    6.60
 -12 -10   2  101.36    6.38
 -12 -10   2  118.40    6.17
 -12 -10  -2  111.07    6.38
  10 -12  -2  108.03    5.10
 -12 -10  -3    6.06    1.49
 -12 -10   3    9.82    4.74
 -12 -10  -3    9.15    4.93
 -12 -10   3    4.16    1.62
 -12 -10  -3    8.13    1.49
  10 -12  -3    8.82    1.67
 -12 -10  -3    5.57    5.30
 -12 -10   3   11.90    1.99
 -12 -10  -3    7.60    1.51
 -12 -10   4   20.67    5.70
 -12 -10  -4   18.30    5.55
  10 -12  -4   17.85    2.09
 -12 -10   4   17.76    2.26
 -12 -10  -4   19.91    2.01
 -12 -10  -4   18.71    2.07
 -12 -10  -4   17.62    1.91
 -12 -10   5   56.76    3.55
 -12 -10   5   57.56    3.53
 -12 -10  -5   55.60    3.42
 -12 -10   5   62.98    6.09
 -12 -10  -5   57.86    3.55
  10 -12  -5   56.65    3.51
  10 -12  -6    3.11    1.66
 -12 -10  -6    4.96    1.55
 -12 -10   6    2.84    1.68
 -12 -10   6    6.13    1.71
 -12 -10  -6    6.83    1.72
 -12 -10  -6    4.40    1.66
 -12 -10   7   61.77    3.68
 -12 -10  -7   57.93    3.43
 -12 -10  -7   53.80    3.67
 -12 -10  -7   52.80    3.72
 -12 -10   7   55.09    3.42
 -12 -10   8   66.10    3.83
 -12 -10  -8   60.12    3.67
 -12 -10  -8   55.57    3.99
 -12 -10   8   64.62    3.60
 -12 -10  -8   64.01    3.91
 -12 -10  -9    4.11    1.71
 -12 -10   9    5.40    1.52
 -12 -10  -9    3.29    1.54
 -10  12 -10    6.12    1.59
 -12 -10 -10    0.82    1.34
  10 -12  10    2.64    1.59
 -12 -10 -10    1.22    1.53
 -12 -10  10    2.95    1.32
 -10  12 -11    0.52    1.33
  10 -12  11    0.05    1.29
 -12 -10  11   -1.11    1.07
 -12 -10 -11    1.36    1.19
 -12 -10 -11    0.51    1.36
  10 -12  12   -0.10    1.25
 -12 -11   0    1.19    1.79
 -12 -11   0   -0.82    1.42
 -12 -11   0    0.42    1.39
 -12 -11   0    0.45    1.21
 -12 -11  -1   18.60    1.87
 -12 -11   1   17.09    1.88
 -12 -11   1   16.44    3.21
 -12 -11  -1   15.74    3.27
 -12 -11   1   19.50    2.11
 -12 -11  -1   15.92    2.89
 -12 -11   1   18.71    1.99
 -12 -11  -1   16.05    1.80
 -12 -11  -1   14.79    1.86
  11 -12  -1   14.64    1.80
 -12 -11  -2    1.66    1.29
 -12 -11   2    3.24    3.40
 -12 -11  -2    0.50    3.64
  11 -12  -2    0.57    1.33
 -12 -11  -2   -0.13    5.13
 -12 -11  -2   -0.14    1.30
 -12 -11   2    0.74    1.39
 -12 -11   2    0.23    1.40
 -12 -11  -3   31.32    2.43
 -12 -11   3   37.12    4.82
 -12 -11  -3   27.64    5.05
  11 -12  -3   32.74    2.48
 -12 -11   3   29.84    2.56
 -12 -11  -3   38.69    5.80
 -12 -11  -3   28.09    2.45
 -12 -11   3   31.99    2.36
 -12 -11  -3   31.19    2.39
 -12 -11   3   36.26    2.65
 -12 -11  -4    5.35    1.48
  11 -12  -4    5.96    1.70
 -12 -11   4    3.08    1.71
 -12 -11  -4   10.51    5.54
 -12 -11   4   13.49    5.39
 -12 -11  -4    3.46    1.54
 -12 -11  -4    3.16    1.46
 -12 -11  -5   -1.03    1.50
  11 -12  -5    0.91    1.54
 -12 -11   5    0.68    1.58
 -12 -11  -5    1.82    1.40
 -12 -11   5    0.77    1.68
  11 -12  -6    1.38    1.58
 -12 -11  -6    0.44    1.33
 -12 -11   6    0.79    1.70
 -12 -11  -6    3.15    1.60
 -12 -11   6   -0.42    1.66
 -12 -11  -6   -0.57    1.56
 -12 -11  -7   20.66    2.24
 -12 -11   7   26.06    2.47
 -12 -11   7   28.12    2.36
 -12 -11  -7   25.41    2.47
 -12 -11  -7   25.68    2.34
 -12 -11  -8    4.26    1.59
 -12 -11   8    5.75    1.61
 -12 -11  -8    2.72    1.65
 -12 -11   8    1.69    1.58
 -12 -11  -8    1.35    1.44
 -12 -11  -9    2.03    1.35
 -12 -11   9   -1.03    1.43
 -12 -11  -9   -1.02    1.44
 -11  12  -9    1.44    1.45
 -11  12 -10    1.62    1.38
  11 -12  10    3.00    1.56
 -12 -11 -10    1.22    1.28
 -12 -11  10   -1.04    1.25
 -12 -11 -10    0.49    1.39
 -12 -11  11    2.00    1.03
  11 -12  11    2.49    1.25
 -12 -11 -11    1.82    1.04
  11 -12  12    0.92    1.19
 -12 -12   0   12.08    1.77
 -12 -12   0   13.37    1.68
 -12 -12   0    7.56    2.11
 -12 -12   0   10.86    1.81
 -12 -12   0    8.73    2.81
 -12 -12   1   13.28    3.09
 -12 -12  -1   12.24    3.18
 -12 -12   1   15.70    1.68
 -12 -12  -1   14.80    1.76
 -12 -12  -1   13.27    3.02
 -12 -12   1   13.52    2.02
 -12 -12  -1   16.08    1.70
 -12 -12   1   13.97    1.89
 -12 -12  -1   14.41    1.89
 -12 -12  -1   14.41    1.86
 -12 -12   1   15.19    1.90
 -12 -12   2   -0.28    1.36
 -12 -12  -2    2.62    3.38
 -12 -12   2    3.72    3.22
  12 -12  -2    3.41    1.36
 -12 -12  -2    2.83    5.36
 -12 -12  -2    1.45    1.23
 -12 -12   2    1.71    1.63
 -12 -12  -2    0.21    1.42
 -12 -12  -3   15.73    1.93
 -12 -12  -3   17.73    1.94
 -12 -12   3   20.33    4.40
 -12 -12  -3   17.84    4.46
  12 -12  -3   17.40    1.86
 -12 -12  -3   14.22    5.95
 -12 -12   3   20.91    2.18
 -12 -12  -3   17.82    1.94
 -12 -12   3   16.45    1.86
 -12 -12   3   16.85    2.11
 -12 -12  -4    2.32    5.22
 -12 -12   4    1.56    5.53
  12 -12  -4    1.91    1.46
 -12 -12   4    3.23    1.77
 -12 -12  -4    1.78    1.38
 -12 -12  -4    0.73    1.36
 -12 -12   4    2.40    1.69
 -12 -12  -4    1.93    1.42
  12 -12  -5   -0.30    1.52
 -12 -12   5   10.13    5.75
 -12 -12  -5    8.00    5.11
 -12 -12   5    2.30    1.68
 -12 -12  -5    1.02    1.38
 -12 -12  -5    2.47    1.48
 -12 -12   6    1.76    1.68
 -12 -12   6    1.38    1.63
 -12 -12  -6    0.15    1.34
 -12 -12  -6    0.36    1.30
 -12 -12  -7   14.03    1.89
 -12 -12   7   18.14    2.09
 -12 -12  -7   12.00    1.95
 -12 -12   7   15.98    2.19
 -12 -12  -7   14.50    1.97
 -12 -12  -8    5.57    1.47
 -12 -12   8    6.55    1.62
 -12 -12  -8    7.39    1.70
 -12 -12  -8    5.14    1.63
 -12 -12   8    6.24    1.71
 -12 -12   9    1.67    1.44
 -12 -12  -9    0.88    1.22
  12 -12  10    0.34    1.46
 -12 -12 -10   -0.42    1.15
 -12  12 -10    0.44    1.22
 -12 -12  10   -2.04    1.29
  12 -12  11    0.34    1.19
 -12 -12 -11    1.14    0.94
 -12  12 -11    0.79    1.04
 -12 -12  11    2.15    1.02
  12 -12  12    2.95    1.14
 -12 -13   0    1.30    2.77
 -12 -13   0    1.01    1.17
 -12 -13   0    2.24    1.96
 -12 -13   0    1.30    1.46
 -12 -13   0    1.32    1.47
 -12 -13   0   -0.55    1.27
 -12 -13   1    4.17    2.81
 -12 -13  -1    4.20    2.95
 -12 -13   1    2.49    1.60
 -12 -13  -1    0.82    1.54
 -12 -13  -1    1.92    3.20
 -12 -13   1    2.29    1.78
 -12 -13  -1    2.58    1.33
 -12 -13   1    2.28    1.31
 -12 -13  -1    3.10    1.37
 -12 -13   1    2.91    1.47
 -12 -13  -1    1.11    1.43
 -12 -13   2   -0.16    1.53
 -12 -13   2    0.95    1.74
 -12 -13  -2   -0.06    5.72
 -12 -13  -2    0.22    1.37
 -12 -13  -2    0.43    1.33
 -12 -13   2    4.36    3.46
 -12 -13  -2    2.51    3.58
 -12 -13   2    0.14    1.41
 -12 -13   3    3.01    1.63
 -12 -13   3    2.16    4.35
 -12 -13  -3    1.37    4.52
 -12 -13  -3    1.90    1.38
 -12 -13  -3    2.04    1.47
 -12 -13  -3    0.29    1.32
 -12 -13   3    1.27    1.40
 -12 -13  -4   -1.16    1.39
  13 -12  -4    1.20    1.40
 -12 -13   4    0.08    1.79
 -12 -13   4    1.56    1.67
 -12 -13  -4    3.33    5.59
 -12 -13   4    2.14    5.40
 -12 -13  -4   -0.31    1.37
 -12 -13  -4    0.52    1.43
 -12 -13   5   10.27    1.92
 -12 -13   5    6.97    1.96
 -12 -13   5   10.17    5.63
 -12 -13  -5   12.59    5.38
 -12 -13  -5    7.93    1.68
 -12 -13  -5    7.59    1.67
 -12 -13  -6    9.36    1.61
 -12 -13  -6    6.68    1.57
 -12 -13  -6    9.05    1.70
 -12 -13   6   12.01    2.02
 -12 -13  -7    0.42    1.42
 -12 -13   7    1.80    1.66
 -12 -13  -7    1.89    1.37
 -12 -13  -7    1.84    1.38
 -12 -13   7    0.47    1.59
 -12 -13   8   -0.67    1.56
 -12 -13  -8    2.14    1.37
 -12 -13  -8   -0.07    1.40
 -12 -13   8    1.82    1.46
 -12 -13   9    9.88    1.71
 -12 -13  -9    6.27    1.61
 -12 -13  -9    9.24    1.53
  13 -12  10    2.05    1.36
 -12 -13 -10    0.74    1.05
 -12 -13  10    1.89    1.19
 -12 -13 -10    0.50    1.15
 -12 -13 -11    1.05    0.77
  13 -12  11   -0.41    1.10
 -12 -13  11    0.71    0.89
 -11 -13   0  138.18    6.35
 -11 -13   0  136.91    6.33
 -11 -13   0  153.33    6.44
 -11 -13   0  143.32    6.32
 -11 -13   0  141.54    6.51
 -11 -13   0  143.07    6.27
 -11 -13   1   45.70    2.93
 -11 -13  -1   43.20    2.80
 -11 -13   1   43.04    2.64
 -11 -13   1   39.85    2.75
 -11 -13  -1   41.67    2.98
 -11 -13   1   44.43    3.03
 -11 -13  -1   45.57    2.78
 -11 -13  -1   41.98    3.02
 -11 -13   1   43.22    3.00
 -11 -13  -2   78.36    4.05
 -11 -13   2   77.50    4.07
 -11 -13  -2   74.67    4.01
 -11 -13   2   74.97    4.11
 -11 -13  -2   67.10    5.23
 -11 -13   2   83.98    4.28
 -11 -13  -2   76.49    4.09
 -11 -13  -2   80.26    4.25
 -11 -13   2   76.27    4.18
 -11 -13  -3   38.48    2.76
 -11 -13   3   39.36    2.72
 -11 -13   3   43.91    2.97
 -11 -13  -3   41.60    2.82
 -11 -13   3   38.43    3.28
 -11 -13  -3   40.09    3.33
 -11 -13  -3   39.53    2.69
 -11 -13   4    8.90    3.47
 -11 -13  -4    2.63    3.42
  13 -11  -4    1.80    1.33
 -11 -13  -4    4.09    1.39
 -11 -13   4    2.43    1.42
 -11 -13  -4    3.23    1.49
 -11 -13   4    3.47    1.83
 -11 -13   4    4.27    1.79
 -11 -13  -5   13.72    1.81
 -11 -13  -5   10.54    1.84
 -11 -13  -5   12.26    1.84
 -11 -13  -5   13.28    4.89
 -11 -13   5   17.97    5.08
 -11 -13   5   14.50    2.13
 -11 -13   5   11.04    1.99
 -11 -13  -6    3.03    1.45
 -11 -13  -6    2.79    1.49
 -11 -13   6    4.36    1.81
 -11 -13  -6    0.08    1.44
 -11 -13  -7   10.20    1.77
 -11 -13   7   11.10    2.05
 -11 -13  -7   10.73    1.66
 -11 -13  -7    9.13    1.77
 -11 -13   7   11.67    1.95
 -11 -13   8    3.97    1.69
 -11 -13  -8    0.61    1.44
 -11 -13   8    3.33    1.50
 -11 -13  -8    0.21    1.37
 -11 -13   9   -0.32    1.32
 -11 -13   9    1.26    1.42
 -11 -13  -9   -1.12    1.25
 -11 -13  10    0.35    1.32
 -11 -13 -10    3.19    1.20
 -13  11 -10    0.94    1.21
 -11 -13  11   -0.68    0.99
 -13  11 -11   -0.53    1.00
  13 -11  11    1.95    1.19
 -11 -13 -11    1.11    1.03
  13 -11  12    1.94    1.04
 -11 -13 -12    0.38    0.84
 -10 -13   0    0.67    1.26
 -10 -13   0   -1.53    1.39
 -10 -13   0   -0.07    1.56
 -10 -13   0    0.55    1.32
 -10 -13   0    1.94    1.56
 -10 -13   0    0.66    1.45
 -10 -13   1  236.63   10.01
 -10 -13  -1  221.72    9.85
 -10 -13   1  236.40    9.95
 -10 -13  -1  249.39   10.01
 -10 -13   1  248.96    9.91
 -10 -13  -1  250.22    9.98
 -10 -13   1  262.27   10.13
 -10 -13  -1  243.05   10.02
 -10 -13   1  239.05    9.97
 -10 -13   1  229.48    9.78
 -10 -13  -2  156.31    7.19
 -10 -13   2  169.08    7.06
 -10 -13   2  170.38    7.29
 -10 -13  -2  164.81    7.20
 -10 -13   2  174.48    7.25
 -10 -13  -2  141.41    7.10
 -10 -13   2  166.37    7.33
 -10 -13  -2  174.02    7.31
 -10 -13  -2  164.33    7.20
 -10 -13   2  162.78    7.11
 -10 -13  -3   11.91    1.78
 -10 -13  -3   15.24    1.98
 -10 -13  -3   18.48    2.02
 -10 -13  -3   17.95    1.88
 -10 -13   3   16.09    1.92
 -10 -13   3   14.79    2.13
 -10 -13   3   16.71    1.92
 -10 -13   4   96.43    4.75
 -10 -13  -4   94.47    4.73
 -10 -13  -4   91.69    4.68
 -10 -13   4   83.67    4.61
 -10 -13  -4   92.80    4.80
 -10 -13   4   98.91    5.00
 -10 -13   4  103.87    4.91
 -10 -13   5    9.51    2.98
 -10 -13  -5   10.90    1.83
 -10 -13   5   14.23    2.17
 -10 -13  -5    9.30    1.88
 -10 -13  -5   12.71    1.86
 -10 -13   5   12.88    2.15
 -10 -13  -6    1.74    1.46
 -10 -13   6    0.47    1.72
 -10 -13  -6    3.04    1.49
 -10 -13   7   -1.64    1.63
 -10 -13   7    0.98    1.61
 -10 -13  -7    0.22    1.39
 -10 -13  -7   -1.33    1.48
 -10 -13   8   14.97    2.12
 -10 -13  -8   14.85    1.91
 -10 -13   8   17.63    2.02
 -13  10  -8   11.98    1.81
 -10 -13   9    1.35    1.54
 -10 -13   9    0.23    1.35
 -13  10  -9    0.07    1.40
 -10 -13  -9    0.40    1.31
 -10 -13  10   -1.14    1.40
 -10 -13 -10    0.06    1.20
 -10 -13 -10    0.58    1.28
 -13  10 -10   -0.81    1.29
 -10 -13 -11    3.14    1.22
  13 -10  11    3.48    1.35
 -13  10 -11    2.71    1.21
 -10 -13  11    1.02    1.20
 -10 -13 -12    0.59    0.88
 -10 -13  12    0.06    0.79
  -9 -13   0  120.16    5.45
  -9 -13   0  112.69    6.75
  -9 -13   1  177.33    7.61
  -9 -13  -1  180.93    7.68
  -9 -13  -1  178.23    9.20
  -9 -13   1  171.76    9.06
  -9 -13  -2  522.03   20.23
  -9 -13   2  539.50   20.32
  -9 -13   2  501.17   20.26
  -9 -13   2  511.62   20.30
  -9 -13  -2  539.56   20.27
  -9 -13  -2  529.64   20.30
  -9 -13   2  505.31   20.13
  -9 -13  -2  518.07   20.23
  -9 -13   3  215.01    9.10
  -9 -13  -3  218.18    9.08
  -9 -13  -3  216.47    9.12
  -9 -13   3  212.18    9.01
  -9 -13  -3  222.40    9.22
  -9 -13   3  222.72    9.32
  -9 -13  -4   61.99    3.55
  -9 -13   4   58.38    3.50
  -9 -13   4   68.97    3.91
  -9 -13   4   70.22    3.80
  -9 -13  -4   62.35    3.57
  -9 -13  -4   57.67    3.64
  -9 -13   4   55.80    3.35
  -9 -13  -4   65.93    3.52
  -9 -13  -5   44.14    2.88
  -9 -13  -5   39.47    2.86
  -9 -13   5   44.69    3.23
  -9 -13   5   45.43    3.05
  -9 -13   5   36.37    2.70
  -9 -13  -5   40.80    2.92
  -9 -13  -6    2.62    1.49
  -9 -13  -6   -0.07    1.46
  -9 -13   6    3.72    1.85
  -9 -13   7    1.45    1.60
  -9 -13   7    1.90    1.78
  -9 -13  -7   -1.65    1.46
  -9 -13   8   -0.07    1.62
  -9 -13  -8   -0.49    1.40
  -9 -13   8    1.04    1.64
  -9 -13  -8    1.57    1.52
  -9 -13   9   12.68    2.02
  -9 -13   9   14.71    1.86
 -13   9  -9   11.37    1.85
  -9 -13  -9    9.88    1.87
  -9 -13  -9   11.10    1.81
  -9 -13  10    1.24    1.48
 -13   9 -10    5.90    1.55
  -9 -13 -10    3.14    1.38
  -9 -13  11    1.14    1.22
  -9 -13  11    0.93    1.12
  -9 -13 -11    0.63    1.17
 -13   9 -11    0.35    1.28
  -9 -13 -12    0.26    1.01
  -9 -13  12    1.56    0.92
 -13   9 -12    0.32    1.05
  -8 -13   0    1.05    1.42
  -8 -13   0    0.52    1.84
  -8 -13  -1   80.67    5.35
  -8 -13   1   87.54    5.46
  -8 -13   1   77.87    4.08
  -8 -13  -1   84.65    4.17
  -8 -13   2  111.31    5.24
  -8 -13  -2  111.14    5.32
  -8 -13  -2  114.44    6.91
  -8 -13   2  131.53    6.93
  -8 -13   2  126.64    7.32
  -8 -13  -3  623.07   25.11
  -8 -13   3  613.28   24.79
  -8 -13  -3  553.30   22.87
  -8 -13   3  641.86   25.42
  -8 -13   3  575.60   22.80
  -8 -13  -3  624.41   22.94
  -8 -13  -3  598.35   23.06
  -8 -13   3  596.86   23.10
  -8 -13   4  151.19    6.83
  -8 -13  -4  148.19    6.78
  -8 -13   4  150.36    7.09
  -8 -13   4  165.21    7.22
  -8 -13   4  158.89    6.72
  -8 -13  -4  163.88    6.85
  -8 -13  -4  150.70    7.06
  -8 -13  -4  153.87    6.86
  -8 -13  -5   14.12    1.94
  -8 -13   5   16.54    2.33
  -8 -13   5   17.05    2.21
  -8 -13  -5   13.14    1.76
  -8 -13   5   13.35    1.69
  -8 -13  -6    4.45    1.54
  -8 -13  -6    5.51    1.54
  -8 -13   6    7.08    1.90
  -8 -13  -7   11.21    1.97
  -8 -13   7   14.46    2.29
  -8 -13   7   10.02    1.98
  -8 -13   7   17.34    2.18
  -8 -13  -7   13.84    1.95
  -8 -13   8    2.12    1.78
  -8 -13   8    1.10    1.63
  -8 -13  -8    0.38    1.47
  -8 -13  -8    0.50    1.45
 -13   8  -9    1.23    1.51
  -8 -13  -9    1.27    1.45
  -8 -13   9    1.24    1.63
  -8 -13   9    0.19    1.45
  -8 -13   9    0.92    1.51
  -8 -13  -9    0.66    1.51
  -8 -13  10    9.95    1.92
 -13   8 -10   11.54    1.86
  -8 -13 -10    9.00    1.81
  -8 -13  10    8.10    1.79
  -8 -13  11    1.30    1.29
 -13   8 -11    2.58    1.35
  -8 -13 -11    0.98    1.21
  -8 -13  11   -0.57    1.30
  -8 -13  12    3.19    1.19
  -8 -13 -12    4.73    1.30
  -8 -13 -13    2.50    0.89
  -7 -13   0   55.57    4.08
  13  -7   0   49.22    3.99
  -7 -13   1    1.31    1.38
  -7 -13  -1    1.61    1.33
  -7 -13  -1    0.67    1.90
  -7 -13   1   -0.50    1.81
  13  -7  -1   -0.92    2.07
  -7 -13   1   -2.48    2.34
  13  -7  -2  145.05    7.45
  -7 -13  -2  140.87    7.81
  -7 -13   2  146.41    7.66
  -7 -13   2  135.64    6.17
  -7 -13  -2  141.43    6.22
  -7 -13   2  147.62    7.95
  -7 -13  -3   23.58    2.05
  -7 -13   3   24.10    1.99
  -7 -13  -3   21.71    3.11
  -7 -13   3   24.28    3.02
  13  -7  -3   22.64    3.12
  -7 -13   3   21.67    3.45
  -7 -13   4  315.33   12.44
  -7 -13  -4  285.50   12.08
  -7 -13   4  283.54   11.93
  -7 -13  -4  304.49   12.06
  -7 -13   4  322.54   14.07
  -7 -13   4  317.50   14.53
  13  -7  -4  306.88   13.77
  -7 -13   5   76.44    4.30
  -7 -13   5   83.70    4.27
  -7 -13  -5   67.08    3.97
  -7 -13   5   70.58    3.69
  -7 -13  -5   72.84    3.84
  -7 -13   5   64.02    3.98
  -7 -13  -6   39.40    3.06
 -13   7  -6   47.36    3.37
  -7 -13   6   46.44    3.32
  -7 -13   6   38.61    3.11
  -7 -13  -6   49.91    3.00
  -7 -13   6   49.53    3.17
 -13   7  -7    1.67    1.69
  -7 -13  -7    0.52    1.52
  -7 -13  -7    0.17    1.51
  -7 -13   7    0.31    1.73
  -7 -13  -8    9.94    1.79
 -13   7  -8    9.16    1.97
  -7 -13   8    9.42    2.03
  -7 -13  -8   10.68    1.82
  -7 -13   8   12.61    2.01
  -7 -13   9    9.14    1.79
  -7 -13   9    8.90    2.01
  -7 -13  -9    7.19    1.80
  -7 -13  -9    4.66    1.69
 -13   7  -9    4.63    1.76
 -13   7  -9    5.89    1.85
  -7 -13  10   -0.23    1.31
 -13   7 -10   -0.45    1.47
 -13   7 -10    2.44    1.57
  -7 -13 -10    1.56    1.44
  -7 -13  10    2.36    1.57
 -13   7 -11    3.68    1.54
 -13   7 -11    2.51    1.50
  -7 -13  11   -0.25    1.40
  -7 -13 -12   13.25    1.82
  -7 -13  12   10.80    1.76
  -7 -13  12   19.80    2.00
 -13   7 -12   18.09    1.97
  -7 -13 -13   -0.04    0.89
  -7 -13  13    1.20    0.74
  -6 -13   0   -0.93    1.91
  -6 -13   1   47.00    3.98
  -6 -13  -1   46.00    2.73
  -6 -13   1   43.78    2.66
  13  -6  -1   43.24    3.62
  -6 -13  -1   46.56    3.71
  -6 -13   1   44.18    3.74
  -6 -13   2   14.87    2.92
  -6 -13  -2   17.63    1.85
  -6 -13   2   15.82    1.80
  13  -6  -2   19.48    2.72
  -6 -13  -2   20.18    2.91
  -6 -13   2   18.47    2.70
  -6 -13   3   22.73    3.13
  -6 -13  -3   25.02    2.05
  -6 -13   3   25.58    2.05
  13  -6  -3   26.46    3.17
  -6 -13  -3   30.34    3.47
  -6 -13   3   32.40    3.76
  -6 -13   4    1.65    1.35
  -6 -13   4    1.64    1.22
  -6 -13  -4    2.73    1.30
  13  -6  -4    2.17    2.26
  -6 -13   4    4.44    2.53
  13  -6  -5   47.99    4.50
  -6 -13   5   64.43    3.63
 -13   6  -5   56.55    3.64
  -6 -13   5   52.15    3.64
  -6 -13   5   53.52    3.01
  -6 -13  -5   51.84    3.21
 -13   6  -6    8.21    1.97
  -6 -13   6   10.11    2.00
  -6 -13  -6   10.79    1.72
  -6 -13   6    8.06    2.09
 -13   6  -6    7.88    1.66
  -6 -13  -6    9.75    1.73
 -13   6  -7   22.38    2.58
  -6 -13   7   26.56    2.56
  -6 -13   7   20.54    2.52
  -6 -13  -7   20.13    2.19
  -6 -13  -7   21.94    2.25
 -13   6  -8    0.50    1.79
  -6 -13   8    3.39    1.84
  -6 -13  -8    2.38    1.62
  -6 -13   8    4.06    1.78
  -6 -13  -8    2.98    1.53
  -6 -13   8    6.20    1.78
  -6 -13   9   42.67    3.55
 -13   6  -9   52.06    3.48
  -6 -13   9   56.31    3.39
  -6 -13  -9   43.54    3.32
 -13   6  -9   44.36    3.59
  -6 -13   9   54.95    3.66
 -13   6 -10    1.10    1.60
  -6 -13  10    1.96    1.70
 -13   6 -10    1.19    1.68
  -6 -13 -10    2.13    1.49
  -6 -13  10    1.68    1.47
 -13   6 -11   17.28    2.45
  -6 -13  11   22.60    2.37
  -6 -13  11   23.37    2.57
 -13   6 -11   27.13    2.44
  -6 -13  12   -0.64    1.33
 -13   6 -12   -2.81    1.44
  -6 -13  12    0.65    1.15
  -6 -13 -12   -1.22    1.30
  -6 -13  13    1.39    0.89
  -6 -13 -13    1.81    1.03
 -13   6 -13    1.81    1.13
  -5 -13   0  212.63    9.76
  -5 -13   0  192.67    9.43
  -5 -13  -1    0.15    1.80
  -5 -13   1   -0.15    1.70
  -5 -13  -1    1.16    1.29
  -5 -13   1    0.66    1.26
  13  -5  -1    0.30    2.04
  -5 -13   1    1.88    2.11
  -5 -13   2   30.09    2.18
  -5 -13  -2   30.42    2.24
  -5 -13  -2   35.66    3.36
  -5 -13   2   34.23    3.36
  13  -5  -2   40.37    3.47
  -5 -13   2   34.70    3.61
  -5 -13   3  117.35    6.90
  -5 -13  -3  100.99    4.95
  -5 -13   3  107.42    4.94
  13  -5  -3  108.92    6.30
  -5 -13   3  111.82    5.25
  -5 -13   4  103.99    5.29
 -13   5  -4  124.36    8.04
 -13   5  -4  101.04    5.25
  -5 -13   4  104.68    4.86
  -5 -13  -4   98.52    4.79
  -5 -13   4  112.99    7.01
 -13   5   4  107.94    6.64
  13  -5  -4  108.83    6.46
 -13   5  -4  124.25    7.18
 -13   5   5    8.69    2.66
  -5 -13   5    6.79    1.31
 -13   5  -5    6.28    1.49
  -5 -13   5    5.06    2.62
 -13   5  -5    8.27    1.92
 -13   5  -5    7.93    3.62
  -5 -13   5    5.81    3.09
  13  -5  -5    9.69    2.77
  -5 -13   5    8.84    1.98
 -13   5  -6   34.40    2.60
 -13   5  -6   28.81    2.79
  -5 -13  -6   30.01    2.60
  -5 -13  -6   32.48    2.41
  -5 -13   6   37.90    2.84
  -5 -13   6   34.74    2.85
  -5 -13   7   -0.74    1.72
  -5 -13  -7    2.48    1.43
 -13   5  -7    2.41    1.54
  -5 -13   7    0.71    1.70
  -5 -13  -7    0.57    1.31
 -13   5  -7    0.30    1.69
  -5 -13  -8   22.73    2.47
 -13   5  -8   25.18    2.75
  -5 -13   8   30.07    2.68
  -5 -13   8   27.01    2.85
 -13   5  -8   29.20    2.63
  -5 -13   9    1.44    1.55
  -5 -13   9    1.52    1.70
 -13   5  -9    0.51    1.64
  -5 -13  -9    1.37    1.44
 -13   5  -9   -0.40    1.76
  -5 -13   9   -0.61    1.67
  -5 -13  10   26.31    2.35
  -5 -13 -10   21.87    2.38
  -5 -13  10   26.91    2.59
 -13   5 -10   26.33    2.61
  -5 -13  10   20.68    2.63
 -13   5 -10   21.23    2.62
  -5 -13  11    1.48    1.65
 -13   5 -11    2.58    1.63
 -13   5 -11   -1.14    1.71
  -5 -13  11    2.96    1.53
 -13   5 -12    0.25    1.32
  -5 -13 -12    0.99    1.19
 -13   5 -12   -1.08    1.46
  -5 -13  12   -1.05    1.22
 -13   5 -13    2.28    1.09
  -5 -13  13    0.71    0.84
  -5 -13 -13    0.62    0.91
 -13   5 -13    0.82    1.16
  -4 -13   0    1.98    1.98
  13  -4  -1   64.71    4.39
  -4 -13   1   66.65    4.61
 -13   4   1   71.31    5.28
  13  -4  -2   59.35    4.28
  -4 -13   2   55.88    4.43
 -13   4   2   62.62    4.82
  13  -4  -3  199.50    9.39
 -13   4  -3  227.60   10.43
 -13   4   3  215.13    9.87
  -4 -13   3  192.65    9.87
  -4 -13   3  175.79    7.85
  -4 -13  -3  176.29    7.88
 -13   4  -3  226.38   10.86
 -13   4   3  204.95   10.00
  -4 -13   4   59.27    3.51
 -13   4  -4   50.55    3.00
 -13   4  -4   53.29    3.34
 -13   4  -4   65.32    5.78
  13  -4  -4   60.82    4.57
 -13   4  -4   56.27    4.83
 -13   4   4   62.92    4.86
  -4 -13   4   58.79    5.00
  -4 -13  -4   49.33    2.96
  -4 -13   4   50.69    2.95
  -4 -13   5   65.12    4.89
  -4 -13   5   58.79    3.72
 -13   4  -5   52.86    3.30
 -13   4  -5   59.88    5.76
  13  -4  -5   68.70    4.98
  -4 -13   5   62.47    5.64
 -13   4   5   62.91    4.92
 -13   4  -5   56.29    3.64
 -13   4  -6   22.75    2.31
  -4 -13  -6   14.85    2.00
 -13   4  -6   17.67    2.11
  -4 -13   6   19.84    2.28
  -4 -13  -6   21.59    1.96
  -4 -13   7    4.34    1.85
  -4 -13  -7    0.86    1.37
 -13   4  -7    2.16    1.71
 -13   4  -7    1.25    1.62
  -4 -13   7    3.92    1.68
  -4 -13  -7    1.16    1.41
  -4 -13  -8    0.08    1.36
 -13   4  -8    3.60    1.73
  -4 -13   8    3.44    1.86
 -13   4  -8    1.42    1.74
  -4 -13   8    2.40    1.74
  -4 -13   8    0.18    1.68
  -4 -13  -9    1.91    1.37
 -13   4  -9    2.57    1.72
  -4 -13   9    4.74    1.68
 -13   4  -9    0.51    1.69
  -4 -13   9    1.02    1.55
  -4 -13   9    1.00    1.72
  -4 -13 -10   -1.25    1.52
 -13   4 -10    1.45    1.67
 -13   4 -10   -1.21    1.75
  -4 -13  10    4.02    1.50
  -4 -13  10   -1.07    1.70
 -13   4 -11    0.93    1.62
  -4 -13 -11    1.29    1.38
 -13   4 -11    1.31    1.58
  -4 -13  11    0.64    1.41
 -13   4 -12   -2.01    1.51
  -4 -13 -12    1.25    1.25
  -4 -13  12   -0.61    1.21
 -13   4 -12    1.30    1.39
  -4 -13  13    0.73    0.87
 -13   4 -13    0.40    1.21
 -13   3   0  516.96   20.73
  -3 -13   0  457.39   19.71
 -13   3  -1   85.06    5.71
 -13   3   1   80.72    5.41
  -3 -13   1   80.02    5.09
  -3 -13  -1   75.16    4.76
 -13   3  -1   80.30    5.97
 -13   3   1   81.42    5.54
  13  -3  -2   19.10    2.73
 -13   3  -2   14.67    2.92
 -13   3   2   20.72    2.96
 -13   3   2   21.25    3.06
  -3 -13   2   14.84    2.75
  13  -3  -3   11.75    2.55
 -13   3  -3    9.65    3.46
 -13   3   3   15.26    2.92
  -3 -13   3   11.56    2.86
 -13   3  -3   11.28    2.88
 -13   3   3    5.45    2.26
  -3 -13   4  166.96    7.13
 -13   3  -4  136.19    6.48
  13  -3  -4  170.26    8.23
 -13   3  -4  186.33    8.93
 -13   3   4  185.09    8.68
  -3 -13  -4  149.33    6.47
  -3 -13   4  134.08    6.34
  -3 -13   4  151.81    8.59
 -13   3  -4  143.63    6.84
  -3 -13   4  149.89    7.99
 -13   3  -4  172.39    9.57
 -13   3   5    0.18    1.92
 -13   3  -5    0.78    1.31
 -13   3  -5    0.09    1.55
  13  -3  -5    2.62    2.41
 -13   3  -5    3.27    3.17
  -3 -13   5    3.64    2.65
  -3 -13   5   -0.53    2.16
 -13   3  -6    7.05    1.69
  -3 -13   6    7.59    1.88
  -3 -13   6    5.39    1.68
  -3 -13  -6    5.92    1.61
  -3 -13   6    2.35    2.51
 -13   3  -6    5.77    1.76
  -3 -13   6    6.05    1.85
 -13   3  -6   10.69    3.26
 -13   3  -7    9.03    1.99
 -13   3  -7   14.46    2.03
  -3 -13   7   12.03    2.18
  -3 -13  -7    9.11    1.68
  -3 -13   7   10.64    2.03
 -13   3  -8    4.08    1.86
  -3 -13   8    5.41    1.72
  -3 -13   8    2.89    1.82
  -3 -13  -8    2.10    1.48
 -13   3  -8    4.86    1.77
  -3 -13   8    1.69    1.77
  -3 -13   9    1.55    1.64
  -3 -13   9    0.23    1.63
  -3 -13  -9   -1.49    1.45
 -13   3  -9   -0.83    1.80
 -13   3  -9   -1.14    1.75
  -3 -13  10    6.64    1.65
 -13   3 -10    3.62    1.96
  -3 -13  10    6.73    2.07
 -13   3 -10    5.86    2.00
  -3 -13  10    6.63    1.89
 -13   3 -11   -0.10    1.66
  -3 -13 -11    1.30    1.42
  -3 -13  11   -0.79    1.44
 -13   3 -11    2.96    1.61
 -13   3 -12    0.41    1.49
  -3 -13  12    0.63    1.21
 -13   3 -13   -1.85    1.41
  -3 -13  13    2.12    0.99
 -13   2   0   -0.58    2.47
  -2 -13   0    0.41    1.71
 -13   2   0    4.38    2.22
  -2 -13   1   44.17    3.70
 -13   2  -1   52.08    4.20
 -13   2   1   46.49    4.09
 -13   2  -1   38.84    4.24
 -13   2   1   46.38    4.18
 -13   2  -2    5.25    2.56
 -13   2   2    3.29    2.06
  13  -2  -2    4.16    2.11
 -13   2   2    4.20    2.49
  -2 -13   2    4.56    2.22
  -2 -13   3   59.29    4.63
  13  -2  -3   49.39    4.12
 -13   2  -3   53.76    4.50
 -13   2   3   53.10    4.23
 -13   2  -3   49.81    5.04
 -13   2   3   50.41    4.37
  -2 -13   4   18.95    2.91
 -13   2  -4   17.91    3.81
  -2 -13   4   18.67    3.35
  13  -2  -4   21.28    3.00
 -13   2  -4   17.40    2.08
 -13   2  -4   18.36    2.88
 -13   2   4   19.74    2.82
  -2 -13   4   21.85    2.39
 -13   2  -4   19.40    1.86
  -2 -13  -5   73.98    4.02
 -13   2  -5  102.03    6.95
  -2 -13   5   92.80    6.10
 -13   2  -5   90.34    4.38
  13  -2  -5   90.43    6.00
 -13   2   5   78.21    5.63
 -13   2  -5   81.72    4.50
  -2 -13   5   94.23    6.68
 -13   2  -6    7.46    1.74
 -13   2  -6    2.11    3.08
 -13   2  -6    6.86    1.81
  -2 -13   6    6.62    1.86
  -2 -13   6    7.45    1.67
  -2 -13   6   11.29    2.85
  -2 -13   6    9.90    1.98
 -13   2  -7    2.20    1.67
  -2 -13   7    0.67    1.75
 -13   2  -7    0.48    1.62
  -2 -13   7    1.55    1.42
  -2 -13  -7    2.25    1.40
  -2 -13   8    2.00    1.71
  -2 -13   8    1.99    1.80
  -2 -13   8    1.59    1.83
 -13   2  -8    4.57    1.84
  -2 -13  -8    0.91    1.39
 -13   2  -8    4.42    1.74
  -2 -13   9    3.32    1.58
 -13   2  -9    4.93    1.95
  -2 -13   9    0.89    1.75
  -2 -13  -9    2.83    1.45
 -13   2  -9    1.56    1.69
 -13   2 -10    9.49    2.19
 -13   2 -10   11.18    2.19
  -2 -13  10   12.13    1.91
  -2 -13  11    8.07    1.78
 -13   2 -11    5.24    1.87
  -2 -13  12    1.57    1.27
 -13   2 -12    0.58    1.55
  -2 -13  13    1.61    1.01
 -13   2 -13    2.49    1.33
 -13   2 -13   -0.58    1.37
 -13   1   0   14.59    2.57
 -13   1   0   20.42    3.07
  -1 -13   0   13.37    2.20
 -13   1  -1   -0.53    2.15
 -13   1   1    1.69    2.01
 -13   1  -1   -0.97    2.68
 -13   1   1    2.61    2.53
  -1 -13   1    1.33    1.84
 -13   1   2   58.97    4.56
 -13   1  -2   62.37    4.55
 -13   1   2   60.48    4.56
  -1 -13   2   59.02    4.42
  -1 -13   3   24.06    2.88
 -13   1  -3   22.01    3.74
  -1 -13   3   25.85    3.33
 -13   1   3   26.86    3.15
 -13   1  -3   25.83    3.24
 -13   1   3   22.64    2.96
 -13   1  -4   96.99    4.89
 -13   1  -4  114.87    7.24
  -1 -13   4  105.24    6.25
  -1 -13   4  109.09    6.63
 -13   1  -4  110.44    6.37
 -13   1   4  110.80    6.28
 -13   1  -4   99.02    5.09
  -1 -13  -5   28.33    2.21
  -1 -13   5   40.67    3.92
 -13   1  -5   32.90    2.55
 -13   1   5   39.97    3.54
 -13   1  -5   32.99    2.69
  -1 -13   5   35.99    4.11
 -13   1  -5   32.95    4.29
  -1 -13   6    6.48    1.92
  -1 -13  -6    4.23    1.40
 -13   1  -6    3.76    1.64
  -1 -13   6    4.14    2.54
  -1 -13   6    6.15    2.70
 -13   1  -6    6.10    2.95
  -1 -13   6    4.28    1.49
  -1 -13   6    4.25    1.76
 -13   1  -6    4.62    1.71
  -1 -13   6    2.76    1.73
 -13   1  -7   14.44    2.16
  -1 -13  -7    8.66    1.66
  -1 -13   7   10.62    1.77
  -1 -13   7   13.45    2.02
  -1 -13   7   11.41    2.14
 -13   1  -7    9.89    1.93
  -1 -13   8   -0.15    1.48
 -13   1  -8   -1.20    1.73
  -1 -13   8    1.78    1.80
  -1 -13   9    3.78    1.68
 -13   1  -9    2.63    1.96
 -13   1  -9    5.39    1.90
  -1 -13   9    7.21    1.95
  -1 -13  10    2.04    1.70
 -13   1 -10    2.60    1.51
 -13   1 -10    5.59    1.84
 -13   1 -10    1.41    1.95
  -1 -13  10    3.05    1.61
  -1 -13  11    1.93    1.86
  -1 -13  11    1.18    1.35
 -13   1 -12   -1.67    1.60
 -13   1 -12   -0.17    1.53
 -13   1 -12   -2.03    1.32
  -1 -13  12    2.04    1.59
  -1 -13  13    1.07    1.00
 -13   1 -13    2.55    1.32
 -13   0   0   -0.71    2.35
   0 -13   0    0.90    1.67
 -13   0   0    0.65    2.05
 -13   0  -1  248.20   11.55
 -13   0   1  243.16   11.46
   0 -13   1  254.80   11.33
 -13   0   1  251.73   11.67
 -13   0  -1  251.16   12.05
  13   0  -2   46.69    3.91
 -13   0  -2   49.47    4.09
 -13   0   2   50.78    3.91
   0 -13   2   48.18    4.05
 -13   0   2   46.62    4.00
  13   0  -3  182.94    8.99
 -13   0  -3  181.78    9.06
 -13   0   3  182.95    8.98
   0 -13   3  171.10    8.70
 -13   0  -3  182.71    9.75
   0 -13   3  191.62    9.46
 -13   0  -4   53.30    3.15
 -13   0  -4   51.15    3.28
 -13   0  -4   54.72    4.97
   0 -13   4   62.16    4.41
   0 -13   4   67.75    5.21
   0 -13  -4   48.97    2.92
  13   0  -4   69.45    4.71
 -13   0  -4   55.40    4.12
 -13   0   4   51.45    4.18
   0 -13  -5    8.86    1.48
 -13   0  -5    8.43    1.63
   0 -13   5    9.64    2.64
 -13   0  -5    7.71    1.64
  13   0  -5    4.55    2.55
   0 -13   5    7.27    2.76
 -13   0  -5    5.37    2.78
 -13   0   5    7.72    2.15
   0 -13   6   -0.15    1.65
  13   0  -6   -0.54    2.66
   0 -13   6    2.14    2.34
   0 -13   6    1.06    1.30
 -13   0  -6   -0.75    1.51
   0 -13   6    0.26    1.63
   0 -13  -6    1.10    1.34
 -13   0  -6    2.61    1.53
   0 -13   6    0.67    2.52
   0 -13   7   28.01    2.40
   0 -13  -7   25.16    2.33
   0 -13   7   31.57    2.69
   0 -13   7   36.72    3.01
 -13   0  -7   32.38    2.94
 -13   0  -7   28.02    2.73
 -13   0  -8   35.31    3.25
   0 -13   8   48.48    3.31
   0 -13   8   42.18    2.95
 -13   0  -8   41.75    3.40
   0 -13   9   39.04    2.83
 -13   0  -9   25.07    2.89
 -13   0  -9   30.35    3.14
   0 -13   9   33.50    3.02
 -13   0  -9   21.75    2.68
   0 -13  10    4.91    1.83
   0 -13  10    3.33    1.89
 -13   0 -10    1.55    1.92
   0 -13  10    3.59    1.58
 -13   0 -11    6.97    1.96
   0 -13  11    4.22    1.67
 -13   0 -11    1.39    1.87
   0 -13  11    3.39    1.44
   0 -13  12    2.91    1.75
   0 -13  12    2.44    1.42
 -13   0 -12    2.09    1.64
 -13   0 -12    5.26    1.64
 -13   0 -12    4.95    1.43
 -13   0 -13    3.40    1.35
   0 -13  13    0.92    0.98
 -13  -1   0    4.93    2.26
 -13  -1   0    4.14    2.15
 -13  -1   1   83.39    5.59
   1 -13   1   94.99    5.31
 -13  -1  -1   90.59    5.86
 -13  -1  -1   90.84    5.57
 -13  -1   1   89.13    5.49
   1 -13   2  365.06   15.18
  13   1  -2  339.08   14.89
 -13  -1  -2  336.87   15.06
 -13  -1   2  349.22   14.99
   1 -13   3  595.24   24.34
   1 -13   3  578.15   23.65
 -13  -1  -3  625.29   24.59
  13   1  -3  586.22   23.87
 -13  -1  -3  544.86   23.67
 -13  -1   3  597.77   23.86
  13   1  -4   33.83    3.61
 -13  -1  -4   32.41    3.14
 -13  -1   4   30.89    3.23
   1 -13   4   37.79    3.59
 -13  -1  -4   27.99    3.78
   1 -13   4   33.79    3.95
 -13  -1  -4   31.03    2.36
   1 -13  -4   32.31    2.27
 -13  -1   5    2.88    1.88
   1 -13   5    6.04    2.63
 -13  -1  -5    4.96    1.51
  13   1  -5    7.31    2.59
   1 -13   5    6.79    2.51
   1 -13  -5    4.81    1.44
   1 -13   5    6.57    1.92
   1 -13   6   74.08    6.24
   1 -13   6   89.99    4.99
 -13  -1  -6   78.64    4.46
   1 -13  -6   73.27    4.20
   1 -13   6   91.51    4.52
   1 -13   6   80.75    4.24
  13   1  -6   68.77    5.80
   1 -13   6   96.44    6.26
   1 -13  -7   17.30    2.04
   1 -13   7   18.56    2.32
   1 -13   7   17.80    2.36
 -13  -1  -7   19.14    2.44
   1 -13   7   18.54    2.02
   1 -13   8   13.96    2.33
   1 -13   8   14.93    2.19
   1 -13   8   11.38    1.81
 -13  -1  -8   15.36    2.41
 -13  -1  -9    4.51    1.62
   1 -13   9    7.80    2.06
   1 -13   9    4.60    1.75
   1 -13   9    4.14    1.86
   1 -13   9    3.97    1.42
 -13  -1 -10   12.28    2.38
   1 -13  10   12.81    2.33
   1 -13  11    1.51    1.29
   1 -13  11    1.83    1.64
 -13  -1 -11    0.18    1.78
   1 -13  11    0.76    1.73
 -13  -1 -11    1.33    1.53
 -13  -1 -12    1.24    1.34
 -13  -2   0    0.15    1.74
 -13  -2  -1  202.10    9.57
 -13  -2   1  206.01    9.67
 -13  -2  -1  196.69   10.09
   2 -13   1  212.52    9.58
 -13  -2  -2  180.17    9.06
 -13  -2   2  196.59    9.17
  13   2  -2  193.30    9.22
   2 -13   2  188.65    9.31
   2 -13   2  198.99    9.03
 -13  -2  -3    2.35    1.85
 -13  -2   3    3.50    1.90
  13   2  -3    5.47    2.30
   2 -13   3    3.42    2.40
   2 -13   3    0.15    2.12
   2 -13   4   26.47    3.26
 -13  -2  -4   21.63    2.17
   2 -13  -4   20.11    1.86
  13   2  -4   27.32    3.31
   2 -13   4   22.35    3.27
 -13  -2  -4   18.76    2.63
 -13  -2   4   18.28    2.65
 -13  -2  -4   25.06    2.17
   2 -13  -5  205.77    9.26
 -13  -2  -5  241.30    9.59
  13   2  -5  233.43   11.21
 -13  -2   5  215.12   10.64
 -13  -2  -5  223.05    9.65
   2 -13   5  241.88   11.29
   2 -13   5  222.31   11.46
   2 -13   6    6.27    2.61
 -13  -2  -6    4.22    1.60
   2 -13  -6    2.01    1.39
   2 -13   6    0.89    1.77
   2 -13   6    2.02    1.74
 -13  -2  -6    1.43    1.62
   2 -13   6    2.04    1.42
   2 -13   7   35.04    3.26
 -13  -2  -7   41.13    3.23
 -13  -2  -7   38.89    3.10
   2 -13   7   44.60    3.16
 -13  -2  -7   37.57    2.85
   2 -13   7   36.85    2.73
   2 -13  -7   35.41    2.84
 -13  -2  -8    1.89    1.38
 -13  -2  -8    1.02    1.66
   2 -13   8    1.50    1.39
   2 -13   8    0.16    1.74
 -13  -2  -9    2.50    1.94
   2 -13   9    3.25    1.93
   2 -13   9    2.90    1.69
 -13  -2  -9    3.21    1.47
   2 -13   9    4.10    1.26
 -13  -2  -9    1.25    1.82
 -13  -2 -10    1.43    1.74
   2 -13  10    0.88    1.74
 -13  -2 -10    2.89    1.85
   2 -13  10    0.81    1.49
   2 -13  10   -1.67    1.74
 -13  -2 -11    1.01    1.47
 -13  -2 -11    5.95    1.79
   2 -13  11    3.98    1.67
 -13  -2 -11    3.92    1.82
   2 -13  11    2.11    1.81
   2 -13  11   -0.54    1.31
   2 -13  12    0.66    1.27
 -13  -2 -12    1.78    1.50
 -13  -2 -12    2.08    1.29
   2 -13  13    2.95    1.04
 -13  -2 -13    1.63    1.26
 -13  -3   0  356.23   15.24
 -13  -3  -1   76.72    5.03
 -13  -3   1   80.01    4.88
   3 -13   2  256.58   11.39
 -13  -3  -2  250.10   11.50
 -13  -3   2  258.17   11.61
  13   3  -2  258.64   11.62
   3 -13   2  253.38   11.68
  13   3  -3   26.38    3.17
 -13  -3  -3   22.35    2.74
 -13  -3   3   20.75    2.70
   3 -13   3   18.95    2.79
   3 -13   4   99.69    6.00
 -13  -3  -4   94.41    5.81
 -13  -3   4   99.92    5.78
  13   3  -4   96.39    6.06
   3 -13  -4   94.55    4.58
 -13  -3  -4   91.53    4.73
   3 -13   4   91.12    4.45
   3 -13  -4   97.35    4.61
   3 -13   5   37.30    3.99
   3 -13   5   41.49    3.30
 -13  -3  -5   34.93    2.75
  13   3  -5   36.05    4.02
 -13  -3   5   42.29    3.75
   3 -13  -5   33.78    2.63
 -13  -3  -6   28.42    2.46
 -13  -3  -6   29.97    2.59
   3 -13   6   26.49    2.55
 -13  -3  -6   23.72    2.31
   3 -13   6   30.31    2.35
   3 -13   7    6.12    1.79
 -13  -3  -7    1.77    1.77
 -13  -3  -7    2.29    1.45
   3 -13  -7    4.38    1.65
   3 -13   7    3.48    1.80
   3 -13   7    6.05    1.48
   3 -13   8    8.28    1.96
 -13  -3  -8    7.12    2.04
 -13  -3  -8    5.61    1.60
   3 -13   8    6.91    1.81
 -13  -3  -8   10.67    2.16
   3 -13   8    5.69    1.47
 -13  -3  -9   -0.10    1.91
   3 -13   9    1.95    1.78
 -13  -3  -9    2.58    1.44
   3 -13   9    1.01    1.20
   3 -13   9   -1.78    1.79
 -13  -3  -9    2.20    1.78
   3 -13   9    0.09    1.86
 -13  -3 -10    6.91    2.12
 -13  -3 -10    4.49    1.94
 -13  -3 -10    6.64    1.86
   3 -13  10    5.68    2.06
   3 -13  10    6.26    1.76
 -13  -3 -11    2.83    1.47
   3 -13  11    0.23    1.55
 -13  -3 -11    0.37    1.60
 -13  -3 -12    3.54    1.39
   3 -13  12    3.29    1.44
 -13  -3 -12    5.82    1.63
   3 -13  13   -0.63    1.01
 -13  -3 -13   -0.42    1.27
 -13  -4   0    3.40    1.96
  13   4  -1  288.21   12.60
 -13  -4  -1  273.54   12.54
 -13  -4   1  283.60   12.62
 -13  -4  -2   32.25    3.22
 -13  -4   2   25.11    2.90
  13   4  -2   32.43    3.24
   4 -13   2   29.12    3.10
 -13  -4  -3   21.34    2.74
 -13  -4   3   21.21    2.76
   4 -13   3   21.23    3.00
  13   4  -3   19.96    2.92
  13   4  -4    0.32    2.29
 -13  -4  -4    2.64    1.91
 -13  -4   4    3.23    1.95
 -13  -4  -4    1.66    1.52
   4 -13  -4    1.00    1.39
   4 -13   4    0.70    2.23
  13   4  -5    6.49    2.62
   4 -13  -5    4.55    1.45
 -13  -4   5    4.86    1.97
 -13  -4  -5    4.63    1.70
   4 -13   5    7.35    2.65
 -13  -4  -6   12.95    2.07
 -13  -4  -6   10.99    1.76
 -13  -4   6   11.05    1.81
   4 -13   6   11.40    2.08
   4 -13  -6   10.71    1.91
   4 -13  -7   31.99    2.67
 -13  -4  -7   28.37    2.52
   4 -13   7   34.32    2.56
 -13  -4  -7   32.42    2.97
   4 -13   8    1.38    1.35
 -13  -4  -8    1.39    1.39
   4 -13   8    3.89    1.82
 -13  -4  -8    2.29    1.63
 -13  -4  -8    2.09    1.85
 -13  -4  -9   12.76    2.33
   4 -13   9   18.23    2.36
   4 -13   9   11.29    1.68
 -13  -4  -9   15.18    2.14
 -13  -4  -9   13.98    1.97
 -13  -4 -10   -1.39    1.52
   4 -13  10    1.16    1.50
   4 -13  10    2.76    1.83
 -13  -4 -10   -0.10    1.78
 -13  -4 -11    7.29    1.74
   4 -13  11    7.66    1.49
 -13  -4 -11   10.79    1.98
 -13  -4 -12   -0.97    1.21
 -13  -4 -12   -0.38    1.48
   4 -13  12    1.72    1.36
 -13  -4 -13    1.26    1.27
 -13  -4 -14    0.43    0.90
 -13  -5   0  563.56   23.11
 -13  -5  -1    7.47    2.23
 -13  -5   1   10.48    2.23
  13   5  -1    9.94    2.44
  13   5  -2   39.68    3.52
 -13  -5  -2   35.01    3.35
 -13  -5   2   37.49    3.44
   5 -13   2   35.47    3.39
 -13  -5  -3   -0.66    1.91
 -13  -5   3    2.11    1.92
   5 -13   3    0.84    2.30
  13   5  -3    4.40    2.29
   5 -13  -3    0.72    1.30
   5 -13   4   38.63    3.96
  13   5  -4   42.71    3.91
 -13  -5  -4   36.80    2.71
 -13  -5  -4   33.48    3.52
 -13  -5   4   40.11    3.70
 -13  -5  -5   -1.43    1.55
  13   5  -5    1.53    2.28
 -13  -5  -5    1.09    1.33
   5 -13   5   -0.20    2.43
 -13  -5   6   67.74    3.82
 -13  -5  -6   63.66    4.10
   5 -13  -6   74.91    3.93
 -13  -5  -6   57.23    3.81
 -13  -5  -7    5.34    1.84
   5 -13  -7    6.86    1.75
 -13  -5  -7    4.80    1.74
 -13  -5  -7    0.95    1.50
 -13  -5   7    4.91    1.56
   5 -13   8   34.59    2.96
 -13  -5  -8   28.57    2.75
 -13  -5  -8   28.62    2.37
   5 -13   8   29.42    2.34
 -13  -5  -8   27.01    2.86
 -13  -5  -9    2.15    1.42
   5 -13   9    2.60    1.25
 -13  -5  -9    1.16    1.83
 -13  -5  -9    0.96    1.61
   5 -13   9    1.02    1.72
 -13  -5 -10   10.61    2.21
 -13  -5 -10    9.59    2.00
   5 -13  10   10.18    2.31
   5 -13  10   13.60    1.98
 -13  -5 -11    1.42    1.66
 -13  -5 -11    1.59    1.45
   5 -13  11    1.89    1.70
   5 -13  11    1.50    1.31
   5 -13  12   11.46    1.81
 -13  -5 -12   10.06    1.90
 -13  -5 -12   11.13    1.62
 -13  -5 -13    0.05    1.18
   5 -13  13    0.44    0.98
 -13  -6   0    2.64    1.95
 -13  -6  -1  112.73    6.40
 -13  -6   1  103.26    6.44
 -13  -6   1  115.14    6.40
 -13  -6  -1  111.47    6.25
  13   6  -1  123.47    6.45
  13   6  -2   26.31    3.12
 -13  -6  -2   25.73    3.08
   6 -13   2   24.91    3.17
 -13  -6   2   25.60    2.98
   6 -13  -3   76.64    4.00
 -13  -6   3   79.76    5.23
 -13  -6  -3   84.30    5.30
  13   6  -3   84.93    5.35
   6 -13   3   88.61    5.71
 -13  -6  -4    7.57    2.38
 -13  -6   4    5.72    1.91
   6 -13  -4    7.39    1.58
  13   6  -4    7.70    2.49
   6 -13   4   14.25    2.94
   6 -13  -5   17.96    2.11
 -13  -6   5   22.21    2.41
 -13  -6   5   16.45    2.06
 -13  -6  -5   19.11    2.15
  13   6  -5   18.46    3.23
 -13  -6  -5   18.39    2.10
 -13  -6  -5   17.72    2.03
 -13  -6   6    0.76    1.49
 -13  -6  -6    1.66    1.46
 -13  -6  -7    2.17    1.73
 -13  -6  -7    2.99    1.46
 -13  -6  -7    2.30    1.80
 -13  -6   7    2.92    1.56
 -13  -6   8    1.08    1.36
 -13  -6  -8    0.32    1.45
   6 -13   8    0.49    1.87
   6 -13   8    0.72    1.30
 -13  -6  -8    2.69    1.82
 -13  -6  -8    1.15    1.48
 -13  -6  -9   10.15    1.96
   6 -13   9   13.75    2.18
   6 -13   9    9.18    1.48
 -13  -6  -9    9.91    2.15
 -13  -6  -9    9.84    1.72
   6 -13  10   -0.62    1.63
 -13  -6 -10    2.71    1.76
 -13  -6 -10    1.32    1.46
   6 -13  11   15.67    1.81
 -13  -6 -11   14.58    1.89
   6 -13  11   11.27    2.10
 -13  -6 -11    9.27    2.06
 -13  -6 -12   -1.13    1.16
 -13  -6 -12   -0.47    1.36
   6 -13  12    0.96    1.36
   6 -13  13    0.73    1.00
  -6  13 -13    1.30    1.08
 -13  -6 -13   -0.15    1.12
 -13  -7   0  110.40    6.38
  13   7   0  111.84    6.34
 -13  -7   1   35.34    5.50
 -13  -7  -1   32.45    5.44
  13   7  -1   39.76    3.62
 -13  -7  -1   39.60    3.56
 -13  -7   1   37.79    3.50
  13   7  -2  166.48    8.16
 -13  -7  -2  152.30    8.27
 -13  -7   2  172.72    8.37
 -13  -7  -2  153.37    8.09
 -13  -7   2  153.13    8.34
   7 -13   3    3.40    2.67
 -13  -7  -3    1.79    2.03
 -13  -7   3    2.58    2.00
 -13  -7   3   -1.11    3.98
 -13  -7  -3    0.96    3.44
   7 -13  -3    2.09    1.44
 -13  -7  -4  129.73    7.63
 -13  -7   4  126.98    7.33
   7 -13  -4  132.29    6.06
   7 -13   4  145.94    8.20
 -13  -7   4  137.13    6.15
 -13  -7  -4  124.41    5.97
 -13  -7  -4  124.48    5.98
 -13  -7   5   40.71    3.02
   7 -13  -5   44.77    3.00
 -13  -7   5   44.62    3.02
 -13  -7  -5   39.45    2.90
 -13  -7  -5   43.30    3.03
 -13  -7  -5   39.65    2.91
 -13  -7  -6    3.28    1.54
 -13  -7  -6    5.81    1.73
   7 -13  -6    1.10    1.59
 -13  -7   6    5.13    1.91
 -13  -7   6    4.15    1.60
 -13  -7  -7   35.84    3.06
   7 -13  -7   32.90    2.90
 -13  -7  -7   32.25    2.92
 -13  -7  -7   35.16    2.79
 -13  -7   7   40.39    2.80
 -13  -7  -8    0.56    1.47
 -13  -7  -8    4.38    1.82
 -13  -7  -8    1.00    1.34
   7 -13   8    0.92    1.34
 -13  -7   8    2.04    1.49
 -13  -7  -9    2.06    1.75
 -13  -7  -9    0.74    1.34
 -13  -7  -9    0.77    1.46
 -13  -7   9   -1.41    1.42
   7 -13   9    2.02    1.83
   7 -13   9   -0.58    1.23
 -13  -7 -10   11.46    1.91
   7 -13  10   15.20    2.03
 -13  -7 -10    9.01    2.02
 -13  -7 -11    1.16    1.48
 -13  -7 -11   -1.01    1.31
   7 -13  11   -1.04    1.34
   7 -13  11    1.87    1.64
   7 -13  12    0.60    1.28
 -13  -7 -12    0.25    1.37
 -13  -7 -12    0.73    1.10
 -13  -7 -13    1.46    1.11
   7 -13  13    2.33    0.98
 -13  -8   0   -0.18    2.10
 -13  -8   1   20.09    5.83
 -13  -8  -1   18.78    5.73
 -13  -8  -1   20.17    2.87
 -13  -8   1   19.37    2.69
 -13  -8  -2   35.44    3.49
 -13  -8   2   30.67    3.40
 -13  -8  -2   33.62    5.86
 -13  -8   2   32.25    6.01
   8 -13  -2   37.25    2.47
 -13  -8   3   29.03    3.40
 -13  -8  -3   28.89    5.04
 -13  -8   3   37.66    5.49
   8 -13  -3   33.39    2.52
   8 -13   3   38.25    4.16
 -13  -8   3   34.45    2.73
 -13  -8  -3   35.73    3.73
 -13  -8   3   32.79    2.56
 -13  -8   4    5.73    1.77
 -13  -8  -4    4.97    1.67
   8 -13  -4    3.66    1.70
 -13  -8  -4    6.44    1.60
 -13  -8   4    6.93    1.91
 -13  -8  -4    5.08    1.65
 -13  -8   5   92.11    4.83
 -13  -8  -5   99.39    5.07
 -13  -8   5  102.09    5.06
 -13  -8  -5   97.59    4.85
 -13  -8  -5   88.32    4.84
   8 -13  -5   97.02    5.00
 -13  -8  -6   56.46    3.76
 -13  -8   6   67.63    3.91
 -13  -8   6   70.98    3.80
   8 -13  -6   64.60    3.96
 -13  -8  -7    3.46    1.73
   8 -13  -7    3.12    1.80
 -13  -8  -7    2.19    1.47
 -13  -8   7    3.40    1.51
 -13  -8  -7    1.92    1.68
 -13  -8  -8   10.38    2.15
   8 -13   8   14.47    1.86
 -13  -8  -8   15.55    1.98
 -13  -8  -8   13.22    1.98
 -13  -8   8   14.64    1.93
 -13  -8  -9    2.08    1.43
 -13  -8  -9   -0.09    1.57
   8 -13   9   -0.53    1.75
 -13  -8   9    0.60    1.35
   8 -13  10    0.59    1.58
 -13  -8 -10    0.66    1.56
 -13  -8 -10    0.80    1.40
 -13  -8  10    1.20    1.20
 -13  -8 -10   -1.55    1.65
   8 -13  11    3.25    1.73
 -13  -8 -11    5.85    1.39
 -13  -8 -11    2.99    1.63
   8 -13  11    1.07    1.37
  -8  13 -12    1.31    1.18
   8 -13  12   -0.31    0.96
 -13  -8 -12    0.61    0.93
 -13  -8 -12    2.98    1.33
   8 -13  12    1.19    1.30
 -13  -8 -13    2.67    1.01
   8 -13  13    1.74    0.95
 -13  -9   0    2.75    2.06
 -13  -9   1    3.68    5.56
 -13  -9  -1    1.93    5.60
 -13  -9   1    1.01    1.52
 -13  -9  -1    2.60    2.13
 -13  -9   1    2.01    2.01
 -13  -9  -2   11.45    1.67
 -13  -9   2    8.85    1.82
 -13  -9   2   13.51    2.24
 -13  -9  -2   11.51    5.89
   9 -13  -2   15.24    1.89
 -13  -9  -2   14.91    1.72
 -13  -9   2   11.55    6.14
 -13  -9  -2   12.54    6.18
 -13  -9  -3   53.63    6.45
 -13  -9   3   45.94    6.61
   9 -13  -3   50.67    3.16
 -13  -9   3   61.83    3.52
 -13  -9  -3   48.31    3.09
 -13  -9  -3   53.74    3.12
 -13  -9  -4    4.26    1.48
 -13  -9   4    5.76    1.70
   9 -13  -4    3.92    1.64
 -13  -9   4    2.50    1.80
 -13  -9  -4    3.08    4.32
 -13  -9   4    5.25    4.90
 -13  -9  -4    2.81    1.49
 -13  -9  -4    1.84    1.42
 -13  -9   5   -0.17    1.72
   9 -13  -5    2.75    1.61
 -13  -9   5   -2.43    1.82
 -13  -9  -5    0.62    1.41
 -13  -9  -5    0.23    1.50
 -13  -9  -5    0.96    1.37
   9 -13  -6   21.12    2.55
 -13  -9  -6   23.61    2.43
 -13  -9   6   27.24    2.56
 -13  -9   6   23.60    2.43
 -13  -9  -6   22.16    2.25
 -13  -9  -6   22.60    2.47
 -13  -9  -7   24.64    2.53
 -13  -9   7   29.16    2.51
 -13  -9  -7   31.37    2.49
 -13  -9   7   31.19    2.57
 -13  -9  -7   27.02    2.69
 -13  -9  -8    3.74    1.53
 -13  -9   8    6.01    1.64
 -13  -9  -8    4.36    1.64
 -13  -9  -8    9.37    1.86
 -13  -9   9   10.73    1.75
 -13  -9  -9    9.76    1.78
 -13  -9  -9   12.32    2.01
   9 -13  10   12.57    2.01
 -13  -9 -10    9.60    1.97
 -13  -9  10    8.38    1.59
 -13  -9 -10   12.13    1.86
  -9  13 -11    1.12    1.27
   9 -13  11    0.46    1.50
   9 -13  11    1.02    1.26
 -13  -9 -11    2.07    1.38
 -13  -9 -11    1.26    1.15
   9 -13  12    1.58    0.97
   9 -13  12    1.55    1.21
 -13  -9 -12    0.95    1.13
  -9  13 -12    0.34    1.01
 -13  -9 -13    1.64    0.85
 -13 -10   0    1.57    3.31
 -13 -10   0    4.04    1.35
 -13 -10   0    0.43    1.40
 -13 -10   0    1.53    1.30
  10 -13  -1    2.88    1.58
 -13 -10  -1    1.77    5.10
 -13 -10   1    0.15    2.28
 -13 -10  -1    4.78    5.80
 -13 -10   1    2.26    5.66
 -13 -10   1    2.14    1.59
 -13 -10  -1    1.79    1.61
 -13 -10  -1    1.33    1.31
 -13 -10  -1    1.19    1.36
 -13 -10   1    1.72    1.34
  10 -13  -2    3.53    1.55
 -13 -10  -2   -2.82    5.99
 -13 -10   2    3.68    1.91
 -13 -10   2    2.51    5.98
 -13 -10  -2    5.13    6.08
 -13 -10  -2    3.65    1.44
 -13 -10   2    3.72    1.62
 -13 -10  -2    0.14    1.39
 -13 -10   2    2.85    1.41
 -13 -10  -3    3.60    1.40
 -13 -10   3    3.49    1.58
  10 -13  -3    5.48    1.70
 -13 -10   3    3.76    1.86
 -13 -10   3    4.58    6.16
 -13 -10  -3    7.24    6.14
 -13 -10  -3    2.29    1.45
 -13 -10  -3    5.19    1.48
  10 -13  -4    4.92    1.67
 -13 -10   4    2.41    1.85
 -13 -10   4   -4.35    5.72
 -13 -10  -4    4.66    5.14
 -13 -10  -4    2.42    1.44
 -13 -10  -4    2.01    1.57
 -13 -10   5   14.61    2.09
 -13 -10  -5   11.24    1.93
 -13 -10   5   12.70    2.06
  10 -13  -5   12.52    2.01
 -13 -10  -5   11.56    1.83
  10 -13  -6   48.58    3.47
 -13 -10  -6   55.90    3.63
 -13 -10  -6   48.83    3.54
 -13 -10   6   57.38    3.42
 -13 -10  -6   56.83    3.49
 -13 -10   6   60.67    3.61
 -13 -10  -7   19.69    2.31
 -13 -10   7   22.00    2.30
 -13 -10  -7   23.72    2.26
 -13 -10   7   21.67    2.32
 -13 -10  -7   21.15    2.40
 -13 -10   8    5.18    1.57
 -13 -10  -8    3.10    1.57
 -13 -10  -8    3.54    1.41
 -13 -10  -8    1.49    1.62
 -13 -10   9    7.22    1.58
 -13 -10  -9   10.33    1.70
 -13 -10  -9    8.43    1.84
 -10  13  -9    8.19    1.75
  10 -13  10   11.32    1.85
 -10  13 -10    8.30    1.57
 -13 -10  10    6.54    1.45
 -13 -10 -10    7.65    1.76
  10 -13  11    4.63    1.31
 -13 -10 -11    2.16    1.17
 -10  13 -11    5.25    1.27
 -13 -10 -11    3.37    1.35
 -13 -10 -12   -0.61    1.05
  10 -13  12    0.71    1.13
 -13 -11   0  118.08    5.33
 -13 -11   0  111.06    5.96
 -13 -11   0  105.83    5.39
 -13 -11   0  115.96    5.40
 -13 -11  -1    4.05    1.74
 -13 -11   1    5.34    1.61
  11 -13  -1    5.08    1.66
 -13 -11  -1    3.66    5.39
 -13 -11   1    3.18    2.07
 -13 -11  -1   -2.19    5.77
 -13 -11   1    2.51    5.67
 -13 -11  -1    3.03    1.53
 -13 -11   1    4.03    1.45
 -13 -11  -1    3.67    1.48
 -13 -11  -2   22.38    6.08
 -13 -11   2   20.47    6.03
  11 -13  -2   18.17    2.09
 -13 -11  -2   17.61    6.49
 -13 -11  -2   17.98    1.91
 -13 -11   2   16.14    1.98
 -13 -11   2   16.06    1.82
 -13 -11  -3    4.99    1.48
 -13 -11  -3    0.80    6.14
 -13 -11   3    3.39    6.35
  11 -13  -3    4.47    1.59
 -13 -11   3    6.34    1.76
 -13 -11  -3    4.92    1.56
 -13 -11   3    3.36    1.30
 -13 -11  -3    4.93    1.50
 -13 -11   3    3.21    1.91
 -13 -11  -4    2.56    1.41
  11 -13  -4    6.23    1.72
 -13 -11  -4    5.99    1.63
 -13 -11   4    2.76    1.76
 -13 -11  -4    4.71    1.52
 -13 -11   4    1.12    6.10
 -13 -11  -4    1.11    5.62
 -13 -11  -5   14.61    1.98
 -13 -11   5   15.23    2.13
 -13 -11   5   13.54    2.07
  11 -13  -5   11.59    2.02
 -13 -11  -5   10.75    1.87
 -13 -11  -6   11.45    1.87
  11 -13  -6   10.60    1.86
 -13 -11   6   12.62    1.99
 -13 -11  -6   10.51    1.82
 -13 -11  -6    9.99    1.85
 -13 -11   6    8.22    2.01
 -13 -11  -7    7.01    1.67
 -13 -11   7    4.08    1.71
 -13 -11  -7    6.42    1.70
 -13 -11  -7    5.88    1.64
 -13 -11   7    6.21    1.67
 -13 -11  -8    9.06    1.65
 -13 -11  -8    8.12    1.76
 -13 -11  -8    8.73    1.85
 -13 -11   8    9.45    1.72
 -13 -11   8   11.90    1.97
 -13 -11  -9    6.41    1.58
 -13 -11  -9    5.59    1.60
 -13 -11   9    6.70    1.48
 -11  13 -10    1.33    1.21
 -13 -11 -10    3.43    1.23
 -13 -11  10    1.55    1.23
 -13 -11 -10    1.27    1.38
  11 -13  10    3.03    1.55
 -11  13 -11    0.80    1.02
 -13 -11  11    0.33    0.91
 -13 -11 -11    2.16    0.94
 -13 -11 -11    1.38    1.17
  11 -13  11    1.68    1.21
 -13 -11 -12    3.87    1.05
  11 -13  12    2.70    1.12
 -13 -12   0   -0.80    5.30
 -13 -12   0    1.00    1.34
 -13 -12   0    1.54    3.03
 -13 -12   0    0.88    1.48
 -13 -12   0    2.04    1.47
 -13 -12   1   59.18    3.48
 -13 -12  -1   55.56    3.50
 -13 -12  -1   63.73    3.40
  12 -13  -1   60.62    3.50
 -13 -12   1   59.18    3.69
 -13 -12  -1   57.72    6.21
 -13 -12  -1   60.94    3.43
 -13 -12   1   61.30    3.42
 -13 -12   1   57.59    6.19
 -13 -12  -1   56.99    6.40
 -13 -12   2    5.68    1.56
  12 -13  -2    6.86    1.71
 -13 -12  -2    5.76    1.37
 -13 -12  -2    4.38    6.36
 -13 -12  -2    2.53    6.07
 -13 -12   2    8.12    5.89
 -13 -12  -2    4.83    1.42
 -13 -12   2    6.61    1.73
 -13 -12  -3    5.74    1.44
 -13 -12  -3    4.61    6.53
 -13 -12   3    7.28    6.40
  12 -13  -3    3.28    1.47
 -13 -12   3    5.85    2.02
 -13 -12   3    4.82    1.30
 -13 -12  -3    4.80    1.54
 -13 -12  -3    6.11    1.59
 -13 -12   3    3.65    1.70
 -13 -12  -4   57.33    3.39
 -13 -12   4   60.18    3.61
  12 -13  -4   56.08    3.49
 -13 -12   4   58.80    3.57
 -13 -12  -4   59.93    3.50
 -13 -12  -4   59.38    3.53
 -13 -12  -4   70.07    6.87
 -13 -12   4   65.32    7.03
 -13 -12  -5    4.07    1.47
 -13 -12   5    5.96    1.83
  12 -13  -5    3.54    1.67
 -13 -12  -5    4.84    1.47
 -13 -12   6   13.23    2.06
 -13 -12   6   10.85    2.01
 -13 -12  -6   10.32    1.85
 -13 -12  -6   10.78    1.77
 -13 -12  -6   10.92    1.79
 -13 -12  -7   30.20    2.54
 -13 -12  -7   28.27    2.63
 -13 -12  -7   34.51    2.51
 -13 -12   7   34.04    2.62
 -13 -12   8    2.54    1.56
 -13 -12   8    1.22    1.78
 -13 -12  -8    2.42    1.43
 -13 -12  -8    2.88    1.30
 -13 -12  -8    0.07    1.36
 -13 -12  -9   -0.06    1.24
 -13 -12   9    1.88    1.35
 -13 -12  -9    1.72    1.35
 -13 -12  10   -0.77    1.10
 -13 -12 -10    0.52    1.09
  12 -13  10   -1.37    1.42
 -13 -12 -10   -2.36    1.25
 -13 -12  11   -0.43    0.90
 -13 -12 -11    1.57    0.89
  12 -13  11    3.42    1.36
 -13 -12 -11    4.82    1.12
  12 -13  11    2.12    1.09
 -13 -12 -12   -1.09    0.82
 -13 -13   0   -2.49    4.92
 -13 -13   0    2.28    1.47
 -13 -13   0   -0.59    3.45
 -13 -13   0    0.88    1.35
 -13 -13   0    1.62    1.36
 -13 -13  -1   68.72    3.70
 -13 -13   1   66.36    3.72
 -13 -13   1   68.68    3.77
 -13 -13  -1   67.46    3.66
 -13 -13  -1   70.59    6.33
 -13 -13   1   71.53    6.29
 -13 -13  -1   67.36    6.60
 -13 -13   1   72.68    4.13
 -13 -13  -1   69.64    3.61
 -13 -13   2    9.42    5.63
 -13 -13  -2   13.49    6.03
 -13 -13   2   11.29    1.86
 -13 -13   2   11.28    2.19
 -13 -13  -2    6.99    6.72
 -13 -13  -2   11.22    1.65
 -13 -13  -2    7.16    1.63
 -13 -13   2    8.01    1.56
 -13 -13  -3   18.37    1.88
 -13 -13   3   16.15    6.11
  13 -13  -3   17.54    2.01
 -13 -13  -3   17.99    1.92
 -13 -13   3   20.06    2.16
 -13 -13   3   20.44    1.90
 -13 -13  -3   16.42    2.01
 -13 -13  -4    7.96    1.61
  13 -13  -4    9.85    1.76
 -13 -13  -4    8.40    1.62
 -13 -13   4   10.45    2.01
 -13 -13   4    7.59    1.85
 -13 -13  -4    7.62    1.63
 -13 -13   4   11.91    6.20
 -13 -13  -4   14.27    5.70
 -13 -13   5   15.34    2.15
 -13 -13  -5   11.00    1.71
 -13 -13  -5   12.44    1.77
 -13 -13   5    8.51    4.42
 -13 -13  -6    5.66    1.53
 -13 -13   6    3.53    1.77
 -13 -13  -6    5.31    1.51
 -13 -13  -6    2.18    1.43
 -13 -13  -7    2.20    1.40
 -13 -13   7    2.18    1.66
 -13 -13  -7    0.37    1.22
 -13 -13  -7    1.34    1.38
 -13 -13   7    3.13    1.64
 -13 -13  -8   13.84    1.77
 -13 -13   8   20.50    2.22
 -13 -13   8   17.88    2.03
 -13 -13  -8   10.45    1.62
 -13 -13  -8   14.31    1.83
 -13 -13  -9    1.45    1.18
 -13 -13   9    0.69    2.66
 -13 -13   9   -1.31    1.27
 -13 -13  -9    2.72    1.28
  13 -13  10    1.33    1.30
 -13 -13 -10    1.26    0.99
 -13 -13  10    0.75    1.04
 -13 -13 -10   -0.93    1.16
  13 -13  11    0.71    0.94
 -13 -13  11    0.11    0.77
 -13 -13 -11    0.29    0.84
  13 -13  11   -2.28    1.20
 -13 -14   0    0.87    1.54
 -13 -14   0    1.81    3.95
 -13 -14   0   -1.32    5.33
 -13 -14   0    0.67    1.30
 -13 -14   0    1.23    1.34
 -13 -14  -1   12.53    1.67
 -13 -14   1   14.81    1.91
 -13 -14  -1   14.99    6.13
 -13 -14   1   15.47    2.70
 -13 -14  -1   16.27    5.30
 -13 -14   1   17.00    5.32
 -13 -14   1   14.82    1.69
 -13 -14  -1   16.51    1.85
 -13 -14   1   14.66    1.79
 -13 -14  -1   14.17    1.83
 -13 -14  -2    2.85    1.32
 -13 -14   2    2.54    1.59
 -13 -14   2    0.70    2.06
 -13 -14  -2    4.59    6.80
 -13 -14  -2    3.01    1.47
 -13 -14   2    4.05    1.44
 -13 -14   2    5.58    5.83
 -13 -14  -2    2.28    6.19
 -13 -14  -3   11.14    1.66
 -13 -14  -3   21.80    6.63
 -13 -14   3    1.75    6.34
 -13 -14   3    9.47    1.95
 -13 -14   3   11.60    1.64
 -13 -14  -3   13.71    1.72
 -13 -14  -3   12.84    1.76
 -13 -14   4   31.70    2.70
 -13 -14  -4   19.17    6.14
 -13 -14   4   28.17    6.08
 -13 -14   4   31.79    2.72
 -13 -14  -4   27.83    2.37
 -13 -14  -4   29.58    2.35
 -13 -14  -4   29.51    2.39
 -13 -14   5    2.06    1.82
 -13 -14   5    4.59    1.73
 -13 -14  -5    1.94    1.37
 -13 -14  -5    1.40    1.30
 -13 -14   6   17.80    2.20
 -13 -14  -6   16.40    1.81
 -13 -14  -6   14.19    1.83
 -13 -14  -6   16.55    1.97
 -13 -14  -7    2.34    1.38
 -13 -14   7    4.74    1.66
 -13 -14  -7    1.28    1.28
 -13 -14  -7    3.01    1.32
 -13 -14   7    4.82    1.78
 -13 -14   8    1.59    1.41
 -13 -14  -8   -0.11    1.13
 -13 -14  -8    0.73    1.00
 -13 -14  -8   -0.78    1.20
 -13 -14   8    2.17    1.95
 -13 -14  -9    0.45    1.03
 -13 -14   9    1.30    1.19
 -13 -14  -9    2.13    1.15
  14 -13  10    0.90    1.16
 -13 -14 -10   -0.88    0.86
 -13 -14  10    0.39    1.01
 -13 -14 -10    1.53    0.94
 -13 -14 -11   -0.34    0.76
  14 -13  11    0.72    0.91
 -12 -14   0   -0.33    1.29
 -12 -14   0   -0.58    1.53
 -12 -14   0    2.48    2.23
 -12 -14   0    0.66    2.91
 -12 -14   0    0.28    1.39
 -12 -14   0    1.92    1.55
 -12 -14  -1    6.58    1.56
 -12 -14   1    9.73    1.72
 -12 -14  -1    8.82    3.88
 -12 -14   1    6.29    1.92
 -12 -14   1    8.58    3.07
 -12 -14  -1    5.00    3.15
 -12 -14   1    6.59    1.49
 -12 -14  -1    8.21    1.55
 -12 -14  -1    6.97    1.60
 -12 -14   1    8.10    1.59
 -12 -14  -2    3.37    1.46
 -12 -14   2    4.00    3.52
 -12 -14  -2    2.89    3.65
 -12 -14   2    2.16    1.53
 -12 -14   2    3.12    1.92
 -12 -14  -2   -2.72    5.97
 -12 -14  -2    2.91    1.52
 -12 -14   2    3.69    1.44
 -12 -14  -2    3.16    1.52
 -12 -14  -3    8.15    1.70
 -12 -14  -3    8.42    1.60
 -12 -14   3    8.46    1.89
 -12 -14  -3    7.29    1.62
 -12 -14   3    8.51    1.65
 -12 -14   3   11.63    4.63
 -12 -14  -3    6.01    4.79
 -12 -14  -4   13.30    1.80
 -12 -14  -4   14.04    1.89
 -12 -14   4   15.01    2.25
 -12 -14   4   13.81    2.14
 -12 -14  -4   12.62    1.81
 -12 -14   4   12.87    1.70
 -12 -14  -4   11.09    5.68
 -12 -14   4   15.80    5.73
 -12 -14  -5   -1.38    5.41
 -12 -14   5    0.18    5.74
 -12 -14   5   -2.74    1.86
 -12 -14   5    2.10    1.67
 -12 -14  -5    1.66    1.43
 -12 -14  -5   -0.07    1.36
 -12 -14  -6    0.70    1.36
 -12 -14   6   -0.44    1.61
 -12 -14  -6    1.32    1.34
 -12 -14  -6    0.15    1.32
 -12 -14  -7    0.33    1.26
 -12 -14   7    0.46    1.55
 -12 -14   7   -1.58    1.71
 -12 -14  -7   -0.97    1.28
 -12 -14  -7    0.49    1.32
 -12 -14   8   -0.49    1.53
 -12 -14   8   -0.45    1.41
 -12 -14  -8    1.72    1.25
 -12 -14  -8   -0.46    1.29
 -12 -14   9    1.24    1.31
 -12 -14  -9   -1.10    1.20
 -12 -14   9   -1.98    1.62
 -12 -14  -9    0.76    1.09
 -12 -14  10    1.46    1.13
  14 -12  10    2.20    1.33
 -12 -14 -10    1.33    0.97
 -12 -14  11    0.60    0.78
  14 -12  11    1.35    0.94
 -11 -14   0    0.41    1.24
 -11 -14   0    0.42    1.39
 -11 -14   0    1.23    1.71
 -11 -14   0    0.59    1.72
 -11 -14   0    0.99    1.28
 -11 -14   0    0.90    1.38
 -11 -14  -1    4.43    1.49
 -11 -14   1    3.90    1.44
 -11 -14  -1    4.98    1.90
 -11 -14   1    4.67    1.95
 -11 -14  -1    5.66    2.10
 -11 -14   1    5.62    1.70
 -11 -14  -1    3.45    1.53
 -11 -14   1    2.59    1.44
 -11 -14   1    6.05    1.59
 -11 -14   2   58.46    3.39
 -11 -14  -2   61.53    3.41
 -11 -14  -2   56.06    3.43
 -11 -14   2   58.62    3.51
 -11 -14  -2   61.39    3.47
 -11 -14   2   59.36    3.58
 -11 -14  -2   60.91    3.66
 -11 -14  -2   49.09    5.03
 -11 -14   2   66.86    3.72
 -11 -14  -3    2.97    1.54
 -11 -14   3    1.91    2.26
 -11 -14  -3    2.22    2.26
 -11 -14  -3    3.08    1.54
 -11 -14   3    1.95    1.48
 -11 -14  -3    1.37    1.40
 -11 -14   3    1.18    1.65
 -11 -14   4   13.61    2.22
 -11 -14   4   16.53    2.24
 -11 -14   4   15.01    3.72
 -11 -14  -4   12.25    3.59
 -11 -14  -4   15.85    1.95
 -11 -14   4   15.95    1.76
 -11 -14  -4   17.03    1.94
 -11 -14  -5   13.71    1.92
 -11 -14  -5   14.44    1.84
 -11 -14   5   13.86    2.13
 -11 -14   5   13.02    2.21
 -11 -14  -5   13.40    1.80
 -11 -14  -5    8.73    4.80
 -11 -14   5   11.62    5.07
 -11 -14  -6    1.22    1.41
 -11 -14   6    0.15    1.72
 -11 -14  -6    2.00    1.50
 -11 -14  -6    0.69    1.38
 -11 -14  -7    6.38    1.60
 -11 -14   7    3.17    1.70
 -11 -14   7    4.81    1.85
 -11 -14  -7    4.19    1.62
 -11 -14  -7    4.54    1.51
 -11 -14   8   -0.15    1.55
 -11 -14   8    2.60    1.52
 -11 -14  -8    2.11    1.36
 -11 -14  -8    2.41    1.39
 -11 -14   9    0.49    1.28
 -11 -14   9   -0.52    1.42
 -11 -14  -9    1.62    1.20
 -11 -14  10    0.37    1.18
 -11 -14 -10   -0.13    1.06
 -11 -14  11    1.55    0.93
  14 -11  11    0.14    1.00
 -11 -14 -11   -0.12    0.95
 -10 -14   0  107.52    4.89
 -10 -14   0   95.67    4.86
 -10 -14   0   96.30    4.70
 -10 -14   0   96.93    4.76
 -10 -14   0   97.07    4.89
 -10 -14   1   39.14    2.67
 -10 -14   1   42.09    2.73
 -10 -14  -1   41.41    2.71
 -10 -14  -1   35.42    2.66
 -10 -14   1   39.20    2.57
 -10 -14  -1   38.08    2.74
 -10 -14   1   37.13    2.66
 -10 -14   1   36.44    2.74
 -10 -14  -1   32.77    2.68
 -10 -14  -2   12.90    1.81
 -10 -14   2   10.10    1.59
 -10 -14  -2   10.85    1.82
 -10 -14   2   13.16    1.92
 -10 -14  -2    9.76    2.43
 -10 -14   2   14.29    2.00
 -10 -14   2   11.64    1.87
 -10 -14  -2   11.38    1.94
 -10 -14   2   11.76    1.77
 -10 -14  -2   11.35    1.71
 -10 -14   3  222.01    9.23
 -10 -14  -3  200.06    8.97
 -10 -14   3  217.20    9.26
 -10 -14  -3  200.52    8.89
 -10 -14   3  213.65    9.03
 -10 -14  -3  213.01    9.13
 -10 -14   3  215.09    8.96
 -10 -14  -3  217.23    9.05
 -10 -14   4   38.64    2.91
 -10 -14   4   32.71    2.96
 -10 -14   4   34.11    2.69
 -10 -14  -4   39.33    2.93
 -10 -14  -4   36.20    2.77
 -10 -14  -4   33.08    2.54
 -10 -14   4   35.00    2.63
 -10 -14   5    1.74    2.84
 -10 -14  -5   -2.95    3.06
 -10 -14   5   -1.99    1.88
 -10 -14  -5    0.29    1.37
 -10 -14  -5    0.24    1.48
 -10 -14   5    0.83    1.77
 -10 -14  -5   -0.35    1.29
 -10 -14   6    4.77    1.90
 -10 -14  -6    4.15    1.50
 -10 -14  -6    2.95    1.54
 -10 -14   6    4.33    1.99
 -10 -14  -6    4.10    1.49
 -10 -14  -7    3.98    1.54
 -10 -14  -7    1.92    1.52
 -10 -14   7    2.30    1.76
 -10 -14  -7    2.32    1.46
 -10 -14   8   -1.26    1.59
 -10 -14   8   -0.41    1.64
 -10 -14  -8   -0.54    1.34
 -10 -14  -9    3.72    1.40
 -10 -14  -9    3.10    1.45
 -10 -14   9    3.43    1.47
 -14  10  -9    3.30    1.33
 -10 -14   9    5.93    1.67
 -10 -14 -10    0.06    1.16
 -10 -14  10   -0.29    1.29
 -14  10 -10   -1.42    1.20
 -10 -14  11    1.08    1.04
 -14  10 -11   -1.27    1.06
 -10 -14 -11   -0.96    1.05
  14 -10  11   -0.73    1.12
 -10 -14 -12    0.22    0.78
  -9 -14   0    3.03    1.71
  -9 -14   0    2.07    1.75
  -9 -14   0    4.77    1.79
  -9 -14   0    2.73    1.58
  -9 -14   0    1.82    1.76
  -9 -14  -1  412.39   15.54
  -9 -14   1  361.96   15.36
  -9 -14  -1  406.80   15.50
  -9 -14   1  411.21   15.49
  -9 -14   1  418.77   15.59
  -9 -14  -1  392.83   15.47
  -9 -14   1  374.47   15.46
  -9 -14  -1  360.86   15.33
  -9 -14  -1  387.75   15.50
  -9 -14   1  389.92   15.46
  -9 -14   1  385.30   15.38
  -9 -14  -2  110.40    5.40
  -9 -14   2  122.92    5.57
  -9 -14   2  109.18    5.52
  -9 -14  -2  118.10    5.43
  -9 -14   2  115.59    5.34
  -9 -14   2  113.19    5.47
  -9 -14  -2  114.52    5.45
  -9 -14   2  115.29    5.42
  -9 -14  -2  112.40    5.46
  -9 -14  -3   79.00    4.37
  -9 -14   3   88.33    4.51
  -9 -14   3   94.63    4.77
  -9 -14   3   93.94    4.71
  -9 -14  -3   88.73    4.61
  -9 -14   3   84.39    4.40
  -9 -14  -3   91.13    4.51
  -9 -14   4   51.17    3.31
  -9 -14  -4   53.56    3.20
  -9 -14  -4   48.90    3.24
  -9 -14   4   62.05    3.62
  -9 -14  -4   52.84    3.33
  -9 -14  -4   51.73    3.28
  -9 -14   4   54.10    3.21
  -9 -14  -5   39.50    2.87
  -9 -14   5   44.57    3.27
  -9 -14  -5   41.94    2.92
  -9 -14   5   40.67    2.87
  -9 -14  -5   39.78    3.00
  -9 -14   5   45.17    3.15
  -9 -14  -5   41.45    2.79
  -9 -14  -6    4.81    1.54
  -9 -14   6    4.52    1.91
  -9 -14  -6    3.66    1.50
  -9 -14   6    4.77    1.93
  -9 -14   7    1.47    1.70
  -9 -14  -7    1.39    1.37
  -9 -14  -8    0.71    1.46
  -9 -14   8    0.71    1.59
  -9 -14  -8    0.08    1.44
 -14   9  -8    0.96    1.34
  -9 -14   8    1.28    1.63
  -9 -14  -9    5.95    1.60
  -9 -14   9    7.56    1.72
  -9 -14  -9    7.01    1.66
 -14   9  -9   10.23    1.68
  -9 -14   9    8.22    1.88
  -9 -14 -10   -0.05    1.17
  -9 -14 -10    0.74    1.20
  -9 -14  10   -0.32    1.40
  -9 -14  10    0.32    1.12
 -14   9 -10    2.81    1.33
  -9 -14 -11   -1.74    1.15
 -14   9 -11    0.56    1.12
  -9 -14  11    1.76    1.15
  -9 -14 -12    2.12    0.88
  -9 -14  12    0.46    0.78
  -8 -14   0   85.34    4.26
  -8 -14   0   81.43    4.33
  -8 -14   0   92.98    4.44
  -8 -14  -1    3.93    1.62
  -8 -14   1    5.75    1.58
  -8 -14   1    4.22    1.69
  -8 -14  -1    4.70    1.72
  -8 -14   1    6.58    1.84
  -8 -14   1    5.94    1.52
  -8 -14  -1    3.54    1.58
  -8 -14   1    4.03    1.65
  -8 -14  -1    3.30    1.61
  -8 -14   2  463.40   18.72
  -8 -14  -2  473.91   18.78
  -8 -14   2  512.06   18.71
  -8 -14   2  503.18   18.84
  -8 -14  -2  469.84   18.65
  -8 -14   2  474.51   18.83
  -8 -14  -2  487.03   18.82
  -8 -14  -2  463.27   18.67
  -8 -14   2  458.12   18.64
  -8 -14   3  309.41   12.14
  -8 -14   3  305.89   11.97
  -8 -14  -3  293.50   11.82
  -8 -14  -3  279.92   11.95
  -8 -14   3  282.74   11.77
  -8 -14   3  280.40   11.80
  -8 -14  -3  295.90   11.86
  -8 -14   3  294.67   12.04
  -8 -14  -4    2.30    1.53
  -8 -14  -4    2.55    1.55
  -8 -14   4    3.93    1.70
  -8 -14   4    0.39    1.44
  -8 -14  -4    2.71    1.40
  -8 -14  -4    1.64    1.38
  -8 -14   4    2.70    1.57
  -8 -14   5   21.52    2.06
  -8 -14   5   21.77    2.21
  -8 -14  -5   22.85    2.05
  -8 -14  -5   21.68    2.14
  -8 -14   5   25.98    2.62
  -8 -14   5   20.78    2.53
  -8 -14  -6   67.45    3.95
  -8 -14   6   80.52    4.54
  -8 -14  -6   75.07    4.06
  -8 -14   6   74.56    4.40
  -8 -14   7   10.32    2.06
  -8 -14   7    6.83    1.68
  -8 -14  -7    6.42    1.72
  -8 -14  -7    7.12    1.70
 -14   8  -7   10.41    1.67
 -14   8  -8   -0.07    1.38
  -8 -14   8    1.40    1.58
  -8 -14   8    2.64    1.50
  -8 -14  -8   -1.42    1.46
  -8 -14  -8   -2.21    1.53
  -8 -14   8    0.18    1.62
 -14   8  -9   -0.36    1.43
  -8 -14   9    1.02    1.51
  -8 -14   9    2.15    1.37
  -8 -14   9    1.68    1.67
  -8 -14  -9    0.48    1.41
  -8 -14  -9   -0.07    1.36
  -8 -14  10    1.30    1.41
  -8 -14 -10    0.26    1.27
 -14   8 -10    0.07    1.36
  -8 -14  10    0.60    1.23
 -14   8 -11    1.64    1.28
  -8 -14 -11    0.59    1.17
  -8 -14  11    1.46    1.26
 -14   8 -12    0.95    1.05
  -8 -14 -12   -0.97    1.03
  -8 -14  12   -0.51    0.92
  14  -7   0   -2.37    2.33
  -7 -14   0    0.07    1.44
  -7 -14  -1   57.88    4.39
  -7 -14   1   62.88    4.57
  -7 -14  -1   57.88    3.35
  -7 -14   1   53.64    3.30
  14  -7  -1   63.97    4.46
  -7 -14   2    1.26    1.60
  -7 -14  -2    0.90    1.31
  -7 -14  -2    0.46    1.46
  -7 -14   2    1.01    1.42
  -7 -14  -2    0.91    1.37
  -7 -14  -2   -2.15    2.60
  -7 -14   2   -0.57    2.05
  14  -7  -2    2.34    2.19
  -7 -14   2    1.98    2.48
  -7 -14   2    1.58    1.65
  -7 -14  -3  583.43   23.34
  -7 -14   3  626.69   23.51
  -7 -14   3  610.04   23.24
  -7 -14  -3  600.57   23.26
  -7 -14   3  591.28   23.42
  -7 -14   3  646.64   23.40
  -7 -14  -3  578.57   23.12
  -7 -14   3  586.90   23.14
  -7 -14  -3  605.36   23.22
  14  -7  -3  591.23   24.77
  -7 -14   4  145.70    6.60
  -7 -14   4  149.50    6.48
  -7 -14  -4  135.09    6.15
  -7 -14  -4  138.09    6.38
  -7 -14  -4  140.24    6.24
  -7 -14   4  128.68    6.13
  -7 -14   5    8.77    1.49
  -7 -14  -5    8.22    1.73
  -7 -14   5    9.20    2.02
  -7 -14   5   10.17    2.11
  -7 -14  -5    9.49    1.70
  -7 -14   5    9.61    1.79
  -7 -14  -5    7.72    1.58
  -7 -14  -6   -0.22    1.38
  -7 -14   6   -0.09    1.80
  -7 -14  -6   -0.65    1.43
  -7 -14   6   -1.09    1.56
  -7 -14   6   -1.68    1.91
  -7 -14  -7   92.55    4.70
  -7 -14  -7   80.70    4.66
  -7 -14   7   81.90    4.78
 -14   7  -7   82.24    4.52
 -14   7  -8    0.69    1.45
  -7 -14   8    1.79    1.49
 -14   7  -8    1.33    1.55
  -7 -14  -8    1.73    1.48
  -7 -14   8    0.98    1.76
  -7 -14  -8   -1.11    1.51
  -7 -14   8   -0.15    1.74
 -14   7  -9   -0.23    1.47
  -7 -14   9    0.72    1.47
 -14   7  -9    1.23    1.49
  -7 -14   9    0.34    1.56
  -7 -14  -9    2.32    1.49
  -7 -14   9    1.90    1.60
  -7 -14  -9   -1.35    1.45
  -7 -14  10    0.79    1.56
 -14   7 -10    4.08    1.50
  -7 -14  10    1.68    1.33
  -7 -14 -10    1.83    1.38
  -7 -14  10    5.59    1.54
 -14   7 -11   -0.24    1.32
  -7 -14  11    2.98    1.39
  -7 -14 -11    2.36    1.25
  -7 -14  12    8.91    1.32
  -7 -14  12    7.55    1.36
 -14   7 -12    8.22    1.47
  -6 -14   0  226.98    9.25
  14  -6   0  209.46   10.41
  -6 -14   1    1.99    2.32
  14  -6  -1    0.82    2.14
  -6 -14  -1    3.37    2.28
  -6 -14   1    1.58    1.83
  -6 -14   1    2.08    1.46
  -6 -14  -1    3.78    1.55
  -6 -14   2   32.97    2.38
  -6 -14  -2   32.87    2.42
  14  -6  -2   32.57    3.43
  -6 -14   2   41.31    3.93
 -14   6   2   30.12    4.16
  -6 -14  -3    6.28    1.55
  -6 -14   3    5.56    1.83
  14  -6  -3    7.70    2.51
  -6 -14  -3    6.05    1.57
  -6 -14   3    4.42    1.43
  -6 -14   3    9.73    2.84
  -6 -14  -4   36.67    2.73
  -6 -14   4   40.00    2.86
  -6 -14  -4   35.74    2.51
  -6 -14   4   43.74    2.97
  -6 -14   4   41.02    2.60
  -6 -14  -4   41.03    2.67
  -6 -14   4   39.76    2.67
  -6 -14  -4   41.48    2.70
  -6 -14  -5   30.86    2.58
  -6 -14   5   32.99    2.73
  -6 -14  -5   36.25    2.49
  -6 -14  -5   35.79    2.52
  -6 -14   5   42.61    2.98
  -6 -14   5   31.82    2.35
  -6 -14   5   40.94    3.09
  -6 -14  -6    6.92    1.68
  -6 -14   6    5.78    1.69
  -6 -14  -6    4.37    1.53
 -14   6  -6    4.74    1.49
 -14   6  -6    4.57    1.92
  -6 -14   6    4.93    1.97
  -6 -14   6    6.22    1.99
  -6 -14   7    8.18    1.94
  -6 -14  -7   14.24    1.89
 -14   6  -7   12.89    1.94
 -14   6  -7    9.42    2.12
  -6 -14   7   13.64    2.22
  -6 -14  -7   11.97    1.92
 -14   6  -8   43.89    3.11
 -14   6  -8   39.17    3.30
  -6 -14  -8   38.86    2.98
  -6 -14   8   48.30    3.51
 -14   6  -9    1.74    1.50
  -6 -14   9    1.60    1.69
  -6 -14  -9    0.76    1.35
 -14   6  -9    0.28    1.61
  -6 -14   9    3.23    1.61
 -14   6 -10    6.36    1.68
  -6 -14  10    6.12    1.60
  -6 -14  10    5.93    1.76
  -6 -14 -10    5.02    1.51
 -14   6 -10    2.93    1.72
  -6 -14  10    2.49    1.48
 -14   6 -11    6.13    1.70
  -6 -14  11    6.01    1.62
  -6 -14  11    6.12    1.65
  -6 -14 -11    2.37    1.47
 -14   6 -11    9.44    1.73
  -6 -14  12    9.08    1.42
 -14   6 -12    9.88    1.51
  -6 -14 -12    6.89    1.37
  -5 -14   0    0.34    1.37
  -5 -14   0   -0.18    2.07
 -14   5   0    0.71    3.18
 -14   5   1  219.98   10.90
  14  -5  -1  192.28    9.61
  -5 -14   1  213.52   10.16
  -5 -14   1  197.63    8.48
  -5 -14  -1  188.54    8.46
  14  -5  -2    1.18    2.28
  -5 -14   2    1.69    1.32
  -5 -14  -2    0.27    1.32
 -14   5  -2    1.06    3.33
 -14   5   2    1.53    2.82
  -5 -14   2    3.04    2.41
  -5 -14   3   42.20    4.51
  -5 -14   3   43.17    2.72
  -5 -14  -3   41.43    2.80
  14  -5  -3   45.76    4.08
 -14   5  -3   50.79    4.73
 -14   5   3   50.55    4.52
 -14   5  -3   53.96    5.61
 -14   5  -4    1.17    2.35
 -14   5   4    1.95    2.35
  -5 -14   4    3.56    1.34
  -5 -14  -4    4.91    1.50
  -5 -14   4    4.07    1.58
  -5 -14  -4    3.05    1.44
  14  -5  -4    1.78    2.45
  -5 -14  -4    2.26    1.48
  -5 -14   4    2.47    1.59
  -5 -14   5    4.36    1.33
  -5 -14  -5    2.98    1.54
  -5 -14  -5    6.06    1.50
 -14   5  -5    5.09    1.43
 -14   5  -5    4.84    1.85
  -5 -14   5    6.73    1.84
  -5 -14   6    1.29    1.52
  -5 -14  -6    1.27    1.39
  -5 -14  -6    0.63    1.29
 -14   5  -6   -0.52    1.40
 -14   5  -6    0.91    1.73
  -5 -14   6    1.59    1.82
  -5 -14  -7   13.33    1.94
  -5 -14  -7   15.06    1.94
 -14   5  -7   11.04    2.17
  -5 -14   7   13.78    2.32
 -14   5  -8    0.08    1.55
  -5 -14   8    1.82    1.77
 -14   5  -8    3.36    1.76
  -5 -14  -8    0.31    1.41
 -14   5  -9    4.62    1.77
  -5 -14   9    7.01    1.86
  -5 -14   9    3.75    1.73
 -14   5  -9    4.85    1.86
  -5 -14  -9    2.82    1.51
 -14   5 -10    2.17    1.55
  -5 -14  10   -0.31    1.68
  -5 -14  10    0.67    1.39
  -5 -14 -10    1.43    1.32
 -14   5 -10   -0.83    1.68
  -5 -14  11    9.24    1.74
  -5 -14  11   10.65    1.76
 -14   5 -11    4.70    1.69
  -5 -14 -11    7.97    1.61
 -14   5 -11    6.77    1.87
 -14   5 -12    2.00    1.23
  -5 -14 -12   -0.15    1.13
  -5 -14  12    1.64    1.13
 -14   5 -12    1.14    1.30
  -5 -14  13    0.61    0.79
 -14   5 -13   -0.40    0.78
  -4 -14   0   37.14    3.32
 -14   4   0   28.54    4.19
  -4 -14   0   28.96    2.27
 -14   4  -1    4.30    2.87
 -14   4   1    2.14    2.66
  14  -4  -1    2.17    2.20
 -14   4  -1    0.25    3.15
 -14   4   1    1.10    2.75
  -4 -14   1   -1.64    2.19
  -4 -14  -1    0.60    1.38
  -4 -14   1    0.98    1.42
 -14   4  -2   91.45    6.42
 -14   4   2   96.84    6.12
  14  -4  -2   87.97    5.43
  -4 -14  -2   77.54    4.13
  -4 -14   2   75.38    4.08
  -4 -14   2   85.77    5.69
 -14   4  -2  101.17    7.20
 -14   4   2  102.85    6.39
  14  -4  -3   -1.72    2.37
 -14   4  -3   -0.23    2.58
 -14   4   3    1.48    2.17
  -4 -14  -3    0.78    1.40
  -4 -14   3    0.06    1.23
 -14   4  -3   -0.27    3.23
  -4 -14   3    1.04    2.07
 -14   4  -4    1.98    3.56
  -4 -14   4    7.38    2.81
  -4 -14   4    7.02    1.43
  -4 -14  -4    5.60    1.46
  14  -4  -4    4.30    2.51
 -14   4  -4    6.08    2.65
 -14   4   4    5.04    2.37
  -4 -14   4    5.59    1.69
 -14   4  -5    4.96    1.73
  -4 -14   5    1.04    1.61
 -14   4  -5    6.01    1.50
  -4 -14   5    1.18    1.51
  -4 -14  -5    2.72    1.34
  -4 -14  -5    2.19    1.49
  -4 -14   5    2.20    1.77
  -4 -14   5    1.23    1.28
  -4 -14   6    0.54    1.70
  -4 -14   6   -0.10    1.61
  -4 -14  -6    1.17    1.41
  -4 -14   6    1.16    1.85
 -14   4  -6   -2.57    1.59
 -14   4  -6    0.40    1.62
  -4 -14  -6   -0.20    1.24
  -4 -14  -7    7.20    1.66
 -14   4  -7    7.26    1.74
 -14   4  -7    5.30    1.92
  -4 -14   7   10.81    2.13
  -4 -14   7    7.73    2.08
  -4 -14  -7    6.18    1.70
 -14   4  -8    2.17    1.66
 -14   4  -8    0.51    1.65
  -4 -14   8    0.74    1.61
  -4 -14   8    2.86    1.68
  -4 -14  -8    0.47    1.36
 -14   4  -9   -0.51    1.70
  -4 -14  -9    1.90    1.38
  -4 -14   9   -0.44    1.63
 -14   4  -9   -1.21    1.73
 -14   4 -10    2.51    1.60
 -14   4 -10    2.71    1.72
  -4 -14  10    0.71    1.56
  -4 -14  10   -0.19    1.43
  -4 -14 -10   -1.23    1.38
 -14   4 -11    3.79    1.53
 -14   4 -11   -0.52    1.60
  -4 -14  11    0.51    1.47
  -4 -14  11    1.80    1.44
  -4 -14 -11    1.03    1.30
  -4 -14  12    2.33    1.15
  -4 -14 -12    2.96    1.12
 -14   4 -12    1.87    1.41
 -14   4 -12   -0.88    1.35
  -4 -14  13    1.24    0.83
 -14   4 -13    0.95    0.80
  -3 -14   0    0.79    1.32
  -3 -14   0    0.64    1.95
 -14   3   0    1.59    2.86
 -14   3   0    1.95    2.33
 -14   3  -1    0.24    2.83
 -14   3   1    2.58    2.52
  -3 -14   1    1.73    1.97
  -3 -14  -1    1.39    1.39
  -3 -14   1    1.62    1.36
  14  -3  -1    2.38    2.24
 -14   3  -1    0.22    2.85
 -14   3   1    2.93    2.48
 -14   3  -2   21.41    4.09
 -14   3   2   21.94    3.31
  -3 -14   2   15.35    2.88
  -3 -14  -2   18.20    1.87
  -3 -14   2   17.12    1.77
  14  -3  -2   20.22    2.94
 -14   3  -2   20.66    3.37
 -14   3   2   24.27    3.30
 -14   3  -3   18.85    3.19
 -14   3   3   19.42    3.15
 -14   3  -3   19.13    3.89
  -3 -14   3   18.80    3.31
  -3 -14   3   15.52    1.74
  -3 -14  -3   16.19    1.82
  14  -3  -3   17.37    3.03
 -14   3  -4   -0.74    1.29
  -3 -14  -4    0.06    1.31
  -3 -14   4   -0.98    1.26
  14  -3  -4    0.18    2.33
 -14   3  -4    0.55    3.43
  -3 -14   4   -1.82    2.66
 -14   3  -4   -1.04    2.30
 -14   3   4   -1.38    2.25
  -3 -14   4    0.59    1.52
 -14   3  -5    3.15    1.63
 -14   3  -5    0.30    1.42
  -3 -14   5    1.85    1.59
  -3 -14  -5    5.30    1.45
  -3 -14  -5    1.09    1.31
  -3 -14   5    0.06    1.20
  -3 -14   5    1.38    1.59
  -3 -14   6    9.83    2.01
 -14   3  -6    8.96    1.98
  -3 -14   6   11.04    2.11
  -3 -14   6    7.27    1.81
  -3 -14  -6    6.51    1.67
 -14   3  -6   10.59    1.79
  -3 -14  -6    6.52    1.46
  -3 -14   6    8.06    1.91
 -14   3  -7    1.04    1.61
  -3 -14   7   -0.08    1.77
  -3 -14   7    1.27    1.66
  -3 -14  -7    0.69    1.34
 -14   3  -7    1.92    1.75
  -3 -14   8    3.82    1.86
 -14   3  -8    2.68    1.82
  -3 -14  -8    2.90    1.52
 -14   3  -8    0.36    1.71
 -14   3  -9    4.94    1.77
  -3 -14   9    1.19    1.70
  -3 -14   9    0.43    1.77
  -3 -14  -9    2.17    1.36
 -14   3  -9    4.23    1.82
 -14   3 -10    1.01    1.68
  -3 -14  10    0.38    1.48
  -3 -14  10   -0.64    1.56
 -14   3 -10    3.38    1.80
  -3 -14 -10    0.29    1.32
  -3 -14 -11    2.71    1.35
 -14   3 -11    0.89    1.57
  -3 -14  11   -0.49    1.22
  -3 -14  11    3.14    1.64
  -3 -14  11    3.62    1.57
 -14   3 -11    1.26    1.73
  -3 -14  12    2.26    1.21
 -14   3 -12    0.29    1.45
 -14   3 -12    1.04    1.36
 -14   3 -13    1.36    0.86
  -3 -14  13    0.65    0.84
  -2 -14   0    2.31    1.37
 -14   2   0    3.30    2.43
 -14   2   0    1.07    2.65
  -2 -14   1    8.38    1.52
  -2 -14  -1    8.16    1.56
 -14   2  -1   10.49    2.73
 -14   2   1   10.18    2.55
  14  -2  -1   12.24    2.64
 -14   2  -1   13.46    3.03
 -14   2   1   11.07    3.03
  -2 -14   1    8.54    2.35
  -2 -14  -2   13.43    1.78
  -2 -14   2   14.60    1.68
 -14   2  -2   15.79    2.96
 -14   2   2   15.85    2.75
  14  -2  -2   18.07    2.86
 -14   2  -2   11.39    3.55
 -14   2   2   16.20    3.07
  -2 -14   2   16.28    2.89
 -14   2  -3    1.26    3.36
  -2 -14   3    2.83    2.41
 -14   2  -3    2.67    1.24
  -2 -14   3    2.48    1.33
  -2 -14  -3    2.17    1.31
 -14   2  -3    2.82    2.34
 -14   2   3    4.87    2.34
  14  -2  -3    1.22    2.37
  -2 -14   4    4.93    1.72
  -2 -14  -4    1.27    1.19
 -14   2  -4    1.68    1.32
  14  -2  -4    0.54    2.39
  -2 -14  -4    0.81    1.23
  -2 -14   4    2.30    1.31
 -14   2  -4    1.81    1.65
 -14   2  -4    3.49    2.35
 -14   2   4    2.05    2.22
 -14   2  -4    1.80    3.26
  -2 -14   4    5.28    2.65
 -14   2  -5   20.21    2.23
 -14   2  -5   21.24    2.14
  -2 -14  -5   17.51    1.81
  -2 -14  -5   21.19    2.12
  -2 -14   5   17.97    2.12
  -2 -14   5   18.72    1.74
 -14   2  -5   18.27    4.00
  -2 -14   5   20.43    2.38
  -2 -14   6    2.30    1.75
  -2 -14   6    1.31    1.73
 -14   2  -6    1.92    1.55
  -2 -14  -6   -0.30    1.35
  -2 -14   6    2.48    1.56
 -14   2  -6    2.72    1.67
 -14   2  -7    5.11    1.84
 -14   2  -7    6.29    1.84
  -2 -14   7    6.96    1.79
  -2 -14  -7    4.51    1.55
  -2 -14   7    5.79    1.94
  -2 -14   7    7.83    2.01
  -2 -14  -8    2.67    1.38
 -14   2  -8    2.53    1.78
  -2 -14   8    1.98    1.79
 -14   2  -8    2.77    1.72
  -2 -14   9    0.35    1.60
 -14   2  -9    2.98    1.81
  -2 -14   9    2.09    1.65
  -2 -14  -9    0.51    1.32
 -14   2  -9   -0.52    1.71
 -14   2 -10    3.61    1.77
  -2 -14  10   -0.85    1.47
  -2 -14  10    2.82    1.63
 -14   2 -10   -1.40    1.74
 -14   2 -10   -0.07    1.42
  -2 -14 -10   -0.28    1.31
 -14   2 -11    1.10    1.69
 -14   2 -11    0.08    1.57
  -2 -14  11    0.10    1.21
  -2 -14  12   -0.54    1.16
 -14   2 -12   -0.53    1.53
 -14   2 -12    2.23    1.24
  -2 -14  13   -0.50    0.86
 -14   2 -13   -0.89    1.20
 -14   2 -13    1.72    0.84
 -14   1   0    2.03    2.34
 -14   1   0    3.04    2.38
  -1 -14   0   -0.87    1.48
 -14   1  -1   10.18    3.18
 -14   1   1   10.83    2.95
  -1 -14   1   10.95    2.38
 -14   1  -1    6.20    2.59
 -14   1   1   11.08    2.79
  -1 -14  -1   10.02    1.66
  -1 -14   1   10.73    1.63
 -14   1   2   23.73    3.43
  -1 -14   2   21.78    3.16
 -14   1  -2   20.88    3.21
 -14   1   2   25.79    3.10
  -1 -14   2   20.93    2.02
  -1 -14  -2   19.61    1.90
 -14   1  -3    4.79    3.07
  -1 -14   3    4.94    2.54
  -1 -14   3    6.03    1.37
  -1 -14  -3    4.98    1.47
 -14   1  -3    4.34    2.28
 -14   1   3    2.15    2.15
 -14   1  -4   -0.55    2.17
 -14   1   4    6.74    2.30
 -14   1  -4    4.84    3.09
  -1 -14   4    7.29    2.70
  -1 -14  -4    4.68    1.33
  -1 -14  -4    6.17    1.45
  -1 -14   4    4.28    1.32
 -14   1  -4    2.68    1.58
 -14   1  -4    3.26    1.40
  -1 -14   5    0.90    1.41
 -14   1  -5    3.08    1.53
  -1 -14  -5    1.18    1.24
  -1 -14   5    3.68    2.77
 -14   1  -5   -1.20    2.84
  -1 -14   5    0.69    1.19
  -1 -14   5    2.05    2.23
 -14   1  -5    2.05    1.61
  -1 -14  -6   15.45    1.79
  -1 -14   6   17.40    2.08
 -14   1  -6   14.80    2.13
  -1 -14   6   15.75    2.34
  -1 -14  -6   14.72    1.88
  -1 -14   6   14.19    2.31
 -14   1  -6   17.21    2.22
  -1 -14   6   17.17    2.19
 -14   1  -7    5.27    1.83
  -1 -14   7    5.83    1.92
  -1 -14   7    7.86    1.93
  -1 -14  -7    2.04    1.33
  -1 -14   7    5.96    1.72
 -14   1  -7   10.19    1.98
  -1 -14  -7    2.03    1.41
  -1 -14   7    3.01    1.83
 -14   1  -8   27.01    2.70
 -14   1  -8   29.90    2.84
  -1 -14   8   25.20    2.47
  -1 -14  -8   19.88    2.26
 -14   1  -9   -0.72    1.80
 -14   1  -9   -0.87    1.89
  -1 -14   9   -1.12    1.63
  -1 -14   9   -1.31    1.72
  -1 -14  10   -0.57    1.62
 -14   1 -10    1.63    1.80
 -14   1 -10   -0.20    1.74
 -14   1 -10    1.20    1.41
  -1 -14  10    0.73    1.64
  -1 -14  10    0.33    1.51
  -1 -14  11    3.71    1.28
 -14   1 -11    3.03    1.70
  -1 -14  11    1.69    1.56
  -1 -14  11    0.38    1.54
 -14   1 -12    0.17    1.19
 -14   1 -12   -1.84    1.49
  -1 -14  12    0.71    1.22
 -14   1 -13    1.13    0.93
 -14   1 -13    1.70    1.21
  -1 -14  13    2.92    1.00
   0 -14   0   13.80    1.77
 -14   0   0   14.27    2.90
 -14   0   0   15.72    2.92
   0 -14   1    1.78    1.39
   0 -14  -1    0.75    1.39
 -14   0  -1    2.39    2.25
 -14   0   1    2.12    2.24
  14   0  -1    0.69    2.46
 -14   0  -1    3.09    2.80
 -14   0   1    0.37    2.46
   0 -14   1    1.56    1.97
 -14   0   2   76.65    5.38
   0 -14   2   83.16    5.39
 -14   0  -2   86.33    5.63
 -14   0   2   85.29    5.40
  14   0  -2   82.85    5.36
   0 -14   2   76.39    3.94
   0 -14  -2   70.13    4.01
   0 -14   3   96.23    6.23
   0 -14  -3   93.56    4.63
   0 -14   3   91.66    4.62
  14   0  -3  100.47    6.17
 -14   0  -3   99.40    6.05
 -14   0   3  106.10    6.07
 -14   0  -3  106.95    6.96
 -14   0  -4   63.81    3.56
 -14   0  -4   60.57    3.68
 -14   0  -4   79.39    5.77
   0 -14   4   62.70    3.39
   0 -14  -4   63.27    3.46
   0 -14   4   66.88    5.37
  14   0  -4   74.79    5.19
 -14   0  -4   67.58    4.81
 -14   0   4   56.74    4.63
   0 -14  -4   61.09    3.38
   0 -14   5   35.08    2.36
   0 -14   5   36.11    2.57
 -14   0  -5   37.13    2.73
 -14   0  -5   32.76    2.83
 -14   0  -5   31.15    4.27
   0 -14   5   35.44    4.42
   0 -14  -5   35.33    2.49
  14   0  -5   32.84    4.12
   0 -14   5   35.60    3.86
 -14   0  -6   33.34    2.82
   0 -14  -6   32.29    2.52
   0 -14   6   36.64    2.73
   0 -14   6   35.56    2.81
   0 -14   6   33.60    2.90
 -14   0  -6   31.76    2.82
 -14   0  -7   64.79    4.10
 -14   0  -7   53.43    3.89
   0 -14   7   67.01    3.96
   0 -14   7   66.28    4.00
   0 -14  -7   54.79    3.52
   0 -14   7   64.99    3.75
   0 -14   8   -1.36    1.40
   0 -14   8   -1.11    1.69
   0 -14   8    0.63    1.59
 -14   0  -8   -2.56    1.81
 -14   0  -8    1.88    1.93
 -14   0  -9    4.35    2.07
   0 -14   9    4.37    1.74
 -14   0  -9    5.03    1.82
 -14   0  -9    2.68    1.72
   0 -14   9    2.20    1.88
 -14   0 -10    1.50    1.73
   0 -14  10    1.65    1.65
   0 -14  10    0.40    1.49
 -14   0 -10    2.48    1.47
   0 -14  10    1.90    1.68
   0 -14  11    3.13    1.28
 -14   0 -11    1.65    1.51
 -14   0 -11   -1.00    1.65
 -14   0 -12    2.13    1.44
   0 -14  12    1.05    1.23
 -14   0 -12    0.66    1.19
   0 -14  12    2.62    1.46
   0 -14  13   -0.19    0.92
 -14   0 -13    0.07    0.84
 -14   0 -13    1.25    1.22
 -14  -1   0   -1.57    1.98
   1 -14   0    0.97    1.42
 -14  -1   0   -0.56    2.34
  14   1  -1  179.57    8.73
 -14  -1  -1  178.73    8.86
 -14  -1   1  174.69    8.77
   1 -14  -1  170.72    7.42
   1 -14   1  167.99    7.36
 -14  -1  -1  168.32    9.05
 -14  -1   1  171.88    8.85
 -14  -1  -2   -1.20    2.13
 -14  -1   2    3.16    2.03
  14   1  -2    0.17    2.40
   1 -14   2    0.39    1.35
   1 -14  -2    0.42    1.45
   1 -14   2    2.00    2.16
   1 -14   3   97.29    4.96
   1 -14  -3  108.43    5.02
  14   1  -3  113.89    6.50
 -14  -1  -3  110.13    6.28
 -14  -1   3  101.48    6.17
 -14  -1  -3  112.35    7.01
   1 -14   3  114.85    6.64
 -14  -1  -4   57.66    5.28
   1 -14   4   56.88    5.08
   1 -14  -4   63.58    3.41
   1 -14  -4   63.42    3.42
   1 -14   4   56.70    3.30
   1 -14   4   64.53    4.74
  14   1  -4   63.12    4.96
 -14  -1  -4   64.91    4.61
 -14  -1   4   63.51    4.65
   1 -14   5   49.90    3.00
 -14  -1  -5   50.16    3.25
  14   1  -5   50.19    4.64
   1 -14  -5   42.43    2.87
   1 -14   5   45.21    2.75
   1 -14   5   47.11    4.83
   1 -14   5   40.53    4.18
 -14  -1  -6   45.19    3.15
   1 -14  -6   35.51    2.75
   1 -14   6   39.54    3.14
   1 -14   6   38.95    2.75
   1 -14   6   43.95    3.20
   1 -14   7    1.11    1.76
   1 -14  -7    1.78    1.42
   1 -14   7    5.61    1.92
   1 -14   7   -1.06    1.63
 -14  -1  -7    2.40    1.86
   1 -14   7    0.68    1.42
   1 -14   8    1.18    1.42
 -14  -1  -8   -0.10    1.86
   1 -14   8    0.55    1.75
 -14  -1  -8    2.25    1.64
   1 -14   8    0.11    1.69
   1 -14   8    2.87    1.70
   1 -14   9   10.16    1.97
 -14  -1  -9    6.30    1.74
   1 -14   9    6.43    1.60
   1 -14   9    5.77    1.94
   1 -14  10    6.15    1.96
 -14  -1 -10    5.84    1.56
   1 -14  10    6.68    1.77
   1 -14  11    5.87    1.55
   1 -14  11    8.10    1.84
 -14  -1 -11    7.21    1.85
   1 -14  12    0.50    1.23
 -14  -1 -12   -1.04    1.23
   1 -14  13    0.38    0.92
 -14  -1 -13   -0.90    0.86
 -14  -2   0  169.48    8.52
   2 -14   0  169.07    7.36
  14   2  -1  153.47    7.66
 -14  -2  -1  136.50    7.48
 -14  -2   1  132.91    7.34
   2 -14   1  143.01    6.26
   2 -14  -1  138.13    6.32
   2 -14   2  446.66   18.23
 -14  -2  -2  404.39   18.01
 -14  -2   2  422.37   18.02
  14   2  -2  442.00   18.18
   2 -14   2  411.76   16.69
   2 -14  -2  437.24   16.81
   2 -14   3   94.84    6.15
 -14  -2  -3   89.11    5.63
 -14  -2   3   84.23    5.49
   2 -14   3   86.80    4.39
   2 -14  -3   96.75    4.64
 -14  -2  -4  136.93    6.79
   2 -14  -4  148.50    6.60
  14   2  -4  161.53    8.38
 -14  -2  -4  143.95    7.97
 -14  -2   4  148.16    7.91
   2 -14   4  151.43    6.55
   2 -14  -4  159.20    6.73
   2 -14   4  151.48    8.09
   2 -14   4  148.81    8.52
   2 -14  -5   37.83    2.71
 -14  -2  -5   38.10    3.04
   2 -14   5   40.27    4.51
   2 -14   5   42.01    2.87
   2 -14   5   38.02    4.03
   2 -14   5   42.47    2.63
 -14  -2  -6   51.42    3.47
 -14  -2  -6   52.75    3.53
 -14  -2  -6   42.78    3.37
   2 -14   6   51.55    3.19
   2 -14  -6   47.24    3.14
   2 -14   6   56.91    3.54
   2 -14  -7    0.67    1.41
 -14  -2  -7    3.10    1.59
 -14  -2  -7    3.95    1.81
   2 -14   7    2.07    1.84
 -14  -2  -7    3.48    1.96
   2 -14   7    2.45    1.44
   2 -14   7    1.06    1.73
   2 -14   8   15.48    2.25
 -14  -2  -8   17.39    2.17
   2 -14   8   19.40    2.05
 -14  -2  -8   17.22    2.40
   2 -14   8   16.04    2.49
   2 -14   9    0.46    1.26
 -14  -2  -9    0.59    1.45
 -14  -2  -9    2.49    1.76
   2 -14   9    1.67    1.69
 -14  -2 -10    4.16    1.87
 -14  -2 -10    2.62    1.71
 -14  -2 -10    4.50    1.48
   2 -14  10    4.09    1.83
   2 -14  10    3.05    1.62
   2 -14  11   -0.73    1.31
   2 -14  11   -0.43    1.48
 -14  -2 -11    1.94    1.51
   2 -14  11    1.05    1.62
 -14  -2 -11    0.62    1.56
 -14  -2 -12    2.13    1.38
 -14  -2 -12    0.80    1.20
   2 -14  13    1.51    0.92
 -14  -2 -13    3.15    1.15
 -14  -3   0    0.66    2.01
  14   3  -1  661.48   26.19
 -14  -3  -1  634.89   26.15
 -14  -3   1  637.68   26.11
   3 -14   2   47.37    3.94
 -14  -3  -2   45.04    3.95
 -14  -3   2   43.41    3.97
  14   3  -2   50.78    4.26
 -14  -3  -3  299.49   14.26
 -14  -3   3  322.33   14.33
  14   3  -3  347.58   14.54
   3 -14  -3  321.13   12.89
   3 -14   3  309.74   12.77
   3 -14   3  334.01   14.60
   3 -14   4    9.28    2.84
   3 -14  -4   10.18    1.71
   3 -14   4   11.97    1.66
   3 -14  -4    9.91    1.78
 -14  -3  -4   11.49    2.49
 -14  -3   4    9.42    2.44
   3 -14   4   10.08    2.65
  14   3  -4   11.43    2.87
 -14  -3  -4   14.67    2.03
   3 -14   5  130.84    5.68
   3 -14   5  120.66    7.48
 -14  -3  -5  126.95    6.15
 -14  -3   5  115.27    5.74
   3 -14   5  137.51    6.12
   3 -14  -5  126.97    5.93
 -14  -3  -5  112.11    5.95
   3 -14   6    4.23    1.99
   3 -14  -6    6.85    1.69
 -14  -3  -6    5.23    1.88
   3 -14   6    7.15    1.57
 -14  -3  -6    1.47    1.53
   3 -14   7   15.70    2.10
   3 -14  -7   11.59    1.90
   3 -14   7   14.88    2.17
 -14  -3  -7   17.84    2.25
   3 -14   7   11.54    1.85
 -14  -3  -7    9.45    1.93
   3 -14   8    1.27    1.85
 -14  -3  -8    1.26    1.69
   3 -14   8    1.29    1.83
   3 -14   8    0.07    1.34
 -14  -3  -8    1.90    1.39
 -14  -3  -9   10.47    1.96
 -14  -3  -9    8.64    2.17
   3 -14   9   13.83    2.16
   3 -14   9    9.21    1.67
   3 -14  10    2.59    1.59
   3 -14  10    2.18    1.81
 -14  -3 -10    4.49    1.65
 -14  -3 -10    2.56    1.74
   3 -14  11    1.98    1.32
 -14  -3 -11    0.79    1.56
 -14  -3 -11    0.94    1.49
   3 -14  11    0.86    1.61
 -14  -3 -12    1.28    1.36
 -14  -3 -12   -2.63    1.26
   3 -14  12   -1.43    1.29
   3 -14  13    1.45    0.93
 -14  -4   0  535.09   22.23
 -14  -4  -1    3.27    2.33
 -14  -4   1    3.24    2.07
  14   4  -1    5.17    2.54
 -14  -4  -2  297.77   13.55
 -14  -4   2  306.09   13.70
  14   4  -2  299.72   13.58
  14   4  -3    4.46    2.54
   4 -14   3    6.89    2.24
   4 -14   3    6.81    2.15
 -14  -4  -3    5.45    2.29
 -14  -4   3    7.23    2.30
   4 -14  -4   12.24    1.81
   4 -14   4   14.52    1.84
   4 -14  -4   11.93    1.79
   4 -14   4   18.78    2.98
  14   4  -4   14.47    2.90
 -14  -4  -4   13.51    2.46
 -14  -4   4    9.51    2.57
   4 -14  -5   23.71    2.24
 -14  -4   5   21.95    2.19
   4 -14   5   25.36    2.34
 -14  -4  -5   21.46    2.25
 -14  -4  -5   28.86    2.55
   4 -14   5   20.83    2.06
 -14  -4  -6   94.31    5.06
   4 -14  -6   86.62    4.69
 -14  -4  -6   82.81    4.63
 -14  -4   6   90.39    4.64
 -14  -4  -7   26.15    2.76
   4 -14  -7   26.03    2.58
 -14  -4  -7   25.08    2.37
   4 -14   7   28.81    2.68
 -14  -4  -7   22.05    2.44
   4 -14   7   26.14    2.35
   4 -14   8   18.41    1.92
 -14  -4  -8   16.39    2.51
 -14  -4  -8   16.61    2.24
 -14  -4  -8   16.57    2.11
   4 -14   8   16.41    2.37
 -14  -4  -9    0.63    1.41
 -14  -4  -9    2.35    1.62
   4 -14   9    0.94    1.29
 -14  -4  -9    0.10    1.71
   4 -14   9   -0.08    1.74
 -14  -4 -10    9.26    1.97
 -14  -4 -10    9.95    2.14
   4 -14  10    8.35    2.07
   4 -14  10   13.75    1.95
 -14  -4 -11   -1.19    1.56
   4 -14  11   -0.21    1.57
 -14  -4 -11   -0.45    1.42
 -14  -4 -12    3.68    1.50
 -14  -4 -12    2.84    1.25
   4 -14  12    4.55    1.41
   4 -14  13   -1.02    0.92
 -14  -4 -13    0.23    1.06
 -14  -5   0    1.79    2.34
 -14  -5   1  182.96    9.37
 -14  -5  -1  185.06    9.48
  14   5  -1  197.63    9.45
  14   5  -2    0.87    2.27
 -14  -5  -2    2.32    2.03
 -14  -5   2    2.12    1.94
  14   5  -3  160.59    8.39
 -14  -5  -3  153.37    8.33
 -14  -5   3  158.21    8.44
   5 -14   3  156.39    8.21
   5 -14   4    2.25    2.36
 -14  -5  -4    3.59    2.04
 -14  -5   4    3.20    2.06
 -14  -5  -4    2.27    1.41
 -14  -5   4    1.54    1.57
  14   5  -4    1.59    2.36
 -14  -5  -4    1.79    1.40
 -14  -5  -5   31.22    2.70
 -14  -5  -5   28.52    2.41
 -14  -5   5   33.35    2.54
 -14  -5  -5   27.73    2.48
   5 -14   5   24.53    2.24
 -14  -5   5   25.89    4.16
 -14  -5   6    6.75    1.69
 -14  -5  -6    7.81    1.97
   5 -14  -6    5.91    1.73
 -14  -5  -6    5.58    1.58
   5 -14   7   52.89    3.41
 -14  -5  -7   57.30    3.92
   5 -14  -7   54.31    3.56
 -14  -5  -7   53.92    3.70
   5 -14   7   63.47    3.83
 -14  -5   7   53.27    3.38
 -14  -5  -7   52.01    3.35
   5 -14   8    0.08    1.87
 -14  -5  -8   -2.96    1.97
 -14  -5  -8   -0.74    1.65
   5 -14   8    0.07    1.34
 -14  -5  -8    0.80    1.49
 -14  -5  -9   24.16    2.64
 -14  -5  -9   20.79    2.25
   5 -14   9   19.37    2.07
 -14  -5  -9   24.68    2.76
   5 -14  10    3.37    1.61
 -14  -5 -10    1.45    1.52
   5 -14  10    0.50    1.84
 -14  -5 -10    0.95    1.70
   5 -14  11    9.13    1.60
   5 -14  11    8.14    1.93
 -14  -5 -11   10.95    1.74
 -14  -5 -11    8.82    1.93
   5 -14  12   -1.53    1.02
   5 -14  12   -1.05    1.25
 -14  -5 -12   -0.18    1.04
 -14  -5 -12   -0.06    1.23
   5 -14  13    0.98    0.99
 -14  -5 -13    4.02    1.14
  14   6   0  308.75   13.59
 -14  -6   0  285.64   13.47
  14   6  -1   56.63    4.34
 -14  -6  -1   50.43    4.32
 -14  -6   1   56.89    4.31
 -14  -6  -2   25.27    3.18
 -14  -6   2   28.34    3.23
  14   6  -2   27.01    3.32
 -14  -6   3   36.80    2.67
   6 -14  -3   32.41    2.48
 -14  -6  -3   32.37    3.54
 -14  -6   3   34.14    3.56
  14   6  -3   35.94    3.78
   6 -14   3   37.01    3.79
   6 -14  -4   40.80    2.68
 -14  -6  -4   32.88    2.69
 -14  -6  -4   34.21    2.69
 -14  -6   4   39.98    2.77
 -14  -6   4   33.93    4.05
 -14  -6  -5   13.03    1.91
 -14  -6  -5   12.88    2.01
 -14  -6   5   14.52    2.05
 -14  -6  -6   13.54    2.17
 -14  -6  -6   11.67    1.89
 -14  -6   6   12.71    1.92
   6 -14   7    2.60    1.54
   6 -14   7    2.22    1.86
 -14  -6  -7    5.12    1.85
 -14  -6  -7    1.19    1.50
 -14  -6  -7    1.81    1.67
 -14  -6   7    3.74    1.55
   6 -14   8    3.76    1.45
   6 -14   8    6.69    1.99
 -14  -6  -8    2.07    1.86
 -14  -6  -8    1.58    1.52
 -14  -6  -8    2.27    1.60
 -14  -6   8    3.59    1.48
   6 -14   9    4.55    1.41
   6 -14   9    7.63    2.03
 -14  -6  -9    6.44    1.56
 -14  -6  -9    7.12    1.99
 -14  -6  -9    6.62    1.75
   6 -14  10   17.44    2.64
   6 -14  10   22.98    2.40
 -14  -6 -10   19.46    2.29
 -14  -6 -10   17.89    2.44
 -14  -6 -11   -0.58    1.33
   6 -14  11    1.22    1.62
   6 -14  11    0.90    1.32
 -14  -6 -11    4.06    1.56
   6 -14  12    1.47    1.26
   6 -14  12    1.38    1.01
 -14  -6 -12    4.05    1.12
 -14  -6 -12    2.47    1.36
 -14  -6 -13   -0.35    0.93
   6 -14  13    1.38    0.91
 -14  -7   0   -0.37    2.09
 -14  -7  -1  226.83   11.26
 -14  -7   1  243.76   11.33
 -14  -7  -2   23.26    2.10
 -14  -7   2   21.09    4.67
 -14  -7  -2   17.65    2.93
 -14  -7   2   24.67    3.17
   7 -14  -3    2.51    1.53
   7 -14   3    0.59    2.50
 -14  -7   3    3.11    3.49
 -14  -7   3    3.15    1.75
 -14  -7  -3    0.48    1.46
 -14  -7   4    2.95    1.67
 -14  -7  -4    1.18    1.44
   7 -14  -4    3.67    1.68
 -14  -7  -4    0.07    1.44
 -14  -7   4    1.21    3.07
 -14  -7   5   12.48    3.17
 -14  -7  -5    7.18    1.72
 -14  -7  -5    7.73    1.78
   7 -14  -5    7.59    1.82
 -14  -7  -5    8.01    1.80
 -14  -7   5    8.67    1.85
   7 -14  -6   16.06    2.17
 -14  -7  -6   14.42    2.02
 -14  -7   6   13.79    2.03
 -14  -7   6   16.65    3.46
 -14  -7  -7   11.38    2.06
 -14  -7  -7   10.33    1.83
 -14  -7   7    7.00    1.76
 -14  -7  -7    8.05    1.90
 -14  -7  -8    1.51    1.72
 -14  -7   8    5.63    1.49
 -14  -7  -8    3.65    1.88
   7 -14   8    3.98    1.97
   7 -14   8    3.39    1.40
 -14  -7  -8    2.40    1.44
 -14  -7   9    1.76    1.31
 -14  -7  -9    0.74    1.54
 -14  -7  -9   -1.80    1.75
   7 -14   9    1.27    1.80
   7 -14   9   -0.06    1.20
 -14  -7  -9    0.32    1.27
 -14  -7 -10    1.10    1.67
   7 -14  10    0.70    1.63
 -14  -7 -10   -0.40    1.51
 -14  -7 -11    7.18    1.72
 -14  -7 -11    8.16    1.53
   7 -14  11    7.21    1.48
   7 -14  11    7.48    1.79
   7 -14  12    2.50    1.23
 -14  -7 -12    1.14    0.96
 -14  -7 -12    0.11    1.21
   7 -14  12    1.28    0.95
  -7  14 -12    1.08    1.16
 -14  -7 -13    2.18    0.90
 -14  -8   0   81.12    7.13
 -14  -8   0   82.15    4.30
 -14  -8   0   88.68    4.23
 -14  -8   1  121.03    7.08
 -14  -8  -1  113.62    7.90
 -14  -8   1  125.32    5.53
 -14  -8  -1  122.98    5.50
 -14  -8   1  111.70    7.56
 -14  -8  -1  107.65    7.64
 -14  -8   1  117.02    5.58
 -14  -8   2  133.79    6.81
   8 -14  -2  127.08    5.91
 -14  -8  -2  126.65    5.86
 -14  -8  -2  129.23    7.12
 -14  -8   2  135.93    7.25
 -14  -8   2  128.26    5.82
 -14  -8  -2  128.26    5.85
 -14  -8   3  121.82    6.18
 -14  -8  -3  124.62    5.73
 -14  -8   3  127.91    5.93
   8 -14  -3  120.83    5.77
   8 -14  -4    0.94    1.62
 -14  -8   4    4.90    2.69
 -14  -8   4    3.24    1.76
 -14  -8  -4    1.71    1.51
 -14  -8  -4    1.79    1.57
 -14  -8   5   -0.25    1.54
 -14  -8  -5    2.35    1.52
 -14  -8  -5   -0.30    1.39
   8 -14  -5    1.60    1.66
 -14  -8   5    3.39    2.39
 -14  -8  -5    0.91    1.47
 -14  -8   6   16.07    2.06
 -14  -8  -6   14.05    1.93
   8 -14  -6   14.71    2.07
 -14  -8   6   16.34    2.91
 -14  -8  -6   12.56    1.85
 -14  -8  -7   -0.59    1.54
 -14  -8  -7   -0.73    1.43
   8 -14  -7   -0.40    1.59
 -14  -8  -7    1.52    1.54
 -14  -8   7    3.17    1.41
   8 -14   8   16.08    1.90
 -14  -8  -8   16.42    2.19
 -14  -8  -8   19.16    2.06
   8 -14   8   19.22    2.46
 -14  -8   8   13.65    1.90
 -14  -8  -9    4.91    1.76
   8 -14   9    5.12    1.39
 -14  -8   9    6.10    1.45
 -14  -8  -9    4.69    1.67
 -14  -8  -9    6.84    1.50
   8 -14   9    7.59    2.00
 -14  -8 -10   -0.23    1.51
   8 -14  10   -0.12    1.54
 -14  -8 -10    2.43    1.33
   8 -14  11    3.95    1.52
 -14  -8 -11    2.55    1.22
 -14  -8 -11   -0.75    1.39
   8 -14  11    1.99    1.26
   8 -14  12   -0.65    0.96
   8 -14  12    0.27    1.13
 -14  -8 -12    0.50    0.91
  -8  14 -12    0.32    0.98
 -14  -8 -12    1.22    1.13
 -14  -9   0    2.65    5.81
 -14  -9   0    2.14    1.71
 -14  -9   0    2.23    1.39
 -14  -9  -1  119.37    8.48
 -14  -9  -1  142.45    6.25
 -14  -9   1  142.23    6.23
 -14  -9  -1  138.98    6.10
 -14  -9   1  137.69    8.62
 -14  -9  -1  128.80    8.63
 -14  -9   1  135.41    6.28
 -14  -9   2  120.30    5.95
 -14  -9   2  126.37    6.44
   9 -14  -2  132.13    5.90
 -14  -9  -2  120.68    5.69
 -14  -9   2  131.07    7.98
 -14  -9  -2  125.94    7.83
 -14  -9   2  124.05    5.63
 -14  -9  -2  121.68    5.71
 -14  -9   3   39.91    3.41
 -14  -9  -3   39.11    2.81
   9 -14  -3   39.89    2.83
   9 -14  -4   31.55    2.57
 -14  -9   4   30.26    3.01
 -14  -9   4   28.14    2.58
 -14  -9  -4   28.25    2.52
 -14  -9  -4   23.90    2.35
 -14  -9   5    2.90    1.80
 -14  -9  -5    2.34    1.64
 -14  -9  -5    1.89    1.64
 -14  -9   5    1.36    2.26
   9 -14  -5    2.92    1.79
 -14  -9  -5    3.48    1.52
 -14  -9   6   13.76    2.01
 -14  -9  -6   15.12    1.97
   9 -14  -6   12.95    2.05
 -14  -9  -6   12.34    1.97
 -14  -9   6   16.81    2.73
 -14  -9   7   13.51    1.95
 -14  -9  -7   11.02    1.95
 -14  -9  -7   13.23    1.89
 -14  -9   7   12.73    3.18
 -14  -9  -7   10.78    1.90
   9 -14   8   -0.52    1.35
 -14  -9  -8   -0.20    1.27
 -14  -9  -8    1.06    1.51
 -14  -9  -8    1.41    1.53
 -14  -9   8    1.32    1.44
 -14  -9  -9   -0.86    1.49
   9 -14   9    0.22    1.15
   9 -14   9    2.81    1.78
 -14  -9  -9    1.21    1.25
 -14  -9   9   -0.43    1.27
 -14  -9  -9    1.48    1.42
  -9  14 -10   -0.17    1.33
 -14  -9 -10   -1.27    1.30
 -14  -9  10   -0.79    1.15
 -14  -9 -10    1.94    1.48
   9 -14  10   -0.94    1.56
  -9  14 -11    2.28    1.16
   9 -14  11    2.67    1.31
 -14  -9 -11    2.20    1.30
   9 -14  11    3.41    1.48
 -14  -9 -11    4.72    1.17
   9 -14  12    6.23    1.32
 -14  -9 -12    3.51    0.98
 -14 -10   0    5.64    1.47
 -14 -10   0    4.54    6.06
 -14 -10   0    8.41    1.79
  10 -14  -1   81.50    4.13
 -14 -10  -1   71.73    7.65
 -14 -10  -1   71.65    3.93
 -14 -10   1   77.29    3.90
 -14 -10  -1   70.59    3.77
 -14 -10  -1   85.04    7.39
 -14 -10   1   67.30    7.29
 -14 -10   1   65.92    3.87
 -14 -10   2   52.32    6.91
 -14 -10  -2   51.80    6.92
  10 -14  -2   48.64    3.09
 -14 -10   2   45.32    4.07
 -14 -10  -2   40.44    2.89
 -14 -10   2   41.60    2.80
 -14 -10   2   49.73    3.15
 -14 -10  -2   44.50    2.89
  10 -14  -3   21.60    2.38
 -14 -10   3   27.93    3.02
 -14 -10   3   21.23    5.60
 -14 -10  -3   17.89    5.41
 -14 -10  -3   23.81    2.13
 -14 -10  -4   68.38    4.00
  10 -14  -4   72.93    4.17
 -14 -10   4   77.12    4.33
 -14 -10   4   75.80    4.23
 -14 -10  -4   70.22    3.97
 -14 -10  -4   75.13    3.99
 -14 -10  -5   12.24    1.83
 -14 -10   5   18.82    2.48
 -14 -10  -5   14.08    2.06
 -14 -10   5   12.25    2.05
  10 -14  -5   14.41    2.08
 -14 -10   6   10.02    1.90
 -14 -10  -6   10.32    1.77
 -14 -10  -6    7.30    1.73
  10 -14  -6    5.96    1.86
 -14 -10   6   11.77    2.38
 -14 -10  -7    0.98    1.51
 -14 -10   7    0.83    1.48
 -14 -10  -7    0.78    1.39
 -14 -10  -7    0.97    1.37
  10 -14   8    2.40    1.38
 -14 -10   8    1.16    1.51
 -14 -10  -8    3.10    1.52
 -14 -10  -8    3.15    1.58
 -14 -10  -8    2.26    1.28
  10 -14   9    4.98    1.31
  10 -14   9    6.16    1.87
 -14 -10  -9    6.84    1.67
 -14 -10  -9    6.98    1.55
 -14 -10   9    4.38    1.39
  10 -14  10    9.17    1.72
 -14 -10 -10    6.05    1.44
 -14 -10  10    5.45    1.29
 -14 -10 -10    6.77    1.60
  10 -14  11    1.89    1.21
 -14 -10 -11    1.51    1.02
  10 -14  11    4.31    1.36
 -14 -10 -12    4.60    1.04
  10 -14  12    5.86    1.23
 -14 -11   0    2.72    6.91
  11 -14   0   -0.09    1.70
 -14 -11   0   -2.99    5.75
 -14 -11   0   -0.75    1.72
 -14 -11   0    0.58    1.36
 -14 -11   0    1.23    1.24
  11 -14  -1   19.55    2.30
 -14 -11  -1   15.77    6.46
 -14 -11   1   23.00    4.33
 -14 -11   1   22.32    2.24
 -14 -11  -1   21.11    2.08
 -14 -11   1   21.17    2.08
 -14 -11  -1   21.45    6.89
 -14 -11   1   17.19    6.64
 -14 -11  -1   18.61    1.95
 -14 -11  -2    5.49    1.43
 -14 -11   2    3.07    1.58
 -14 -11   2    3.67    6.64
 -14 -11  -2    7.52    6.86
 -14 -11   2    5.37    1.43
 -14 -11  -2    4.67    1.51
  11 -14  -2    4.56    1.65
 -14 -11  -3   13.77    2.04
 -14 -11  -3   14.68    1.76
 -14 -11   3   14.33    6.07
 -14 -11  -3   15.11    5.93
  11 -14  -3   14.53    2.06
 -14 -11   3   18.42    2.68
 -14 -11   3   15.16    2.07
 -14 -11  -3   15.47    1.99
  11 -14  -4   75.28    4.21
 -14 -11   4   79.68    4.36
 -14 -11  -4   71.73    3.99
 -14 -11  -4   75.99    4.12
 -14 -11  -4   74.55    4.04
 -14 -11   5    9.70    2.24
  11 -14  -5    8.83    1.94
 -14 -11  -5    8.19    1.60
 -14 -11   5    9.09    1.86
 -14 -11  -5   11.53    1.75
 -14 -11  -5    5.69    1.70
 -14 -11   6    9.50    2.27
  11 -14  -6    8.40    1.86
 -14 -11  -6    6.63    1.56
 -14 -11  -6    6.89    1.64
 -14 -11   6    6.55    1.74
 -14 -11   7    3.12    1.54
 -14 -11  -7    0.43    1.50
 -14 -11  -7    1.19    1.33
  11 -14   8    1.76    1.30
 -14 -11  -8    1.88    1.30
 -14 -11  -8    1.65    1.39
 -14 -11   8    3.93    1.49
 -14 -11   8    5.46    3.35
  11 -14   9    2.14    1.66
 -14 -11   9    4.44    1.41
 -14 -11  -9    2.48    1.37
 -14 -11  10    0.76    1.05
 -14 -11 -10    0.24    1.09
  11 -14  10    1.75    1.38
 -14 -11 -10    2.36    1.23
 -14 -11  11    1.68    0.87
  11 -14  11    4.11    1.34
 -14 -11 -11    3.07    1.08
 -14 -11 -11    1.99    0.95
  11 -14  11    3.85    1.14
 -14 -12   0    5.64    5.71
 -14 -12   0    3.37    1.73
 -14 -12   0   -3.98    6.92
 -14 -12   0    2.77    1.48
 -14 -12   0    4.92    1.38
 -14 -12  -1    3.48    1.46
 -14 -12   1    4.28    1.68
 -14 -12   1    5.78    4.20
 -14 -12  -1    8.00    6.79
 -14 -12   1    1.44    6.49
 -14 -12  -1    3.54    6.55
  12 -14  -1    4.09    1.68
 -14 -12  -1    4.48    1.50
 -14 -12   1    3.56    1.47
  12 -14  -2   40.38    2.89
 -14 -12   2   34.11    2.55
 -14 -12  -2   36.47    2.53
 -14 -12   2   37.58    2.75
 -14 -12   2   38.68    7.13
 -14 -12  -2   36.96    7.40
 -14 -12  -3   53.04    6.77
 -14 -12  -3   45.95    2.88
 -14 -12   3   52.05    6.61
  12 -14  -3   50.22    3.26
 -14 -12   3   45.56    3.51
 -14 -12  -3   46.38    2.97
 -14 -12   3   43.59    2.79
 -14 -12  -3   45.43    2.94
 -14 -12   3   48.06    3.09
 -14 -12   4    6.34    2.27
 -14 -12  -4    4.34    1.42
 -14 -12  -4    4.43    1.61
 -14 -12   4    1.68    1.75
 -14 -12  -4    3.51    1.58
  12 -14  -4    4.13    1.71
 -14 -12   5    4.07    2.07
 -14 -12  -5    2.50    1.44
 -14 -12  -5    3.45    1.48
 -14 -12  -5    3.52    1.49
  12 -14  -5    3.52    1.62
 -14 -12  -6    8.56    1.65
 -14 -12   6   11.61    1.98
 -14 -12  -6   10.85    1.70
 -14 -12   6   13.11    2.37
 -14 -12  -7    1.05    1.22
 -14 -12   7    2.04    1.48
 -14 -12  -7    2.30    1.38
 -14 -12  -7    0.07    1.31
 -14 -12   7   -2.71    2.60
  12 -14   8    3.41    1.32
 -14 -12  -8    1.04    1.43
 -14 -12   8    4.56    3.32
 -14 -12  -8    1.78    1.35
 -14 -12   8    2.83    1.46
 -14 -12  -8    1.23    1.17
 -14 -12  -9    3.75    1.31
  12 -14   9    2.76    1.63
 -14 -12   9    3.88    1.35
 -14 -12  -9    4.91    1.38
 -14 -12 -10    1.85    1.02
  12 -14  10    3.22    1.32
 -14 -12  10    2.42    1.08
 -14 -12 -10    1.27    1.11
 -14 -12 -11    3.09    1.01
 -14 -12 -11    3.45    0.82
  12 -14  11    2.99    1.05
 -14 -13   0    0.89    1.88
 -14 -13   0   -2.27    7.22
 -14 -13   0   -0.58    6.24
 -14 -13   0    0.72    1.24
 -14 -13   0    0.93    1.36
 -14 -13   1   10.03    1.90
 -14 -13   1   10.31    7.13
 -14 -13  -1   12.23    7.28
 -14 -13   1    7.29    4.35
 -14 -13  -1   11.57    6.90
 -14 -13  -1   10.91    1.67
 -14 -13   1   10.50    1.73
 -14 -13  -1   10.52    1.59
 -14 -13   2    8.19    1.52
  13 -14  -2   11.64    1.93
 -14 -13  -2   10.27    1.53
 -14 -13   2   10.31    6.90
 -14 -13  -2   12.78    7.09
 -14 -13   2   10.53    1.84
 -14 -13  -2   13.64    1.75
 -14 -13   3    2.39    1.31
 -14 -13  -3   -0.22    1.51
 -14 -13  -3    1.38    1.36
 -14 -13   3   10.09    6.29
 -14 -13  -3   -1.00    6.20
  13 -14  -3    1.35    1.60
 -14 -13   3    1.85    2.60
 -14 -13   3    3.61    1.64
 -14 -13  -3    3.09    1.38
 -14 -13  -4   26.08    2.28
  13 -14  -4   24.52    2.42
 -14 -13   4   32.66    3.03
 -14 -13   4   30.73    2.56
 -14 -13  -4   28.01    2.32
 -14 -13  -4   30.46    2.27
 -14 -13  -5   14.23    1.75
 -14 -13  -5   16.99    1.95
 -14 -13  -5   16.34    1.82
 -14 -13   5   16.70    2.52
 -14 -13  -6   -0.25    1.34
 -14 -13   6    3.54    1.67
 -14 -13  -6    1.34    1.28
 -14 -13   6    0.26    2.23
 -14 -13   7    1.86    2.68
 -14 -13  -7    1.00    1.36
 -14 -13  -7    0.34    1.25
 -14 -13   7    1.05    1.50
 -14 -13  -7    1.04    1.24
  13 -14   8   -0.88    1.11
 -14 -13  -8    1.60    1.22
 -14 -13   8    2.32    3.42
 -14 -13  -8    1.08    1.23
 -14 -13   8    2.92    1.39
 -14 -13  -8    2.49    1.06
 -14 -13  -9   -0.28    1.07
  13 -14   9    1.67    1.42
 -14 -13   9    0.15    1.22
 -14 -13  -9    2.03    1.16
 -14 -13 -10    1.57    0.88
 -14 -13 -10    2.76    0.99
 -14 -13  10    0.48    1.00
  13 -14  10    0.69    1.19
 -14 -14   0   15.51    1.70
 -14 -14   0   18.36    6.45
 -14 -14   0   13.90    7.15
 -14 -14   0   15.27    1.84
 -14 -14   1   46.15    5.46
 -14 -14  -1   48.26    7.66
 -14 -14  -1   40.46    2.60
 -14 -14   1   43.53    2.96
 -14 -14  -1   41.12    2.74
 -14 -14   1   40.71    2.74
 -14 -14  -1   46.52    7.56
 -14 -14   1   37.24    7.53
 -14 -14  -2   -4.04    6.54
 -14 -14   2    5.34    6.61
 -14 -14   2    4.17    3.42
 -14 -14  -2    1.83    1.26
 -14 -14   2    4.44    1.74
 -14 -14  -2    1.14    1.35
 -14 -14   2    0.07    1.38
 -14 -14   3   -0.85    5.89
 -14 -14  -3    2.34    5.80
 -14 -14   3   -0.06    1.20
 -14 -14  -3    1.95    1.34
 -14 -14   3   -0.80    1.67
 -14 -14  -3    0.40    1.28
 -14 -14  -3    0.54    1.38
 -14 -14  -4   19.38    2.03
 -14 -14  -4   22.45    2.02
 -14 -14   4   18.98    2.26
 -14 -14   4   20.91    2.80
 -14 -14  -4   19.20    1.91
  14 -14  -4   16.79    1.99
 -14 -14   5   28.43    2.56
 -14 -14   5   30.65    2.92
 -14 -14  -5   25.78    2.13
 -14 -14  -5   26.92    2.29
 -14 -14  -5   25.73    2.12
 -14 -14  -6   -0.58    1.25
 -14 -14  -6    1.30    1.19
 -14 -14   6    3.45    2.38
 -14 -14   7    0.40    1.40
 -14 -14  -7    0.18    1.16
 -14 -14  -7   -0.79    1.25
 -14 -14  -7    0.30    1.04
 -14 -14  -8    3.67    1.19
 -14 -14   8    2.75    1.42
 -14 -14   8    4.77    3.62
 -14 -14  -8    4.61    1.08
 -14 -14  -8    6.28    1.30
  14 -14   8    4.88    1.21
  14 -14   9   -1.06    1.38
 -14 -14  -9    2.22    0.99
 -14 -14   9   -0.36    1.12
 -14 -14  -9   -0.09    0.99
  14 -14  10    2.54    1.08
  14 -14  10    2.69    1.15
 -14 -14  10    1.21    0.90
 -14 -14 -10   -0.56    0.77
 -14 -14 -10   -0.03    0.80
 -14 -15   0    4.92    6.73
 -14 -15   0    0.92    1.25
 -14 -15   0    1.45    1.35
 -14 -15   0   -1.20    7.15
 -14 -15   1   24.99    5.70
 -14 -15  -1   19.84    7.13
 -14 -15  -1   20.77    1.92
 -14 -15   1   26.30    2.34
 -14 -15   1   25.25    7.11
 -14 -15  -1   30.50    7.33
 -14 -15   1   21.66    2.01
 -14 -15  -1   20.93    2.01
 -14 -15  -2   -0.50    1.19
 -14 -15   2   -0.82    1.62
 -14 -15   2    0.95    4.05
 -14 -15  -2    9.14    6.57
 -14 -15   2   -2.46    6.59
 -14 -15  -2    0.57    1.30
 -14 -15   2    0.50    1.27
 -14 -15  -3    4.06    1.25
 -14 -15   3    1.90    1.64
 -14 -15   3    2.95    5.55
 -14 -15  -3    4.37    5.62
 -14 -15  -3    2.17    1.27
 -14 -15  -3    4.17    1.48
 -14 -15   3    3.70    1.27
 -14 -15   4   -0.31    1.60
 -14 -15  -4   -0.06    1.34
 -14 -15   4    0.56    2.71
 -14 -15  -4    1.69    1.35
 -14 -15  -4    1.35    1.18
 -14 -15  -5   33.59    2.32
 -14 -15   5   35.13    3.36
 -14 -15   5   33.51    2.65
 -14 -15  -5   31.94    2.30
 -14 -15  -5   31.44    2.38
 -14 -15  -6    1.24    1.16
 -14 -15  -6   -0.39    1.15
 -14 -15  -7    6.77    1.33
 -14 -15  -7    7.60    1.19
 -14 -15  -7    6.34    1.34
 -14 -15   8    0.53    3.68
 -14 -15  -8    1.93    1.06
 -14 -15  -8    1.65    1.04
 -14 -15   8    1.55    1.23
 -14 -15  -9    6.08    1.01
 -14 -15   9    3.67    1.19
 -14 -15  -9    5.15    1.06
  15 -14   9    5.06    1.36
 -13 -15   0   29.82    5.10
 -13 -15   0   26.63    2.19
 -13 -15   0   34.07    2.55
 -13 -15   0   29.00    5.61
 -13 -15   0   28.72    2.28
 -13 -15  -1   -0.20    1.28
 -13 -15   1    4.49    5.72
 -13 -15  -1   -3.37    5.88
 -13 -15   1    2.75    2.97
 -13 -15  -1   -1.14    6.40
 -13 -15   1    1.70    1.58
 -13 -15   1   -0.14    1.39
 -13 -15  -1    1.39    1.45
 -13 -15  -1    1.54    1.27
 -13 -15   1    0.74    1.18
 -13 -15   2   21.49    5.87
 -13 -15  -2   13.44    6.24
 -13 -15   2   20.16    2.66
 -13 -15  -2   23.64    6.84
 -13 -15  -2   17.25    1.84
 -13 -15   2   20.75    1.93
 -13 -15  -2   24.26    1.96
 -13 -15   2   19.22    2.15
 -13 -15  -3   17.13    1.82
 -13 -15   3   13.25    6.14
 -13 -15  -3   19.10    6.44
 -13 -15   3   18.42    2.15
 -13 -15  -3   13.30    1.85
 -13 -15  -3   15.48    1.89
 -13 -15   3   19.70    1.89
 -13 -15   4   39.58    2.85
 -13 -15   4   42.63    3.01
 -13 -15   4   29.35    5.95
 -13 -15  -4   29.47    5.98
 -13 -15  -4   33.45    2.49
 -13 -15  -4   33.45    2.48
 -13 -15  -4   35.46    2.54
 -13 -15  -5   21.31    1.89
 -13 -15  -5   18.64    1.94
 -13 -15   5   24.31    2.37
 -13 -15   5   22.52    2.43
 -13 -15  -6    3.48    1.44
 -13 -15   6    4.51    1.76
 -13 -15  -6    4.77    1.33
 -13 -15  -6    6.59    1.43
 -13 -15   6    4.57    1.87
 -13 -15  -7    0.65    1.22
 -13 -15  -7    0.49    1.10
 -13 -15  -7    1.56    1.25
 -13 -15   7    3.72    1.84
 -13 -15   8    3.04    1.38
 -13 -15  -8    1.86    1.16
 -13 -15  -8    3.44    1.30
 -13 -15   9    1.25    2.91
 -13 -15  -9    0.73    0.93
 -13 -15   9    2.10    1.12
 -13 -15  -9    1.68    1.06
  15 -13   9    0.48    1.32
 -13 -15  10    0.90    0.92
 -13 -15 -10    0.76    0.82
 -12 -15   0    1.12    3.13
 -12 -15   0    0.36    2.44
 -12 -15   0   -0.92    1.53
 -12 -15   0   -0.87    1.41
 -12 -15   0    1.86    1.36
 -12 -15   1   26.07    3.57
 -12 -15  -1   26.88    3.67
 -12 -15  -1   29.78    4.84
 -12 -15   1   26.33    2.50
 -12 -15  -1   22.05    2.12
 -12 -15   1   24.36    2.00
 -12 -15   1   22.55    2.13
 -12 -15  -1   25.81    2.09
 -12 -15   1   24.90    2.16
 -12 -15  -2    2.00    1.38
 -12 -15   2    2.05    1.64
 -12 -15   2    2.54    3.82
 -12 -15  -2    7.51    3.96
 -12 -15   2    2.62    1.93
 -12 -15  -2   -0.82    6.52
 -12 -15   2    2.93    1.49
 -12 -15  -2    2.85    1.36
 -12 -15  -2    2.11    1.39
 -12 -15   3   23.83    4.96
 -12 -15  -3   16.01    5.00
 -12 -15   3   19.02    2.10
 -12 -15   3   15.91    2.38
 -12 -15  -3   16.61    1.97
 -12 -15   3   18.14    1.93
 -12 -15  -3   19.30    1.97
 -12 -15  -3   16.87    1.96
 -12 -15   4   14.05    5.71
 -12 -15  -4   21.29    5.91
 -12 -15   4   14.84    2.21
 -12 -15  -4   13.26    1.84
 -12 -15  -4   12.97    1.84
 -12 -15   4   13.54    1.69
 -12 -15  -4   18.42    1.83
 -12 -15   5   21.90    5.51
 -12 -15  -5   21.40    5.38
 -12 -15   5   19.58    2.25
 -12 -15   5   15.80    2.23
 -12 -15  -5   12.00    1.77
 -12 -15  -5   14.48    1.83
 -12 -15  -6    0.07    1.26
 -12 -15   6    2.12    1.66
 -12 -15   6    0.81    1.67
 -12 -15  -6    2.26    1.30
 -12 -15  -6    1.47    1.28
 -12 -15  -7    1.20    1.27
 -12 -15   7    4.04    1.68
 -12 -15  -7    3.36    1.39
 -12 -15  -7    5.60    1.25
 -12 -15   8    5.92    1.60
 -12 -15  -8    6.75    1.44
 -12 -15  -8    4.46    1.34
 -12 -15   8   10.04    1.65
 -12 -15   9    2.63    1.28
 -12 -15   9    2.07    1.83
 -12 -15  -9    1.53    1.08
 -12 -15  -9    3.33    1.20
 -12 -15 -10   -1.29    0.80
  15 -12  10   -0.95    1.20
 -12 -15  10   -0.59    0.98
 -11 -15   0  172.70    7.27
 -11 -15   0  157.23    7.30
 -11 -15   0  169.96    7.20
 -11 -15   0  166.72    7.44
 -11 -15   0  161.28    7.19
 -11 -15  -1    5.94    1.47
 -11 -15  -1    5.08    2.08
 -11 -15   1    6.35    2.11
 -11 -15   1    5.55    1.65
 -11 -15  -1    7.82    2.45
 -11 -15   1    7.85    1.94
 -11 -15   1    6.46    1.62
 -11 -15   1    7.97    1.57
 -11 -15  -1    7.68    1.68
 -11 -15  -2    1.75    1.44
 -11 -15   2    1.16    1.27
 -11 -15   2    3.15    2.02
 -11 -15  -2    2.99    2.06
 -11 -15  -2   -4.70    5.11
 -11 -15   2    2.77    1.89
 -11 -15  -2   -0.15    1.44
 -11 -15   2    1.27    1.54
 -11 -15   2    1.89    1.49
 -11 -15  -2    2.30    1.45
 -11 -15   3   53.53    3.26
 -11 -15  -3   50.70    3.18
 -11 -15  -3   50.70    3.19
 -11 -15   3   60.65    3.60
 -11 -15   3   54.99    3.41
 -11 -15  -3   57.27    3.80
 -11 -15   3   52.49    3.79
 -11 -15  -3   52.78    3.22
 -11 -15  -4    6.43    1.51
 -11 -15   4    9.73    1.99
 -11 -15   4    7.42    3.80
 -11 -15  -4    7.69    3.79
 -11 -15  -4    7.61    1.62
 -11 -15   4    4.95    1.56
 -11 -15  -5    0.12    4.93
 -11 -15   5    1.22    5.06
 -11 -15   5    1.60    1.73
 -11 -15  -5    1.57    1.39
 -11 -15   5    1.77    1.78
 -11 -15  -5   -1.35    1.32
 -11 -15  -5    0.56    1.30
 -11 -15   6    1.64    1.70
 -11 -15  -6    1.61    1.35
 -11 -15  -6    0.65    1.23
 -11 -15  -6    0.14    1.37
 -11 -15   6    2.20    1.77
 -11 -15  -7    0.56    1.32
 -11 -15   7    2.32    1.62
 -11 -15  -7    0.06    1.27
 -11 -15  -7    1.66    1.32
 -11 -15   8    3.94    1.55
 -11 -15  -8    1.54    1.32
 -11 -15   8    2.98    1.56
 -11 -15  -8    0.06    1.20
 -11 -15   9   -0.27    1.28
 -11 -15  -9    2.65    1.07
 -11 -15   9    1.48    1.34
 -11 -15 -10    2.30    0.93
 -11 -15 -10    1.44    1.07
 -11 -15  10    1.20    1.13
 -11 -15 -11    0.10    0.79
 -11 -15  11    0.55    0.82
 -10 -15   0    0.44    1.50
 -10 -15   0   -0.08    1.38
 -10 -15   0   -0.44    1.55
 -10 -15   0    0.67    1.36
 -10 -15   0   -0.45    1.75
 -10 -15   1    7.72    1.63
 -10 -15  -1    7.12    1.69
 -10 -15   1    8.25    1.75
 -10 -15  -1    6.71    1.78
 -10 -15   1    8.49    1.93
 -10 -15  -1    7.92    1.85
 -10 -15  -1    9.81    1.65
 -10 -15   1    6.24    1.62
 -10 -15   1    6.58    1.75
 -10 -15  -2   47.23    3.01
 -10 -15   2   49.72    3.12
 -10 -15  -2   47.84    3.08
 -10 -15   2   47.01    2.89
 -10 -15   2   52.30    3.42
 -10 -15   2   50.78    3.20
 -10 -15  -2   52.19    3.28
 -10 -15   2   47.04    3.16
 -10 -15  -2   52.14    3.19
 -10 -15   3  131.48    6.27
 -10 -15  -3  129.65    6.21
 -10 -15  -3  137.96    6.30
 -10 -15   3  144.11    6.50
 -10 -15   3  144.23    6.48
 -10 -15  -3  134.79    6.37
 -10 -15   3  143.80    6.30
 -10 -15  -3  134.28    6.34
 -10 -15  -4   19.03    2.04
 -10 -15   4   15.98    1.92
 -10 -15   4   18.98    2.30
 -10 -15  -4   18.53    2.49
 -10 -15  -4   20.84    2.11
 -10 -15   4   21.29    2.39
 -10 -15   5   35.73    2.92
 -10 -15   5   23.44    3.55
 -10 -15  -5   29.81    3.73
 -10 -15   5   37.60    2.93
 -10 -15  -5   31.75    2.45
 -10 -15  -5   32.11    2.63
 -10 -15  -5   30.75    2.34
 -10 -15  -6    4.34    1.53
 -10 -15   6    1.27    1.76
 -10 -15   6    1.08    1.71
 -10 -15  -6    0.67    1.32
 -10 -15  -6    2.90    1.51
 -10 -15   7   16.08    2.07
 -10 -15  -7   12.60    1.76
 -10 -15  -7   10.05    1.74
 -10 -15  -8    1.56    1.26
 -10 -15   8    3.37    1.59
 -10 -15   8    2.75    1.65
 -10 -15   9    3.92    1.48
 -10 -15  -9    0.38    1.17
 -10 -15   9    2.35    1.30
 -10 -15  -9    0.42    1.24
 -10 -15  10   -0.63    1.22
 -10 -15  10    2.00    1.04
 -10 -15 -10   -0.15    1.06
 -10 -15 -10   -0.78    0.98
 -10 -15 -11    2.41    0.93
  15 -10  11    1.19    1.05
 -10 -15  11    1.25    0.95
  -9 -15   0   54.46    3.41
  -9 -15   0   58.72    3.49
  -9 -15   0   59.20    3.37
  -9 -15   0   60.01    3.56
  -9 -15   0   60.58    3.39
  -9 -15   1  188.49    8.33
  -9 -15  -1  205.23    8.50
  -9 -15   1  192.35    8.51
  -9 -15  -1  187.25    8.31
  -9 -15   1  197.32    8.41
  -9 -15  -1  199.20    8.43
  -9 -15   1  202.12    8.51
  -9 -15  -1  193.46    8.51
  -9 -15   1  213.80    8.55
  -9 -15  -1  194.26    8.40
  -9 -15  -2   19.27    2.05
  -9 -15  -2   16.50    1.96
  -9 -15   2   13.67    2.05
  -9 -15   2   18.11    2.08
  -9 -15  -2   18.06    2.10
  -9 -15   2   18.06    1.91
  -9 -15   2   20.65    2.41
  -9 -15  -2   16.37    2.09
  -9 -15   2   20.28    2.17
  -9 -15   3    3.36    1.41
  -9 -15   3    0.84    1.58
  -9 -15  -3   -0.22    1.55
  -9 -15  -3    0.92    1.45
  -9 -15   3    1.27    1.57
  -9 -15   3    3.31    1.69
  -9 -15  -3    1.84    1.50
  -9 -15   3    3.17    1.90
  -9 -15   4   82.83    4.30
  -9 -15  -4   80.84    4.34
  -9 -15   4   93.38    4.66
  -9 -15  -4   81.67    4.36
  -9 -15  -4   80.23    4.39
  -9 -15   4   82.34    4.34
  -9 -15  -4   80.02    4.20
  -9 -15  -5   27.66    2.60
  -9 -15   5   27.52    2.60
  -9 -15   5   34.36    2.99
  -9 -15  -5   30.31    2.46
  -9 -15   5   31.39    2.95
  -9 -15   5   26.86    2.49
  -9 -15  -5   29.91    2.40
  -9 -15  -5   30.24    2.58
  -9 -15   6   36.78    2.84
  -9 -15   6   29.61    2.81
  -9 -15  -6   28.42    2.29
  -9 -15   7    4.14    1.85
  -9 -15  -7    5.43    1.56
  -9 -15   8   11.87    1.90
  -9 -15   8    9.63    2.09
  -9 -15  -8    8.66    1.70
  -9 -15  -8    8.96    1.70
  -9 -15  -9   -1.65    1.35
  -9 -15   9    1.75    1.38
  -9 -15  -9   -0.06    1.27
 -15   9  -9    2.15    1.25
  -9 -15   9   -0.35    1.45
  -9 -15  10    2.91    1.10
  -9 -15 -10    1.72    1.18
 -15   9 -10    2.86    1.24
  -9 -15  10    0.58    1.29
  -9 -15  11    0.64    1.10
  15  -9  11   -0.22    1.11
  -9 -15 -11    0.84    1.01
  -9 -15 -12    1.24    0.75
  -8 -15   0    2.34    1.67
  -8 -15   0    1.07    1.71
  -8 -15   0    1.45    1.44
  -8 -15   0    2.29    1.59
  -8 -15  -1  313.94   12.38
  -8 -15   1  298.31   12.37
  -8 -15  -1  282.20   12.15
  -8 -15   1  312.68   12.34
  -8 -15  -1  302.78   12.33
  -8 -15  -1  301.56   12.33
  -8 -15   1  296.79   12.31
  -8 -15   1  320.95   12.48
  -8 -15  -1  303.27   12.31
  -8 -15  -2    8.81    1.88
  -8 -15   2   10.08    1.74
  -8 -15   2    8.51    1.75
  -8 -15  -2    8.19    1.65
  -8 -15   2   11.43    2.01
  -8 -15   2   11.42    2.18
  -8 -15  -2    6.05    1.73
  -8 -15   2    9.53    1.84
  -8 -15  -2    7.85    1.90
  -8 -15   3    1.15    1.39
  -8 -15  -3    1.20    1.56
  -8 -15  -3    3.00    1.47
  -8 -15   3    3.44    1.65
  -8 -15   3    1.52    1.65
  -8 -15   3    1.28    1.90
  -8 -15  -3    2.50    1.53
  -8 -15   3    2.51    1.49
  -8 -15  -3    2.09    1.65
  -8 -15  -4   15.93    1.94
  -8 -15   4   14.27    2.14
  -8 -15  -4   14.01    1.79
  -8 -15   4   17.65    1.90
  -8 -15   4   15.05    2.07
  -8 -15  -4   14.42    1.88
  -8 -15   5   49.51    3.34
  -8 -15   5   47.60    3.31
  -8 -15  -5   34.45    2.64
  -8 -15   5   34.23    2.77
  -8 -15  -5   37.41    2.58
  -8 -15   5   33.39    2.54
  -8 -15  -5   38.07    2.61
  -8 -15  -6   18.94    2.06
  -8 -15   6   22.29    2.51
  -8 -15   6   16.67    2.45
  -8 -15  -6   18.61    2.02
  -8 -15  -6   17.92    2.12
  -8 -15   7   28.12    2.67
  -8 -15   7   22.89    2.65
  -8 -15  -7   18.39    2.25
  -8 -15  -7   21.61    2.23
  -8 -15   8    3.03    1.36
 -15   8  -8    3.72    1.41
  -8 -15   8    2.59    1.75
  -8 -15  -8    4.82    1.49
  -8 -15  -8    2.50    1.52
  -8 -15   9   10.68    2.00
 -15   8  -9   11.90    1.73
  -8 -15   9   13.82    1.86
  -8 -15  -9    9.16    1.71
  -8 -15  -9   10.36    1.71
  -8 -15  10   -1.00    1.48
  -8 -15  10   -1.15    1.22
 -15   8 -10   -0.71    1.27
  -8 -15 -10   -0.17    1.16
 -15   8 -11    2.38    1.17
  -8 -15 -11    1.93    1.05
  -8 -15  11    2.49    1.15
  -8 -15 -12    2.34    0.93
  -8 -15  12    3.68    0.96
  -7 -15   0  737.15   27.02
  -7 -15   0  667.61   26.84
  -7 -15   0  706.74   26.94
  -7 -15   0  699.79   27.01
  -7 -15  -1  102.62    4.88
  -7 -15   1  105.07    4.97
  -7 -15   1   99.67    4.90
  -7 -15  -1  102.06    4.94
  -7 -15   1   94.29    4.92
  -7 -15  -1   91.13    4.93
  -7 -15   1  101.76    4.92
  -7 -15  -1   96.93    4.89
  -7 -15   2  108.74    5.53
  -7 -15  -2  116.19    5.63
  -7 -15   2  121.24    5.64
  -7 -15   2  124.37    5.78
  -7 -15   2  115.02    5.59
  -7 -15  -2  122.59    5.67
  -7 -15   2  126.57    5.81
  -7 -15  -2  116.08    5.48
  -7 -15  -3   20.72    2.15
  -7 -15   3   17.12    1.91
  -7 -15   3   17.95    2.15
  -7 -15  -3   14.80    1.91
  -7 -15   3   18.08    2.16
  -7 -15   3   20.61    2.45
  -7 -15   3   19.16    2.10
  -7 -15  -3   15.06    2.02
  -7 -15   4   13.37    1.83
  -7 -15  -4   11.50    1.79
  -7 -15  -4   10.51    1.75
  -7 -15   4   10.99    1.84
  -7 -15  -4   11.25    1.75
  -7 -15   4   12.62    2.12
  -7 -15   5    1.96    1.83
  -7 -15   5    1.66    1.36
  -7 -15   5   -0.44    2.02
  -7 -15  -5    1.74    1.39
  -7 -15  -5    1.59    1.36
  -7 -15   5   -0.07    1.52
  -7 -15  -5    1.45    1.46
  -7 -15   6   57.27    3.74
  -7 -15  -6   47.61    3.31
  -7 -15   6   55.76    3.76
  -7 -15  -6   48.57    3.16
  -7 -15  -7    6.55    1.64
 -15   7  -7    3.19    1.54
  -7 -15   7    7.37    2.01
  -7 -15  -7    5.15    1.62
  -7 -15   7    8.14    2.08
 -15   7  -8   19.44    2.14
  -7 -15  -8   19.14    2.18
  -7 -15  -8   20.69    2.21
  -7 -15  -9    3.01    1.41
  -7 -15   9    4.26    1.61
  -7 -15   9    1.71    1.66
 -15   7  -9    2.24    1.45
  -7 -15  -9    3.58    1.42
  -7 -15  10    0.21    1.22
  -7 -15  10   -0.53    1.45
  -7 -15 -10   -0.67    1.24
  -7 -15  10    2.01    1.29
 -15   7 -10    2.04    1.35
 -15   7 -11    0.38    1.25
  -7 -15 -11    1.44    1.14
  -7 -15  11    3.62    1.31
 -15   7 -11    1.32    1.06
  -7 -15 -12   -0.04    0.89
  -7 -15  12    0.56    0.91
  15  -6   0    3.14    2.34
  -6 -15   0   -0.60    1.50
  -6 -15   0    2.00    1.40
  -6 -15   0    0.78    1.63
  -6 -15   0    0.78    1.54
  -6 -15   1   44.50    2.99
  -6 -15  -1   44.87    3.02
  15  -6  -1   37.59    3.86
  -6 -15   1   42.05    2.97
  -6 -15   1   44.56    4.40
  -6 -15  -1   47.49    3.00
  -6 -15   1   49.21    3.11
  -6 -15  -1   47.87    2.91
  -6 -15   1   47.69    3.03
  -6 -15  -1   48.28    3.09
  -6 -15   2   -1.55    1.56
  -6 -15  -2    1.78    1.56
  -6 -15   2    1.01    1.50
  -6 -15  -2   -0.24    1.65
  -6 -15   2    1.23    1.52
  -6 -15   2    3.48    1.79
  -6 -15   2    0.32    1.67
  -6 -15  -2    2.45    1.48
  -6 -15   3   88.17    4.60
  -6 -15  -3   93.38    4.67
  -6 -15  -3   84.79    4.53
  -6 -15   3   98.61    4.83
  -6 -15   3   93.42    4.78
  -6 -15  -3   87.71    4.70
  -6 -15   3   98.62    4.64
  -6 -15  -3   93.55    4.69
  -6 -15   3  107.11    5.09
  -6 -15  -4    5.46    1.52
  -6 -15   4    5.59    1.85
  -6 -15   4    5.61    1.53
  -6 -15  -4    6.21    1.55
  -6 -15   4    6.43    1.71
  -6 -15   4    5.60    2.03
  -6 -15  -4    5.43    1.48
  -6 -15   4    3.82    1.47
  -6 -15  -4    5.51    1.59
  -6 -15   5   40.84    2.78
  -6 -15  -5   42.39    3.00
  -6 -15   5   53.79    3.61
  -6 -15   5   53.04    3.43
  -6 -15  -5   51.53    2.99
  -6 -15  -5   49.55    3.17
  -6 -15   6   13.21    1.99
 -15   6  -6   12.12    1.75
  -6 -15   6   14.20    2.22
  -6 -15  -6   13.14    1.75
  -6 -15  -6   13.01    1.87
  -6 -15   6   18.91    2.48
 -15   6  -7    4.33    1.50
  -6 -15   7    4.24    1.84
  -6 -15  -7    4.52    1.62
  -6 -15   7    0.42    1.92
  -6 -15  -7    3.65    1.54
 -15   6  -8    1.06    1.50
  -6 -15  -8    1.09    1.51
  -6 -15  -8    0.08    1.40
  -6 -15   8    3.18    1.85
  -6 -15  -9    3.51    1.39
  -6 -15   9    1.76    1.73
 -15   6  -9    3.85    1.54
  -6 -15   9    1.63    1.63
  -6 -15 -10    1.13    1.27
  -6 -15  10   -0.21    1.50
  -6 -15  10    4.57    1.34
 -15   6 -10    0.34    1.37
 -15   6 -11    1.68    1.38
  -6 -15 -11    5.36    1.32
  -6 -15  11    3.80    1.43
 -15   6 -11    4.68    1.20
  -6 -15 -12    4.79    1.16
  -6 -15  12    7.04    1.29
  -5 -15   0   41.92    2.90
  15  -5   0   42.56    4.03
 -15   5   0   44.70    4.87
 -15   5   0   48.16    5.16
  -5 -15  -1   25.70    2.17
  15  -5  -1   22.45    3.09
  -5 -15   1   25.55    3.38
 -15   5  -1   26.25    4.68
 -15   5   1   22.14    3.82
  -5 -15   1   24.69    2.21
  -5 -15  -1   24.65    2.21
 -15   5  -1   30.88    4.16
 -15   5   1   29.02    3.83
  -5 -15   2   93.75    4.74
  -5 -15  -2   90.29    4.76
  -5 -15  -2   98.47    4.78
  15  -5  -2   90.98    5.94
  -5 -15   2   92.62    4.71
  -5 -15  -2  100.09    4.79
 -15   5   2  110.87    7.30
  -5 -15   2   96.45    6.44
  -5 -15  -2   91.90    4.54
  -5 -15   2  106.46    4.97
  -5 -15   2   93.85    4.79
  -5 -15   3   13.41    2.17
  -5 -15   3   10.87    1.79
  -5 -15  -3   11.07    1.82
  -5 -15   3    9.37    1.79
  -5 -15  -3    9.12    1.79
  -5 -15   3   11.43    1.74
  -5 -15  -3   13.24    1.89
  -5 -15  -3   10.51    1.61
  -5 -15   3   12.30    1.89
  -5 -15   4   40.09    3.03
  -5 -15  -4   35.75    2.54
  -5 -15   4   28.67    2.45
  -5 -15  -4   34.29    2.70
  -5 -15  -4   30.51    2.30
  -5 -15   4   36.05    2.81
  -5 -15   4   34.34    2.52
  -5 -15  -4   36.34    2.57
  -5 -15   4   35.19    2.82
  -5 -15  -5   25.08    2.21
  -5 -15  -5   25.56    2.32
  -5 -15   5   26.53    2.15
  -5 -15   5   24.06    2.57
  -5 -15  -6   11.40    1.77
  -5 -15   6   11.92    2.18
  -5 -15   6   13.28    2.22
 -15   5  -6    7.71    1.72
  -5 -15  -6    9.29    1.84
  -5 -15  -7    6.59    1.63
  -5 -15   7    6.51    2.08
  -5 -15  -7    5.58    1.62
  -5 -15   7   10.69    2.06
 -15   5  -7    2.98    1.60
 -15   5  -7    3.70    1.88
  -5 -15  -8    0.90    1.38
 -15   5  -8    3.50    1.68
  -5 -15   8    1.03    1.73
 -15   5  -8    0.40    1.49
  -5 -15   9    1.79    1.74
  -5 -15  -9    1.28    1.37
 -15   5  -9    1.52    1.64
  -5 -15   9   -0.56    1.67
 -15   5  -9    2.26    1.58
  -5 -15  10    6.90    1.80
  -5 -15 -10    5.96    1.53
 -15   5 -10   10.47    1.88
 -15   5 -10    5.59    1.67
  -5 -15  10   10.43    1.69
 -15   5 -11    1.10    1.13
  -5 -15  11   -0.36    1.08
  -5 -15  11    1.71    1.35
  -5 -15  11    1.81    1.30
 -15   5 -11    2.58    1.35
  -5 -15 -11    3.30    1.18
  -5 -15  12    0.72    1.10
  15  -5 -12    1.45    1.22
  -5 -15 -12    0.24    0.98
 -15   4   0    1.01    2.80
 -15   4   0   -1.85    3.04
  -4 -15   0    0.96    1.57
 -15   4  -1  111.40    7.48
 -15   4   1  105.13    7.15
  -4 -15   1   91.92    6.12
  15  -4  -1   93.96    5.93
 -15   4  -1  121.20    7.45
 -15   4   1  109.08    7.01
  -4 -15  -1   89.26    4.71
  -4 -15   1   88.20    4.67
  -4 -15   2    3.82    1.49
  -4 -15  -2    4.08    1.52
  15  -4  -2    2.93    2.41
 -15   4  -2    4.10    2.98
 -15   4   2    3.75    2.55
 -15   4  -2    5.95    3.92
 -15   4   2    3.47    3.11
  -4 -15   2    1.48    2.51
  -4 -15   3    2.97    1.42
  -4 -15  -3    3.97    1.56
  -4 -15   3    3.58    1.77
  -4 -15   3    2.11    1.48
  -4 -15  -3    5.00    1.54
  -4 -15   3    3.80    1.63
  -4 -15  -3    3.29    1.25
  -4 -15   3    3.83    1.62
  -4 -15  -3    0.89    1.47
  -4 -15   4   11.48    1.68
  -4 -15  -4    9.38    1.71
  -4 -15   4   16.26    2.20
  -4 -15  -4   11.83    1.71
  -4 -15   4   11.16    1.98
  -4 -15  -4   10.64    1.59
  -4 -15  -4   11.91    1.86
  -4 -15   4   10.66    1.98
  -4 -15   5    2.10    1.30
  -4 -15  -5    3.05    1.39
  -4 -15  -5    2.32    1.52
  -4 -15   5    3.30    1.74
 -15   4  -5    2.20    1.46
  -4 -15   6    0.91    1.79
  -4 -15   6    1.98    1.91
  -4 -15  -6    0.07    1.38
  -4 -15  -6    1.18    1.48
 -15   4  -6   -0.41    1.69
 -15   4  -6    0.24    1.40
  -4 -15   7    8.17    2.06
  -4 -15   7   11.58    2.18
  -4 -15  -7    8.97    1.61
 -15   4  -7   10.85    2.12
 -15   4  -7    9.32    1.85
  -4 -15  -7    5.38    1.62
  -4 -15   8    1.29    1.55
 -15   4  -8    4.80    1.66
  -4 -15   8    1.35    1.74
 -15   4  -8    2.35    1.78
  -4 -15  -8    2.38    1.37
  -4 -15   9    0.33    1.68
 -15   4  -9    1.72    1.64
  -4 -15   9    2.74    1.69
 -15   4  -9    2.46    1.76
  -4 -15  -9    0.86    1.34
  -4 -15  10    1.54    1.62
 -15   4 -10    3.01    1.60
  -4 -15  10    1.20    1.48
  -4 -15 -10    1.65    1.33
 -15   4 -10    2.45    1.69
 -15   4 -11   -1.32    1.50
  -4 -15  11    1.37    1.08
 -15   4 -11    0.59    1.06
 -15   4 -11    3.36    1.40
  -4 -15  11   -0.18    1.34
  -4 -15 -11    1.59    1.19
  -4 -15  12    1.76    1.14
 -15   4 -12    5.93    1.19
 -15   3   0    0.97    2.57
  -3 -15   0    2.04    1.58
 -15   3   0    1.74    2.80
  -3 -15   1   15.35    1.88
  -3 -15  -1   17.00    1.94
 -15   3  -1   16.61    3.88
 -15   3   1   16.72    3.46
  -3 -15   1   13.36    2.82
  15  -3  -1   13.15    2.86
 -15   3  -1   21.27    3.61
 -15   3   1   17.22    3.39
 -15   3   2   37.58    4.15
  -3 -15  -2   35.50    2.69
  -3 -15   2   34.16    2.63
  -3 -15   2   39.74    4.00
 -15   3  -2   46.99    5.57
  15  -3  -2   44.45    4.03
 -15   3  -2   39.52    4.59
 -15   3   2   44.91    4.23
 -15   3  -3   -0.47    2.47
 -15   3   3    0.65    2.29
  15  -3  -3   -1.12    2.50
  -3 -15  -3    0.92    1.36
  -3 -15   3    0.41    1.48
  -3 -15   3   -2.86    1.59
  -3 -15  -3    1.58    1.37
  -3 -15   3   -0.24    1.46
  -3 -15  -3    0.24    1.48
 -15   3  -3   -2.62    4.10
  -3 -15   3   -1.31    2.50
  -3 -15   3    0.95    1.64
 -15   3  -4    2.42    1.40
  -3 -15   4    3.57    1.44
  -3 -15  -4    2.38    1.38
  -3 -15   4    1.99    1.87
  -3 -15   4    1.23    1.63
  -3 -15  -4    3.57    1.57
  -3 -15   4    2.53    1.60
  -3 -15  -4    1.44    1.42
 -15   3  -5  103.43    5.18
  -3 -15   5  118.87    5.61
  -3 -15   5  102.80    4.98
  -3 -15  -5  103.87    5.33
  -3 -15  -5  102.48    5.06
  -3 -15  -6    8.75    1.59
  -3 -15   6    7.24    1.88
  -3 -15  -6    4.45    1.54
  -3 -15   6    5.32    1.87
 -15   3  -6    6.57    1.73
 -15   3  -6    6.04    1.86
  -3 -15   6    6.83    1.85
  -3 -15  -7    5.89    1.54
  -3 -15   7    4.74    1.93
 -15   3  -7    5.71    1.77
 -15   3  -7    5.36    1.89
  -3 -15   7    8.69    1.97
  -3 -15  -8    8.48    1.57
 -15   3  -8    9.71    1.96
  -3 -15   8    9.27    2.01
  -3 -15   8    5.72    1.80
 -15   3  -8    8.11    1.92
 -15   3  -9    2.30    1.77
 -15   3  -9    2.92    1.70
  -3 -15  -9    2.54    1.39
  -3 -15   9   -1.32    1.61
  -3 -15  10    0.60    1.47
  -3 -15 -10    0.13    1.29
 -15   3 -10   -0.96    1.45
 -15   3 -10   -0.16    1.56
  -3 -15  10   -1.48    1.47
 -15   3 -10    3.56    1.69
  -3 -15  11    2.09    1.20
  -3 -15  11    2.14    1.50
 -15   3 -11    3.79    1.52
  -3 -15  12   -1.65    1.13
 -15   3 -12    0.14    1.11
  -3 -15  13    0.29    0.71
  -2 -15   0    1.46    1.45
 -15   2   0    1.34    2.52
 -15   2   0   -1.18    2.85
 -15   2  -1   85.98    6.31
 -15   2   1   71.40    5.56
  -2 -15  -1   65.68    3.76
  -2 -15   1   67.78    3.75
  15  -2  -1   78.86    5.21
 -15   2  -1   71.27    5.57
 -15   2   1   78.14    5.48
  -2 -15   1   65.22    4.76
 -15   2  -2  186.27   10.28
 -15   2   2  171.12    9.36
  -2 -15   2  165.00    7.40
  -2 -15  -2  164.43    7.47
 -15   2  -2  196.89    9.75
 -15   2   2  180.85    9.36
  15  -2  -2  166.65    8.85
  -2 -15   2  179.61    9.18
 -15   2  -3   82.51    6.76
  -2 -15  -3   78.17    4.07
  -2 -15   3   70.91    3.91
  -2 -15   3   81.93    5.94
  15  -2  -3   79.35    5.52
 -15   2  -3   75.27    5.76
 -15   2   3   74.36    5.62
  -2 -15   4   31.05    2.26
  -2 -15  -4   26.23    2.27
  -2 -15   4   27.75    2.39
  -2 -15  -4   29.47    2.40
 -15   2  -4   23.23    2.25
  -2 -15  -4   23.74    2.02
  -2 -15  -4   28.32    2.13
  -2 -15   4   27.96    2.42
  -2 -15   4   30.80    2.65
  -2 -15   5    1.55    1.63
 -15   2  -5    0.72    1.43
  -2 -15  -5   -0.88    1.30
 -15   2  -5   -0.50    1.63
  -2 -15  -5    1.66    1.26
  -2 -15  -5   -0.40    1.44
  -2 -15   5    1.23    1.27
 -15   2  -6   17.23    2.31
  -2 -15   6   18.52    2.36
 -15   2  -6   20.06    2.25
  -2 -15   6   21.41    2.42
  -2 -15   6   20.10    2.31
  -2 -15  -6   16.30    1.99
 -15   2  -7   19.18    2.44
  -2 -15   7   20.19    2.42
 -15   2  -7   19.62    2.38
  -2 -15   7   20.19    2.49
  -2 -15   7   22.60    2.47
  -2 -15  -7   16.97    2.03
  -2 -15   8   21.67    2.41
 -15   2  -8   17.71    2.39
 -15   2  -8   12.86    2.34
  -2 -15  -8   20.08    2.03
  -2 -15   9    1.99    1.64
 -15   2  -9    1.43    1.73
 -15   2  -9    1.72    1.71
  -2 -15  -9    0.07    1.28
 -15   2 -10    1.31    1.47
 -15   2 -10    1.43    1.73
  -2 -15  10    1.01    1.48
 -15   2 -10    1.97    1.64
  -2 -15  10    0.83    1.57
 -15   2 -11    1.68    1.55
  -2 -15  11    1.75    1.16
 -15   2 -11    2.47    1.50
  -2 -15  11    3.21    1.44
  -2 -15  12    1.07    1.14
 -15   2 -12   -0.34    1.18
  -2 -15  13    0.15    0.80
 -15   1   0   37.90    4.01
  -1 -15   0   37.04    2.68
 -15   1   0   39.49    4.33
 -15   1  -1  180.87    9.33
 -15   1   1  175.98    9.07
  -1 -15   1  159.14    7.22
  -1 -15  -1  165.46    7.26
 -15   1  -1  174.36    9.76
 -15   1   1  150.30    8.90
 -15   1   2  262.98   12.65
  -1 -15   2  257.04   12.34
 -15   1  -2  286.08   12.85
 -15   1   2  264.52   12.55
  -1 -15  -2  257.74   10.78
  -1 -15   2  255.44   10.68
 -15   1  -2  267.51   13.39
  -1 -15   3   15.92    1.84
  -1 -15  -3   14.09    1.92
 -15   1  -3   14.79    3.98
  -1 -15   3   11.62    2.99
 -15   1  -3   19.41    3.29
 -15   1   3   17.61    3.17
  -1 -15   4    2.54    1.34
  -1 -15  -4   -0.89    1.57
  -1 -15   4    0.38    1.49
  -1 -15  -4   -0.13    1.23
  -1 -15   4    0.24    1.56
 -15   1  -4    2.16    2.37
  -1 -15   4    2.47    1.77
  -1 -15  -4    1.77    1.48
  -1 -15  -4    1.45    1.22
 -15   1  -5   -0.59    1.65
 -15   1  -5    2.32    1.58
  -1 -15  -5    0.33    1.28
  -1 -15  -5    0.86    1.22
  -1 -15   5   -0.17    1.56
  -1 -15  -5    2.35    1.54
  -1 -15   5    1.23    1.26
 -15   1  -6    3.11    1.68
  -1 -15   6    2.79    1.75
  -1 -15  -6    0.90    1.27
  -1 -15   6    2.40    1.57
  -1 -15   6    3.65    1.70
 -15   1  -6    0.60    1.67
  -1 -15  -6    1.00    1.29
  -1 -15   7    3.33    1.74
  -1 -15  -7    1.77    1.29
 -15   1  -7    2.07    1.86
  -1 -15  -7    3.08    1.42
  -1 -15   7    2.16    1.58
 -15   1  -7    5.01    1.73
 -15   1  -8    5.14    1.89
  -1 -15   8    3.98    1.79
 -15   1  -8    4.12    1.92
  -1 -15  -8    1.18    1.27
  -1 -15   8    1.81    1.82
 -15   1  -9    6.27    1.90
 -15   1  -9    5.22    2.04
 -15   1  -9    5.68    1.83
  -1 -15   9    5.23    1.86
  -1 -15  10    1.27    1.48
 -15   1 -10   -0.43    1.63
 -15   1 -10    1.76    1.33
 -15   1 -10   -1.53    1.71
  -1 -15  10    1.14    1.52
  -1 -15  11    0.67    1.40
 -15   1 -11    1.20    1.44
  -1 -15  11    1.79    1.23
 -15   1 -11    5.15    1.68
 -15   1 -12    1.58    1.16
 -15   1 -12    1.35    1.33
  -1 -15  12    0.20    1.12
  -1 -15  13   -0.22    0.80
 -15   0   0    3.25    2.55
 -15   0   0    2.74    2.80
   0 -15   0    3.60    1.65
 -15   0   1  581.85   24.84
 -15   0  -1  624.39   25.28
  15   0  -1  587.05   24.50
 -15   0  -1  627.67   25.06
 -15   0   1  593.71   24.83
   0 -15   1  587.26   22.94
   0 -15  -1  587.41   22.99
   0 -15   2   93.76    5.94
 -15   0  -2   91.82    6.57
 -15   0  -2   95.57    6.18
 -15   0   2   94.51    5.92
  15   0  -2  101.59    6.14
   0 -15  -2   88.03    4.64
   0 -15   2   87.95    4.52
   0 -15   3   74.42    5.63
   0 -15   3   78.43    4.13
   0 -15  -3   78.44    4.18
  15   0  -3   77.50    5.71
 -15   0  -3   84.37    5.62
 -15   0   3   81.38    5.44
 -15   0  -3   91.33    6.51
   0 -15   4   10.32    1.99
   0 -15   4    8.40    1.69
 -15   0  -4   13.29    2.55
 -15   0   4    7.93    2.38
   0 -15  -4   11.98    1.87
   0 -15   4   14.94    2.01
   0 -15  -4    8.68    1.66
   0 -15   4   10.07    1.66
   0 -15  -4    9.63    1.54
   0 -15   5    6.21    1.49
   0 -15  -5    4.59    1.52
 -15   0  -5    2.74    1.65
   0 -15   5    1.33    1.55
   0 -15   5    7.03    1.88
   0 -15  -5    4.52    1.52
 -15   0  -5    5.30    1.90
   0 -15   5    4.52    1.95
   0 -15   6    2.34    1.62
 -15   0  -6    2.75    1.74
   0 -15  -6    3.27    1.37
   0 -15   6    1.20    1.61
   0 -15   6    2.80    1.84
 -15   0  -6    2.01    1.72
   0 -15   7   31.84    2.82
 -15   0  -7   35.99    3.05
   0 -15  -7   28.03    2.54
   0 -15   7   36.82    2.88
   0 -15   7   38.48    2.96
 -15   0  -7   35.26    3.00
   0 -15   8    7.93    2.08
   0 -15   8   13.53    1.98
 -15   0  -8   12.47    2.15
 -15   0  -8    5.65    1.91
 -15   0  -8   15.82    2.41
   0 -15   9    7.29    1.88
 -15   0  -9    6.82    2.12
 -15   0  -9    4.45    1.90
 -15   0  -9    6.54    1.81
 -15   0 -10    4.83    2.04
   0 -15  10   10.73    2.01
 -15   0 -10    8.78    2.02
 -15   0 -10    9.44    1.70
   0 -15  10    8.90    1.88
   0 -15  10   12.52    2.04
 -15   0 -11   -1.27    1.51
 -15   0 -11    1.51    1.54
   0 -15  11    2.21    1.25
   0 -15  11    3.27    1.48
 -15   0 -12    2.67    1.18
 -15   0 -12   -0.81    1.41
   0 -15  12   -1.20    1.20
   0 -15  13    0.58    0.84
   1 -15   0  113.85    5.45
 -15  -1   0  116.99    6.92
  15   1  -1   29.49    3.51
 -15  -1  -1   20.81    3.21
 -15  -1   1   27.82    3.31
 -15  -1  -1   21.88    3.68
   1 -15   1   22.92    2.25
   1 -15  -1   23.50    2.33
 -15  -1  -2  339.53   15.40
 -15  -1   2  331.69   15.26
  15   1  -2  371.08   15.52
 -15  -1  -2  348.25   16.11
   1 -15   2  357.55   15.39
   1 -15   2  331.70   13.76
   1 -15  -2  353.04   13.89
 -15  -1  -3   39.15    3.90
 -15  -1   3   38.69    3.91
  15   1  -3   49.94    4.39
   1 -15  -3   47.31    2.99
   1 -15   3   43.13    2.82
   1 -15   3   50.21    4.48
   1 -15   4    4.15    1.66
   1 -15   4    6.70    1.83
 -15  -1  -4    5.61    2.22
   1 -15  -4    8.06    1.72
   1 -15   4    3.49    1.41
   1 -15  -4    7.07    1.67
   1 -15  -5    0.50    1.60
   1 -15   5    3.32    1.61
   1 -15   5    4.38    1.86
   1 -15   5    1.05    1.33
   1 -15   5    1.65    1.57
   1 -15   6   80.08    4.39
   1 -15   6   77.09    4.26
   1 -15  -6   73.18    4.18
   1 -15  -7   26.17    2.40
   1 -15   7   26.02    2.63
 -15  -1  -7   32.33    2.82
   1 -15   7   31.97    2.93
 -15  -1  -7   35.72    2.97
   1 -15   7   33.96    2.86
   1 -15   7   27.83    2.53
   1 -15   8    9.54    1.78
   1 -15   8    7.43    1.96
   1 -15   8    3.84    1.90
   1 -15   8    5.51    1.84
 -15  -1  -8    3.03    1.74
 -15  -1  -8    7.26    2.24
   1 -15   9    2.98    1.61
 -15  -1  -9    1.36    1.59
   1 -15  10   16.49    2.21
 -15  -1 -10   17.03    2.29
 -15  -1 -10   13.86    1.93
   1 -15  10   17.85    2.13
 -15  -1 -11    1.32    1.49
   1 -15  11   -0.59    1.27
 -15  -1 -12    2.65    1.29
   1 -15  13   -0.20    0.81
 -15  -2   0    0.73    2.04
   2 -15   0    1.72    1.64
 -15  -2   1   33.29    3.42
 -15  -2  -1   23.84    3.21
   2 -15  -1   25.39    2.44
   2 -15   1   26.12    2.31
  15   2  -1   27.27    3.40
   2 -15   2  196.44    8.71
   2 -15  -2  215.74    8.85
 -15  -2  -2  212.67   10.40
 -15  -2   2  191.07   10.04
  15   2  -2  225.66   10.43
   2 -15  -3  263.24   10.66
   2 -15   3  251.93   10.51
 -15  -2  -3  246.38   12.15
 -15  -2   3  261.09   12.19
  15   2  -3  269.19   12.37
   2 -15   3  249.27   12.27
 -15  -2   4   18.67    2.19
   2 -15   4   21.85    2.32
   2 -15   4   20.24    2.40
   2 -15  -4   20.88    2.18
   2 -15   4   22.00    2.01
   2 -15  -4   21.27    2.06
   2 -15   5  243.20   10.71
   2 -15   5  291.13   11.19
   2 -15  -5  253.66   11.01
 -15  -2  -5  274.95   11.37
 -15  -2   5  253.62   10.89
   2 -15   5  269.56   11.19
 -15  -2  -5  269.81   11.30
   2 -15   5  281.87   11.23
   2 -15  -6   21.12    2.27
 -15  -2  -6   16.28    2.35
 -15  -2  -6   18.01    2.36
   2 -15   6   24.27    2.47
   2 -15   6   25.45    2.33
   2 -15   7   26.94    2.57
 -15  -2  -7   28.61    2.76
   2 -15  -7   24.32    2.46
   2 -15   7   33.17    2.84
   2 -15   7   28.58    2.71
 -15  -2  -7   24.27    2.56
 -15  -2  -8    2.60    1.80
   2 -15   8   -0.52    1.71
 -15  -2  -8    0.55    1.64
   2 -15   8    3.47    1.56
   2 -15   8    1.88    1.85
 -15  -2  -9   37.80    3.27
 -15  -2  -9   34.75    3.05
   2 -15   9   37.91    2.85
 -15  -2  -9   45.36    3.33
 -15  -2 -10    0.09    1.59
   2 -15  10    2.01    1.69
 -15  -2 -10    0.13    1.25
 -15  -2 -10   -0.38    1.64
   2 -15  10    1.28    1.50
   2 -15  11    5.05    1.39
   2 -15  11    2.81    1.58
 -15  -2 -11    8.22    1.76
 -15  -2 -11    6.21    1.67
   2 -15  12    2.24    1.23
 -15  -2 -12   -1.16    1.36
 -15  -2 -12   -0.96    1.18
   2 -15  13    0.29    0.86
   3 -15   0   77.87    4.05
 -15  -3   0   72.84    5.13
   3 -15  -1    9.94    1.78
   3 -15   1    7.67    1.69
 -15  -3  -1    7.98    2.39
 -15  -3   1    9.48    2.59
  15   3  -1    9.87    2.78
   3 -15   2  221.55    9.43
   3 -15  -2  222.70    9.58
  15   3  -2  250.54   11.21
 -15  -3  -2  216.89   11.00
 -15  -3   2  229.81   10.98
 -15  -3  -3    2.80    1.62
 -15  -3   3    2.98    1.82
   3 -15  -3    2.65    1.55
 -15  -3  -3    2.98    2.16
 -15  -3   3    5.32    2.10
   3 -15   3    2.92    1.54
   3 -15  -3    3.85    1.75
  15   3  -3    0.37    2.53
   3 -15   3    2.21    2.25
   3 -15  -4  334.17   14.08
 -15  -3   4  335.46   14.11
   3 -15  -4  373.25   14.21
   3 -15   4  362.52   14.09
   3 -15   4  357.10   14.28
   3 -15   5   74.44    4.04
 -15  -3  -5   68.31    4.02
 -15  -3   5   65.29    3.84
   3 -15   5   66.69    3.67
   3 -15   5   72.52    3.96
   3 -15  -5   63.70    3.88
   3 -15  -6  109.80    5.62
 -15  -3  -6  113.61    5.90
   3 -15   6  117.01    5.57
 -15  -3  -6  108.37    5.72
   3 -15   6  111.99    5.69
 -15  -3   6  107.44    5.44
   3 -15   7   15.32    2.19
   3 -15   7    7.29    1.95
   3 -15  -7   11.38    1.93
 -15  -3  -7   14.98    2.33
 -15  -3  -7   10.12    2.04
   3 -15   7   14.95    2.25
 -15  -3  -8   52.70    3.85
   3 -15   8   61.10    3.82
   3 -15   8   63.56    3.94
 -15  -3  -8   53.23    3.68
   3 -15   8   55.12    3.55
 -15  -3  -8   59.90    3.88
 -15  -3  -9    0.25    1.66
   3 -15   9    2.85    1.36
 -15  -3  -9    0.61    1.72
 -15  -3  -9   -1.34    1.50
   3 -15   9    0.44    1.73
 -15  -3 -10    4.32    1.72
 -15  -3 -10    3.34    1.40
 -15  -3 -10    1.39    1.71
   3 -15  11    2.40    1.44
 -15  -3 -11    1.35    1.50
 -15  -3 -11    1.69    1.41
   3 -15  11    1.42    1.21
 -15  -3 -12    4.27    1.23
   3 -15  12    2.97    1.04
   3 -15  12    5.58    1.31
   3 -15  13    0.35    0.87
 -15  -4   0   -0.76    2.22
 -15  -4  -1  212.71   10.94
 -15  -4   1  228.39   10.95
  15   4  -1  235.30   11.03
 -15  -4   2   71.36    5.13
 -15  -4  -2   74.00    5.13
  15   4  -2   67.26    5.20
 -15  -4   3  235.82    9.44
 -15  -4  -3  205.75    9.29
   4 -15  -3  211.25    9.21
   4 -15  -3  239.07    9.49
   4 -15   3  221.05    9.28
   4 -15   3  230.37    9.37
 -15  -4  -3  211.58    9.22
 -15  -4   4   41.56    2.91
   4 -15  -4   33.78    2.83
 -15  -4  -4   37.45    2.81
   4 -15   4   43.94    3.04
   4 -15   4   42.06    2.78
   4 -15  -4   46.30    2.96
   4 -15   5    0.76    1.62
   4 -15   5    1.44    1.42
 -15  -4   5    2.31    1.54
 -15  -4  -5    0.95    1.65
 -15  -4  -5    1.65    1.60
   4 -15  -5    3.34    1.68
 -15  -4   6   22.43    2.27
   4 -15   6   20.11    2.26
 -15  -4  -6   22.46    2.50
   4 -15  -6   17.75    2.35
 -15  -4  -6   18.68    2.44
 -15  -4  -6   18.28    2.32
   4 -15  -7  112.02    6.07
   4 -15   7  125.36    6.03
 -15  -4  -7  120.95    6.09
 -15  -4  -7  120.97    6.41
   4 -15   8    0.09    1.82
   4 -15   8    1.18    1.86
 -15  -4  -8    2.61    1.69
 -15  -4  -8    0.67    1.49
 -15  -4  -8    1.58    1.90
   4 -15   8    1.41    1.48
 -15  -4  -9   22.77    2.57
   4 -15   9   26.01    2.67
   4 -15   9   27.07    2.50
 -15  -4  -9   19.14    2.25
   4 -15   9   15.97    1.96
 -15  -4  -9   18.96    2.47
 -15  -4 -10    0.43    1.51
   4 -15  10    0.06    1.50
 -15  -4 -10   -1.51    1.33
 -15  -4 -10    3.10    1.70
 -15  -4 -11    1.92    1.47
 -15  -4 -11    0.96    1.36
   4 -15  11    3.90    1.28
   4 -15  11    1.59    1.47
   4 -15  12   -0.25    0.90
 -15  -4 -12   -0.43    1.02
   4 -15  13    6.30    1.06
 -15  -5   0  108.22    6.49
  15   5   0   99.81    6.47
 -15  -5   1  112.59    5.39
 -15  -5  -1  108.38    6.67
 -15  -5   1  110.23    6.78
  15   5  -1  112.14    6.74
 -15  -5   2  121.16    6.14
 -15  -5  -2  137.09    6.02
  15   5  -2  147.56    7.84
 -15  -5   2  139.03    7.62
   5 -15   3   27.15    2.34
 -15  -5  -3   27.38    2.27
 -15  -5  -3   24.93    2.31
 -15  -5   3   28.66    2.57
 -15  -5  -4  132.80    6.19
 -15  -5   4  132.49    6.28
   5 -15   4  140.43    6.33
   5 -15   4  137.27    6.19
   5 -15  -4  133.92    6.14
 -15  -5   4  123.82    7.36
 -15  -5   5   58.58    5.25
   5 -15  -5   66.93    3.91
   5 -15   5   74.75    3.95
 -15  -5  -5   58.26    3.86
 -15  -5   5   67.38    3.83
 -15  -5  -5   61.12    3.80
   5 -15   5   62.78    3.58
   5 -15   6    5.81    1.70
   5 -15  -6    3.55    1.67
 -15  -5  -6    2.25    1.66
 -15  -5   6    3.68    1.67
 -15  -5  -6    4.16    1.71
   5 -15   7    9.89    1.81
   5 -15  -7    5.98    1.83
 -15  -5   7    7.73    1.61
 -15  -5  -7    8.84    1.84
   5 -15   7    7.66    2.04
 -15  -5  -7   10.29    2.08
 -15  -5  -8   57.69    4.14
   5 -15   8   67.13    4.00
 -15  -5  -8   58.63    3.82
   5 -15   8   65.67    3.68
 -15  -5  -8   58.62    3.90
   5 -15   9    6.12    1.83
 -15  -5  -9    0.99    1.75
 -15  -5  -9   -0.15    1.63
   5 -15   9    1.96    1.31
   5 -15   9    0.41    1.79
 -15  -5  -9    0.53    1.39
 -15  -5 -10    8.46    1.79
   5 -15  10    7.98    1.82
 -15  -5 -10    9.27    1.92
   5 -15  10    5.08    1.39
   5 -15  11    2.73    1.24
 -15  -5 -11   -0.85    1.27
   5 -15  11    0.06    1.41
   5 -15  12    4.73    1.29
 -15  -5 -12    4.61    1.27
  15   5 -12    3.08    1.33
 -15  -5 -12    3.48    1.15
   5 -15  12    0.95    1.02
  15   6   0    0.60    2.56
 -15  -6   0    0.40    1.24
 -15  -6   1   -2.35    5.80
 -15  -6  -1   -0.14    1.31
  15   6  -1    0.97    2.72
 -15  -6   2   58.33    6.42
 -15  -6   2   68.84    3.86
 -15  -6  -2   68.18    3.62
 -15  -6  -2   65.30    3.61
 -15  -6   3   85.09    6.90
 -15  -6  -3   78.32    4.20
 -15  -6   3   75.01    4.22
   6 -15  -3   78.05    4.12
 -15  -6  -3   80.97    4.11
 -15  -6   4   69.15    6.30
 -15  -6  -4   59.13    3.80
 -15  -6   4   72.02    3.94
   6 -15  -4   67.91    3.80
 -15  -6  -4   62.74    3.69
 -15  -6   5   92.08    6.46
 -15  -6   5   85.02    4.44
 -15  -6  -5   81.37    4.43
 -15  -6  -5   72.33    4.32
   6 -15   5   80.61    4.22
 -15  -6  -6   26.49    2.62
 -15  -6  -6   27.36    2.69
   6 -15   7   12.48    1.91
 -15  -6  -7   13.27    1.91
   6 -15   7   15.69    2.22
 -15  -6   7    9.32    1.77
 -15  -6  -8    2.12    1.55
 -15  -6   8    0.34    1.40
 -15  -6  -8    2.97    1.80
   6 -15   8    4.03    1.95
   6 -15   8    2.10    1.40
   6 -15   9   -0.79    1.70
 -15  -6  -9    2.97    1.64
   6 -15   9   -1.86    1.79
 -15  -6  -9    1.21    1.29
   6 -15   9    1.60    1.25
   6 -15  10   11.72    2.03
 -15  -6 -10   16.36    2.01
   6 -15  11   10.94    1.84
 -15  -6 -11    9.00    1.76
 -15  -6 -11   11.67    1.69
   6 -15  12    2.87    1.15
   6 -15  12    1.70    0.94
 -15  -6 -12    0.40    0.96
 -15  -6 -12    1.31    1.19
 -15  -7   0  101.61    4.79
 -15  -7   1   45.89    6.93
 -15  -7  -1   45.25    2.76
 -15  -7  -1   44.22    2.80
 -15  -7   1   46.70    2.79
   7 -15  -2   65.93    3.62
 -15  -7   2   69.29    6.98
 -15  -7   2   61.80    3.71
 -15  -7  -2   59.12    3.40
 -15  -7  -2   61.15    3.45
   7 -15  -3   51.87    3.22
 -15  -7   3   44.00    6.38
 -15  -7   3   51.42    3.35
 -15  -7  -3   51.42    3.10
 -15  -7  -3   54.71    3.30
   7 -15  -4   79.81    4.34
 -15  -7   4   90.54    6.70
 -15  -7   4   82.75    4.45
 -15  -7  -4   82.49    4.33
 -15  -7  -4   75.35    4.38
   7 -15  -5   25.21    2.32
 -15  -7   5   18.67    5.22
 -15  -7   5   25.65    2.40
   7 -15   5   24.25    2.23
 -15  -7  -5   22.36    2.34
 -15  -7  -5   26.77    2.39
   7 -15  -6   25.48    2.48
 -15  -7  -6   26.72    2.61
 -15  -7   6   24.40    2.51
 -15  -7  -6   26.64    2.39
 -15  -7  -6   27.95    2.44
   7 -15   7    2.33    1.81
 -15  -7   7    2.93    1.56
   7 -15   7    1.50    1.50
 -15  -7  -7    0.22    1.36
 -15  -7  -7    1.88    1.52
   7 -15   8   25.10    2.52
 -15  -7   8   19.03    2.07
 -15  -7  -8   17.90    2.27
 -15  -7  -8   21.50    2.17
 -15  -7  -8   19.98    2.38
   7 -15   8   17.31    2.01
 -15  -7  -9   10.41    1.71
   7 -15   9   11.40    2.06
 -15  -7   9    8.78    1.59
 -15  -7  -9    7.88    1.84
 -15  -7  -9   12.27    1.99
   7 -15   9   11.76    1.62
   7 -15  10    2.69    1.59
 -15  -7 -10    1.66    1.47
 -15  -7 -10    1.70    1.55
   7 -15  11    2.66    1.42
 -15  -7 -11    1.27    1.19
   7 -15  11    1.61    1.21
 -15  -7 -11    0.63    1.28
   7 -15  12    0.03    0.89
 -15  -7 -12    0.13    0.89
   7 -15  12    1.99    1.08
 -15  -7 -12    1.63    1.04
 -15  -8   0   -0.56    1.38
 -15  -8   1   37.12    6.69
 -15  -8   1   37.78    2.86
 -15  -8  -1   31.05    2.33
 -15  -8   1   34.11    2.46
 -15  -8  -1   34.93    2.55
   8 -15  -2  175.89    7.61
 -15  -8   2  171.61    9.65
 -15  -8  -2  171.65    7.52
 -15  -8  -2  170.51    7.44
 -15  -8  -3   39.32    2.77
 -15  -8   3   39.48    3.01
   8 -15  -3   38.76    2.76
 -15  -8   3   32.91    5.99
 -15  -8  -4    2.08    1.46
 -15  -8  -4    0.68    1.50
 -15  -8   4    2.12    1.63
   8 -15  -4    0.88    1.56
 -15  -8   4    4.05    5.08
 -15  -8  -5   11.00    1.93
   8 -15  -5   10.24    1.99
 -15  -8   5   12.91    4.77
 -15  -8   5   13.00    1.98
 -15  -8  -5   10.18    1.84
 -15  -8   6    8.28    1.70
 -15  -8  -6    2.57    1.74
 -15  -8  -6    7.50    1.62
   8 -15  -6    7.81    1.82
 -15  -8  -6    6.82    1.71
 -15  -8   7   31.10    2.54
 -15  -8  -7   37.21    2.66
   8 -15  -7   31.44    2.68
 -15  -8  -7   30.01    2.66
   8 -15   8    5.43    1.40
 -15  -8   8    3.55    1.46
 -15  -8  -8    2.01    1.61
   8 -15   8    4.74    1.86
 -15  -8  -8    3.64    1.62
 -15  -8  -8    1.84    1.33
   8 -15   9    5.47    1.37
   8 -15   9    3.51    1.75
 -15  -8  -9    4.35    1.61
 -15  -8   9    2.32    1.31
 -15  -8  -9    5.25    1.63
 -15  -8  -9    5.63    1.34
 -15  -8 -10    2.05    1.30
 -15  -8 -10    0.79    1.34
   8 -15  10   -0.39    1.46
   8 -15  11    0.90    1.18
   8 -15  11    0.69    1.24
 -15  -8 -11    1.72    1.16
  -8  15 -11    2.20    1.09
 -15  -8 -11    0.75    1.07
 -15  -8 -12   -1.00    0.94
   8 -15  12   -0.52    1.00
 -15  -9   0    3.51    1.48
 -15  -9   0   -4.44    7.55
   9 -15  -1   23.39    2.36
 -15  -9   1   22.28    2.38
 -15  -9  -1   18.93    1.95
 -15  -9   1   19.02    2.06
 -15  -9  -1   19.89    2.10
   9 -15  -2   30.38    2.57
 -15  -9   2   32.04    6.20
 -15  -9   2   31.32    2.73
 -15  -9  -2   26.69    2.30
 -15  -9   2   26.32    2.26
 -15  -9  -2   27.98    2.43
 -15  -9   3  208.92   10.11
 -15  -9  -3  201.87    8.74
   9 -15  -3  202.17    8.82
   9 -15  -4   50.47    3.49
 -15  -9   4   58.06    5.53
 -15  -9  -4   53.78    3.38
 -15  -9  -4   55.40    3.31
 -15  -9   4   52.91    3.46
   9 -15  -5    3.98    1.80
 -15  -9   5    0.63    4.21
 -15  -9  -5    5.05    1.62
 -15  -9   5    1.23    1.59
 -15  -9  -5    1.01    1.57
 -15  -9  -6    2.15    1.41
 -15  -9  -6   -0.22    1.32
 -15  -9   6   -0.62    1.65
 -15  -9  -6    1.65    1.59
   9 -15  -6   -0.64    1.54
 -15  -9   7   11.20    4.81
 -15  -9   7   17.80    2.11
 -15  -9  -7   19.57    2.12
 -15  -9  -7   19.60    2.20
 -15  -9  -7   18.38    2.09
   9 -15   8    5.42    1.86
 -15  -9  -8    4.45    1.62
 -15  -9   8    2.06    1.38
   9 -15   8    3.38    1.36
 -15  -9  -8    2.69    1.48
 -15  -9  -8    2.31    1.39
   9 -15   9    2.64    1.58
 -15  -9   9    0.11    1.21
 -15  -9  -9   -2.00    1.43
   9 -15   9   -0.53    1.19
 -15  -9  -9    2.16    1.15
 -15  -9  -9    1.73    1.37
 -15  -9 -10    5.95    1.41
 -15  -9  10    5.37    1.19
   9 -15  10    3.69    1.54
 -15  -9 -10    8.22    1.53
   9 -15  10    7.23    1.72
 -15  -9 -11    0.20    0.96
   9 -15  11    0.98    1.14
   9 -15  12    2.67    1.04
 -15 -10   0    5.89    7.38
 -15 -10   0    0.80    1.37
 -15 -10   0    1.35    5.43
 -15 -10  -1   18.81    1.90
 -15 -10   1   17.11    1.93
 -15 -10  -1   19.00    1.99
 -15 -10   1   17.96    2.23
  10 -15  -1   16.86    2.25
 -15 -10   2   -0.67    1.42
 -15 -10  -2    0.52    1.53
 -15 -10   2    2.29    5.53
  10 -15  -2    0.94    1.75
 -15 -10   2    1.73    1.79
 -15 -10  -2    0.56    1.41
 -15 -10   3  103.09    6.92
  10 -15  -3  110.91    5.38
 -15 -10  -3  101.47    5.06
 -15 -10   4   29.62    4.60
 -15 -10   4   27.66    2.53
 -15 -10  -4   31.23    2.59
  10 -15  -4   30.05    2.72
 -15 -10  -4   31.66    2.54
 -15 -10   5    9.75    4.23
 -15 -10  -5    7.27    1.67
 -15 -10  -5    5.01    1.50
 -15 -10   5    5.95    1.76
 -15 -10  -5    6.55    1.70
  10 -15  -5    5.74    1.85
 -15 -10   6    6.94    4.39
 -15 -10  -6    5.74    1.60
 -15 -10  -6    3.02    1.47
  10 -15  -6    4.97    1.78
 -15 -10   6    6.62    1.70
 -15 -10   7    3.25    1.57
 -15 -10  -7    1.88    1.57
 -15 -10   7    5.58    4.55
 -15 -10  -7    2.12    1.39
 -15 -10  -8   15.49    1.98
  10 -15   8   19.07    2.22
 -15 -10  -8   12.92    1.76
  10 -15   8   17.51    1.84
 -15 -10   8   13.78    1.85
 -15 -10  -9    0.95    1.08
 -15 -10   9    2.06    1.24
 -15 -10  -9   -1.61    1.37
  10 -15   9    0.79    1.06
  10 -15   9   -0.55    1.62
 -15 -10 -10   -0.47    1.09
 -15 -10  10   -0.44    1.05
  10 -15  10    1.50    1.43
 -15 -10 -10    0.75    1.14
  10 -15  10    1.76    1.32
 -15 -10 -11    3.64    1.03
 -15 -10 -11    5.98    1.14
  10 -15  11    3.83    1.16
 -15 -11   0  213.29   11.99
 -15 -11   0  218.47    9.51
 -15 -11   0  218.21   11.02
 -15 -11   1    5.55    5.76
 -15 -11  -1    0.08    5.86
  11 -15  -1   -0.45    1.81
 -15 -11   1   -6.93    6.94
 -15 -11  -1    2.55    1.40
 -15 -11   1    0.79    1.84
 -15 -11   1    1.49    1.39
 -15 -11  -1    1.76    1.54
 -15 -11   2   21.55    5.94
 -15 -11   2   21.72    2.29
 -15 -11  -2   20.55    1.98
  11 -15  -2   21.81    2.40
 -15 -11  -2   18.80    2.09
 -15 -11   2   23.61    1.97
  11 -15  -3    3.77    1.76
 -15 -11   3    1.08    4.75
 -15 -11   3    2.58    1.64
 -15 -11  -3    2.14    1.42
 -15 -11  -4   13.14    1.76
 -15 -11  -4   11.43    1.85
  11 -15  -4   11.89    2.07
 -15 -11   4   11.30    4.29
 -15 -11  -4   12.03    1.63
 -15 -11   5    6.36    1.86
 -15 -11  -5    6.48    1.66
 -15 -11  -5    6.54    1.67
  11 -15  -5    5.41    1.70
 -15 -11   5    3.71    3.87
 -15 -11  -5    3.01    1.40
 -15 -11   6   -0.68    1.50
 -15 -11  -6    0.55    1.33
  11 -15  -6    1.13    1.52
 -15 -11  -6    0.34    1.29
 -15 -11   6    2.39    4.09
 -15 -11   7    7.45    4.52
 -15 -11   7    7.44    1.64
 -15 -11  -7    4.29    1.65
 -15 -11  -7    8.26    1.57
 -15 -11  -7    6.04    1.46
  11 -15   8    5.25    1.28
 -15 -11   8   -2.43    4.18
 -15 -11  -8    0.12    1.38
 -15 -11   8    1.81    1.41
 -15 -11  -8   -0.21    1.21
 -15 -11  -8    0.26    1.32
  11 -15   8    3.35    1.70
  11 -15   9    2.55    1.53
 -15 -11   9    2.90    1.23
 -15 -11  -9    1.72    1.22
 -15 -11  -9    3.60    1.26
  11 -15   9    1.16    1.14
 -15 -11 -10    0.95    0.96
 -15 -11  10    0.70    0.94
  11 -15  10    0.13    1.25
  11 -15  10   -0.74    1.29
 -15 -11 -10   -0.70    1.04
  11 -15  11    1.01    0.87
 -15 -11 -11    0.84    0.82
 -15 -11 -11    0.77    0.77
 -15 -12   0    6.00    7.54
  12 -15   0    0.90    1.80
 -15 -12   0    1.81    1.30
 -15 -12   0    0.50    1.42
 -15 -12   0   -0.81    6.19
  12 -15  -1  112.37    5.26
 -15 -12   1   95.93    8.36
 -15 -12   1   95.63    4.82
 -15 -12  -1   90.64    4.84
 -15 -12   1  101.39    5.03
 -15 -12  -1   92.69    4.71
 -15 -12  -1   91.19    7.64
  12 -15  -2    7.64    1.79
 -15 -12  -2    4.51    5.16
 -15 -12  -2    5.79    1.44
 -15 -12   2    8.59    1.86
 -15 -12  -2    7.46    1.60
 -15 -12   2    5.98    1.54
 -15 -12  -3   12.97    1.78
  12 -15  -3   15.61    2.16
 -15 -12   3   16.93    2.17
  12 -15  -4   12.34    2.01
 -15 -12  -4   13.45    1.67
 -15 -12  -4   15.97    1.91
 -15 -12  -4   11.72    1.87
 -15 -12  -5    3.80    1.51
 -15 -12  -5    5.26    1.40
  12 -15  -5    5.34    1.70
 -15 -12   5    6.85    3.86
 -15 -12  -5    6.60    1.48
 -15 -12   6   -1.16    4.10
 -15 -12   6    2.21    1.58
 -15 -12  -6    4.25    1.42
 -15 -12  -6    2.72    1.30
 -15 -12  -7    3.45    1.35
 -15 -12  -7    4.85    1.44
 -15 -12   7    4.66    1.55
 -15 -12  -7    4.36    1.31
 -15 -12  -8   11.06    1.63
 -15 -12  -8   11.41    1.65
 -15 -12   8   15.15    4.37
 -15 -12   8   12.30    1.71
 -15 -12  -8   12.03    1.48
  12 -15   8   18.20    2.02
  12 -15   8   13.46    1.61
 -15 -12  -9    0.74    1.02
 -15 -12   9    2.00    1.17
 -15 -12  -9   -1.11    1.11
  12 -15   9    2.44    1.42
 -15 -12 -10    1.98    0.89
  12 -15  10    0.23    1.17
  12 -15  10    0.39    1.14
 -15 -12 -10    1.60    0.94
 -15 -12  10    1.39    0.90
 -15 -13   0   33.83    2.28
 -15 -13   0   40.89    7.97
 -15 -13   0   28.35    6.73
 -15 -13   0   32.13    2.42
 -15 -13  -1    4.51    1.36
 -15 -13   1   -2.59    6.85
 -15 -13  -1    1.13    1.38
 -15 -13   1    3.44    1.43
 -15 -13   1   -0.70    5.88
 -15 -13  -1   -2.79    5.92
 -15 -13   1    3.19    1.93
  13 -15  -2  101.30    4.93
 -15 -13   2   97.81    4.78
 -15 -13   2   99.52    6.97
 -15 -13  -2   96.56    7.10
 -15 -13   2   91.26    4.48
 -15 -13  -2   91.60    4.63
 -15 -13  -2   86.76    4.51
 -15 -13  -3    1.61    1.21
 -15 -13   3   -0.64    1.65
 -15 -13   3    1.84    5.03
 -15 -13   3    0.11    1.20
  13 -15  -3    0.24    1.62
 -15 -13  -3    0.13    1.35
 -15 -13  -4   42.82    2.95
  13 -15  -4   50.33    3.25
 -15 -13   4   51.00    5.08
 -15 -13   4   53.04    3.28
 -15 -13  -4   41.56    2.89
 -15 -13  -4   44.07    2.76
 -15 -13  -5   -0.46    1.39
 -15 -13  -5    0.19    1.18
 -15 -13   5    0.78    4.15
 -15 -13  -5    0.86    1.39
 -15 -13  -6    0.12    1.30
 -15 -13   6   -0.28    1.54
 -15 -13   6    0.18    4.28
 -15 -13  -6    1.51    1.16
 -15 -13  -7   -1.32    1.34
 -15 -13  -7    0.68    1.14
 -15 -13   7    0.95    1.44
 -15 -13  -7   -0.77    1.16
 -15 -13  -8    8.38    1.39
 -15 -13  -8    7.75    1.38
 -15 -13   8    7.29    1.50
 -15 -13  -8    7.50    1.17
  13 -15   8    6.06    1.68
  13 -15   8    7.38    1.28
  13 -15   9    4.40    1.41
 -15 -13   9    6.72    1.21
 -15 -13  -9    4.35    1.11
 -15 -13  -9    2.85    1.10
  13 -15  10    4.38    1.08
  13 -15  10    3.41    1.19
 -15 -13  10    3.18    0.98
 -15 -13 -10    3.01    0.90
 -15 -13 -10    3.53    0.89
 -15 -14   0   -0.33    1.29
 -15 -14   0    3.65    6.24
 -15 -14   0    0.76    1.18
 -15 -14  -1   47.20    2.83
 -15 -14  -1   49.85    2.90
 -15 -14   1   47.02    2.93
 -15 -14   1   56.62    7.74
 -15 -14   1   51.74    3.35
 -15 -14  -1   53.06    6.57
 -15 -14   1   46.43    6.46
 -15 -14   2    4.28    5.08
 -15 -14  -2    1.32    5.27
 -15 -14   2   -0.43    6.34
 -15 -14  -2    1.00    1.32
 -15 -14   2   -0.60    1.79
 -15 -14  -2   -0.33    1.49
 -15 -14   2    1.22    1.27
 -15 -14   3   33.76    2.63
 -15 -14  -3   30.61    2.28
 -15 -14  -3   29.06    2.35
 -15 -14   4    4.19    4.75
 -15 -14  -4    2.44    1.38
 -15 -14  -4    3.25    1.45
 -15 -14  -4    3.39    1.23
 -15 -14   4    2.12    1.71
 -15 -14   5    7.64    4.57
 -15 -14  -5   10.74    1.59
 -15 -14  -5   12.28    1.66
 -15 -14  -5    8.47    1.43
 -15 -14   5    9.59    1.89
 -15 -14  -6    0.27    1.14
 -15 -14  -6   -0.05    1.14
 -15 -14   6   -4.01    4.62
 -15 -14  -7    1.48    1.16
 -15 -14  -7    0.13    0.97
 -15 -14  -7   -0.61    1.06
 -15 -14   7    1.00    1.39
  14 -15   8    0.96    0.94
 -15 -14   8    1.85    1.21
 -15 -14   8    2.26    3.94
 -15 -14  -8    0.27    1.03
 -15 -14  -8    1.30    1.02
 -15 -14  -8    2.29    0.85
 -15 -14   9    6.00    1.22
 -15 -14  -9    6.35    1.14
  14 -15   9    8.64    1.44
 -15 -14  -9    8.55    1.11
 -15 -15   0   71.49    6.81
 -15 -15   0   70.83    3.62
 -15 -15   0   75.94    8.11
 -15 -15   1    6.18    7.31
 -15 -15   1    3.54    5.43
 -15 -15  -1    2.36    5.63
 -15 -15   1    4.87    1.38
 -15 -15  -1    5.07    1.43
 -15 -15  -1    5.26    1.28
 -15 -15   2   42.91    2.95
 -15 -15   2   37.68    7.06
 -15 -15   2   37.01    2.43
 -15 -15  -2   34.87    2.40
 -15 -15   3   -0.50    1.67
 -15 -15  -3    1.46    1.36
 -15 -15  -3   -0.47    1.18
 -15 -15   4    8.89    1.83
 -15 -15  -4    7.81    1.50
 -15 -15  -4    5.87    1.44
 -15 -15   5   12.15    1.85
 -15 -15   5    9.12    5.00
 -15 -15  -5   11.33    1.48
 -15 -15  -5    9.54    1.49
 -15 -15   6   50.38    5.31
 -15 -15  -6   39.29    2.39
 -15 -15   7    6.35    4.49
 -15 -15  -7    4.13    1.00
 -15 -15   7    2.04    1.41
 -15 -15  -7    3.70    1.13
 -15 -15   8    2.52    1.23
 -15 -15  -8    3.49    1.00
  15 -15   9    1.78    1.04
 -15 -15  -9   -0.96    0.74
 -15 -15   9    0.33    0.91
 -15 -16   0    5.00    5.05
 -15 -16   0    0.28    1.24
 -15 -16  -1    1.08    1.21
 -15 -16   1    0.99    1.13
 -15 -16   1    0.93    7.23
 -15 -16   1    0.68    4.70
 -15 -16  -1    4.16    4.94
 -15 -16  -1    2.03    1.16
 -15 -16   2    4.54    6.91
 -15 -16  -2    1.74    1.21
 -15 -16   2    3.04    1.15
 -15 -16  -3    4.69    1.32
 -15 -16  -3    4.37    1.24
 -15 -16   3    7.20    1.83
 -15 -16   4   -4.40    5.78
 -15 -16   4   -1.01    1.61
 -15 -16  -4    1.18    1.20
 -15 -16  -4    0.72    1.18
 -15 -16   5   23.49    2.17
 -15 -16  -5   23.27    1.81
 -15 -16   5   27.07    5.49
 -15 -16  -5   23.71    1.86
 -15 -16   6    1.91    1.38
 -15 -16  -6    2.74    0.99
 -15 -16   6    2.66    4.87
 -15 -16  -7    5.34    1.09
 -15 -16   7    3.31    4.23
  16 -15   7    4.94    1.41
  16 -15   7    5.46    1.03
 -15 -16  -7    5.90    0.92
 -15 -16   8    3.79    1.13
 -15 -16  -8    3.65    0.87
 -14 -16   0   25.30    1.98
 -14 -16   0   27.94    6.85
 -14 -16   0   21.54    7.10
 -14 -16   0   27.10    2.14
 -14 -16  -1    9.56    1.49
 -14 -16   1   11.90    1.61
 -14 -16  -1    8.27    1.53
 -14 -16   1   11.72    6.46
 -14 -16  -1   13.94    6.66
 -14 -16   1   15.02    6.11
 -14 -16   2    0.51    6.27
 -14 -16  -2   -1.70    6.44
 -14 -16   2    0.21    4.96
 -14 -16  -2    2.11    1.22
 -14 -16   2    3.33    1.35
 -14 -16   2    2.94    1.67
 -14 -16  -3   -0.06    1.10
 -14 -16   3   -5.07    5.22
 -14 -16  -3    6.07    5.46
 -14 -16   3    0.75    3.94
 -14 -16  -3    1.35    1.24
 -14 -16  -3    1.25    1.31
 -14 -16   3    0.84    1.59
 -14 -16   3    0.81    1.22
 -14 -16  -4    7.30    1.43
 -14 -16  -4    7.43    1.45
 -14 -16  -4    7.55    1.35
 -14 -16   5   17.18    1.96
 -14 -16  -5   13.92    1.58
 -14 -16   5   18.39    3.52
 -14 -16  -5   16.47    1.64
 -14 -16   6    7.12    1.60
 -14 -16  -6    5.05    1.32
 -14 -16   6    9.49    3.43
 -14 -16  -6    7.75    1.22
 -14 -16  -6    7.00    1.27
 -14 -16  -7    0.61    1.05
 -14 -16   7   -0.60    3.63
 -14 -16  -7    0.61    0.89
 -14 -16  -7    1.39    1.02
 -14 -16   8   16.39    3.72
 -14 -16  -8   14.67    1.34
 -14 -16   8   13.22    1.54
 -14 -16  -8   13.43    1.36
 -14 -16  -9    1.22    0.79
 -14 -16   9    1.45    0.93
  16 -14   9    2.28    1.02
 -13 -16   0    0.94    1.32
 -13 -16   0   -3.99    6.12
 -13 -16   0   -0.26    1.35
 -13 -16   0    0.95    5.52
 -13 -16   1   14.31    3.81
 -13 -16  -1   15.99    6.80
 -13 -16   1   12.61    5.97
 -13 -16  -1   19.38    6.08
 -13 -16  -1   11.88    1.66
 -13 -16   1   14.33    1.64
 -13 -16   1   12.59    1.69
 -13 -16  -1   12.23    1.70
 -13 -16   1   13.93    1.91
 -13 -16  -2   -0.52    1.21
 -13 -16   2    1.33    2.65
 -13 -16   2   -0.94    6.26
 -13 -16  -2   -1.59    6.40
 -13 -16  -2    0.96    1.31
 -13 -16  -2    0.78    1.29
 -13 -16   2    0.70    1.34
 -13 -16   2    0.51    1.60
 -13 -16  -3    0.83    1.25
 -13 -16   3   -0.15    2.23
 -13 -16  -3    0.70    1.35
 -13 -16   3   -1.95    6.30
 -13 -16  -3    1.62    6.32
 -13 -16   3   -0.06    1.29
 -13 -16  -3   -1.26    1.36
 -13 -16   3    1.50    1.56
 -13 -16  -4    5.16    1.35
 -13 -16   4    4.16    5.41
 -13 -16  -4    4.43    5.38
 -13 -16   4    9.28    1.78
 -13 -16  -4    5.17    1.41
 -13 -16  -4    6.27    1.44
 -13 -16   5    7.77    1.83
 -13 -16  -5    6.24    1.38
 -13 -16  -5    4.18    1.36
 -13 -16   5    8.69    2.05
 -13 -16  -6    6.64    1.40
 -13 -16   6    8.69    2.02
 -13 -16   6    2.65    1.58
 -13 -16  -6    4.82    1.31
 -13 -16  -6    5.34    1.22
 -13 -16  -7   15.13    1.41
 -13 -16  -7   10.21    1.47
 -13 -16  -7   10.66    1.50
 -13 -16   7   17.29    2.27
 -13 -16   8    1.98    1.25
 -13 -16   8    2.85    2.75
 -13 -16  -8    2.66    1.12
 -13 -16  -8    0.69    1.00
  16 -13   9    8.55    1.41
 -13 -16   9    6.89    1.20
 -13 -16   9    9.15    2.85
 -13 -16  -9    6.92    1.09
 -13 -16  -9    6.89    1.01
 -12 -16   0   85.66    4.30
 -12 -16   0   85.22    5.20
 -12 -16   0   83.39    5.38
 -12 -16   0   88.28    4.32
 -12 -16   1   25.24    2.07
 -12 -16  -1   22.75    2.12
 -12 -16   1   21.30    2.13
 -12 -16   1   25.27    2.65
 -12 -16  -1   30.47    2.22
 -12 -16   1   22.07    2.22
 -12 -16   1   22.80    4.11
 -12 -16  -1   23.90    4.20
 -12 -16  -1   31.83    5.79
 -12 -16  -2    3.40    1.40
 -12 -16   2    1.28    1.24
 -12 -16   2    0.08    1.91
 -12 -16  -2    3.43    6.62
 -12 -16   2    0.98    1.57
 -12 -16  -2    1.57    1.38
 -12 -16   2    2.38    1.37
 -12 -16  -2    0.81    1.44
 -12 -16   2    6.27    4.09
 -12 -16  -2    2.52    4.09
 -12 -16  -3    3.03    1.32
 -12 -16   3    3.60    1.65
 -12 -16   3    5.29    2.00
 -12 -16   3    2.80    1.43
 -12 -16  -3    1.58    1.28
 -12 -16  -3    2.74    1.39
 -12 -16   3    8.49    4.87
 -12 -16  -3    3.05    4.90
 -12 -16   4   52.19    3.14
 -12 -16  -4   55.36    3.13
 -12 -16  -4   55.58    3.23
 -12 -16  -4   59.72    6.17
 -12 -16   4   55.73    6.30
 -12 -16   4   54.31    3.46
 -12 -16  -5    7.88    1.50
 -12 -16   5   12.02    1.97
 -12 -16   5   10.72    4.99
 -12 -16  -5    8.22    5.02
 -12 -16   5   12.17    2.11
 -12 -16  -5    6.06    1.41
 -12 -16  -5    9.13    1.58
 -12 -16  -6   10.94    1.60
 -12 -16   6   12.73    2.01
 -12 -16  -6   12.91    1.55
 -12 -16  -6   10.95    1.61
 -12 -16   6   15.58    2.05
 -12 -16  -7    4.88    1.37
 -12 -16   7    6.90    1.68
 -12 -16  -7    4.85    1.24
 -12 -16  -7    8.14    1.38
 -12 -16  -8    3.52    1.24
 -12 -16   8    6.57    1.66
 -12 -16  -8    4.20    1.22
 -12 -16   9    0.46    2.09
 -12 -16  -9    1.06    1.00
 -12 -16  -9    2.38    0.96
 -12 -16   9    0.40    1.13
  16 -12  10    0.68    1.00
 -12 -16  10    0.86    0.86
 -11 -16   0   -1.06    1.46
 -11 -16   0    1.37    1.92
 -11 -16   0    0.94    1.38
 -11 -16   0   -0.53    2.17
 -11 -16   1   36.21    2.51
 -11 -16  -1   34.82    2.52
 -11 -16   1   32.92    2.53
 -11 -16   1   34.33    2.52
 -11 -16  -1   28.20    3.67
 -11 -16   1   35.99    2.78
 -11 -16  -1   36.65    2.56
 -11 -16   1   36.10    2.93
 -11 -16  -1   32.93    2.96
 -11 -16  -2   16.28    1.85
 -11 -16   2   14.85    1.72
 -11 -16  -2   15.06    1.86
 -11 -16   2   16.63    2.03
 -11 -16   2   14.31    2.59
 -11 -16  -2   15.74    2.74
 -11 -16   2   14.43    1.88
 -11 -16  -2   18.65    2.01
 -11 -16   2   18.27    2.31
 -11 -16   3   15.62    3.20
 -11 -16  -3   14.39    3.24
 -11 -16   3   16.31    2.10
 -11 -16  -3   17.89    1.94
 -11 -16   3   19.44    2.33
 -11 -16  -3   18.10    2.03
 -11 -16   3   16.94    1.99
 -11 -16  -3   19.04    1.94
 -11 -16   4   13.63    1.80
 -11 -16   4   14.02    2.06
 -11 -16   4   12.51    4.23
 -11 -16  -4   14.92    4.35
 -11 -16  -4   13.71    1.77
 -11 -16  -4    9.91    1.70
 -11 -16  -5   25.54    2.23
 -11 -16  -5   23.41    2.13
 -11 -16   5   32.33    2.69
 -11 -16   5   24.91    5.39
 -11 -16  -5   30.33    5.36
 -11 -16  -5   25.91    2.28
 -11 -16   5   29.95    2.60
 -11 -16  -6    1.83    1.33
 -11 -16   6    1.02    1.78
 -11 -16  -6    2.77    1.36
 -11 -16  -6    1.72    1.23
 -11 -16   6    1.69    1.63
 -11 -16  -7    3.18    1.32
 -11 -16   7    2.29    1.64
 -11 -16  -7    3.10    1.39
 -11 -16  -7    1.62    1.17
 -11 -16   7    3.73    1.63
 -11 -16  -8    0.10    1.11
 -11 -16   8    0.42    1.37
 -11 -16   9    1.70    1.23
 -11 -16   9    1.02    1.27
 -11 -16  -9    2.08    1.01
 -11 -16  10    2.22    0.98
 -11 -16 -10    2.38    0.89
  16 -11  10    1.68    1.08
 -10 -16   0  138.47    6.45
 -10 -16   0  142.23    6.43
 -10 -16   0  145.18    6.58
 -10 -16   0  146.57    6.43
 -10 -16   1   97.02    4.78
 -10 -16  -1   89.97    4.76
 -10 -16   1   99.22    4.91
 -10 -16  -1   92.77    4.86
 -10 -16   1  106.64    5.04
 -10 -16   1  103.26    5.03
 -10 -16  -1   95.02    4.97
 -10 -16  -1  103.29    4.89
 -10 -16   1   94.87    4.73
 -10 -16  -2    0.55    1.53
 -10 -16  -2    3.16    1.48
 -10 -16   2   -0.07    1.27
 -10 -16   2   -1.08    1.89
 -10 -16   2    4.14    1.63
 -10 -16   2    1.05    1.56
 -10 -16  -2   -0.21    1.46
 -10 -16   2   -0.15    1.67
 -10 -16  -2    1.67    1.74
 -10 -16  -3   19.18    2.28
 -10 -16  -3   19.60    1.99
 -10 -16   3   21.70    2.30
 -10 -16   3   22.67    2.47
 -10 -16   3   15.38    2.05
 -10 -16  -3   20.01    2.10
 -10 -16   3   22.15    2.30
 -10 -16  -4  115.57    5.66
 -10 -16  -4  120.14    5.57
 -10 -16   4  129.85    5.76
 -10 -16  -4  116.36    5.63
 -10 -16   4  111.25    5.80
 -10 -16  -4  110.21    5.76
 -10 -16   4  132.22    5.97
 -10 -16  -5    1.63    1.41
 -10 -16   5    1.50    1.84
 -10 -16   5    0.80    3.54
 -10 -16  -5    4.60    3.55
 -10 -16  -5   -0.27    1.41
 -10 -16  -5    0.92    1.31
 -10 -16   5    3.75    1.95
 -10 -16   6   11.27    2.11
 -10 -16  -6   12.58    1.70
 -10 -16   6   13.99    2.14
 -10 -16  -6   12.43    1.67
 -10 -16  -6   10.22    1.71
 -10 -16   7    0.94    1.66
 -10 -16  -7    3.15    1.32
 -10 -16   7   -0.76    1.71
 -10 -16  -8    2.58    1.28
 -10 -16   8    0.29    1.46
 -10 -16   9    0.23    1.29
 -10 -16  -9   -0.52    1.13
 -10 -16  -9    1.36    1.12
 -10 -16   9    1.41    1.21
 -10 -16  10    1.02    1.10
 -10 -16  10    0.36    1.09
 -10 -16 -10    0.92    0.96
 -10 -16 -11    1.05    0.77
 -10 -16  11    0.21    0.77
  -9 -16   0   -0.32    1.73
  -9 -16   0    0.39    1.46
  -9 -16   0    0.08    1.49
  -9 -16   0    1.56    1.63
  -9 -16   1   22.33    2.30
  -9 -16   1   18.07    2.10
  -9 -16  -1   23.00    2.20
  -9 -16  -1   19.01    2.07
  -9 -16   1   22.78    2.24
  -9 -16  -1   16.54    2.14
  -9 -16  -1   21.10    2.16
  -9 -16   1   21.96    2.44
  -9 -16  -1   18.93    2.29
  -9 -16   2  389.72   14.39
  -9 -16  -2  335.62   14.15
  -9 -16   2  351.52   14.29
  -9 -16   2  369.35   14.46
  -9 -16   2  365.02   14.35
  -9 -16  -2  343.93   14.31
  -9 -16  -2  352.97   14.31
  -9 -16   2  345.75   14.18
  -9 -16  -2  349.34   14.27
  -9 -16   3  141.12    6.28
  -9 -16  -3  123.23    5.90
  -9 -16   3  134.69    6.24
  -9 -16  -3  132.40    6.19
  -9 -16   3  133.23    6.13
  -9 -16  -3  122.02    6.14
  -9 -16   3  125.91    5.96
  -9 -16   3  152.12    6.46
  -9 -16  -4    7.47    1.73
  -9 -16   4    8.19    1.83
  -9 -16   4   10.38    2.12
  -9 -16  -4    7.56    1.79
  -9 -16   4   11.05    1.87
  -9 -16  -4    8.24    1.90
  -9 -16  -4    5.60    1.54
  -9 -16  -5   41.47    2.79
  -9 -16   5   47.81    3.40
  -9 -16  -5   41.49    2.84
  -9 -16   5   37.76    2.99
  -9 -16  -5   43.01    3.11
  -9 -16   5   44.48    3.32
  -9 -16  -6    0.27    1.31
  -9 -16  -6    0.13    1.34
  -9 -16   6    1.51    1.79
  -9 -16   6    1.14    1.87
  -9 -16   7   18.89    2.28
  -9 -16  -7   17.14    1.90
  -9 -16  -7   13.48    1.94
  -9 -16  -8    2.79    1.29
  -9 -16   8    2.55    1.55
  -9 -16  -8    1.10    1.30
  -9 -16  -9    5.23    1.31
  -9 -16  -9    3.59    1.26
  -9 -16   9    2.46    1.42
  -9 -16   9    5.66    1.51
  -9 -16 -10    5.46    1.20
  -9 -16  10    4.31    1.17
  -9 -16  10    4.35    1.33
  -9 -16 -11    2.04    0.85
  -9 -16  11    3.24    1.02
  -8 -16   0  604.02   22.62
  -8 -16   0  581.12   22.67
  -8 -16   0  605.42   22.65
  -8 -16   0  543.52   22.48
  -8 -16   1  930.69   34.38
  -8 -16  -1  895.27   34.36
  -8 -16   1  870.66   34.36
  -8 -16  -1  814.99   34.13
  -8 -16  -1  906.73   34.31
  -8 -16   1  963.37   34.48
  -8 -16   1  916.26   34.40
  -8 -16  -1  921.05   34.43
  -8 -16  -1  924.89   34.40
  -8 -16   2  654.15   24.84
  -8 -16   2  682.24   25.05
  -8 -16  -2  622.91   24.77
  -8 -16   2  601.64   24.83
  -8 -16  -2  652.33   24.93
  -8 -16   2  654.57   24.88
  -8 -16   2  648.09   25.01
  -8 -16  -2  639.84   24.94
  -8 -16  -3    0.97    1.50
  -8 -16  -3   -0.68    1.60
  -8 -16   3    0.68    1.42
  -8 -16   3    0.42    1.62
  -8 -16  -3    1.13    1.38
  -8 -16   3    0.18    1.94
  -8 -16   3    1.03    1.51
  -8 -16   3    2.75    1.54
  -8 -16  -3   -0.89    1.65
  -8 -16  -4    6.81    1.65
  -8 -16   4    1.97    1.82
  -8 -16  -4    3.16    1.48
  -8 -16   4    6.96    2.15
  -8 -16   4    4.37    1.64
  -8 -16   4    2.17    1.56
  -8 -16  -4    2.57    1.57
  -8 -16   5   10.41    2.11
  -8 -16  -5   14.40    1.85
  -8 -16   5    7.59    1.68
  -8 -16  -5    9.83    1.73
  -8 -16  -5   11.28    1.72
  -8 -16  -6   16.48    1.98
  -8 -16   6   21.39    2.54
  -8 -16   6   21.69    2.40
  -8 -16  -6   14.18    2.01
  -8 -16  -6   18.87    1.95
  -8 -16   7    0.62    1.81
  -8 -16  -7    0.65    1.42
  -8 -16  -7    0.48    1.42
  -8 -16   7    2.06    1.74
  -8 -16   8   10.49    1.93
  -8 -16  -8   10.12    1.69
  -8 -16  -8   11.15    1.72
  -8 -16   9   -0.07    1.47
 -16   8  -9   -0.58    1.23
  -8 -16   9    1.12    1.38
  -8 -16  -9    1.67    1.26
  -8 -16  -9   -1.31    1.23
  -8 -16  10    3.24    1.16
 -16   8 -10    2.26    1.23
  -8 -16  10    2.97    1.35
  -8 -16 -10    2.47    1.14
  -8 -16 -11    7.02    1.16
 -16   8 -11    6.35    1.08
  -8 -16  11    6.30    1.26
  -7 -16   0    1.20    1.67
  -7 -16   0    3.54    1.59
  -7 -16   0   -0.32    1.59
  -7 -16   0    0.80    1.68
  -7 -16   1  114.73    5.30
  -7 -16  -1  100.18    5.01
  -7 -16   1  101.36    5.17
  -7 -16  -1   99.95    5.18
  -7 -16   1  100.47    5.08
  -7 -16  -1  100.26    5.16
  -7 -16  -1  109.24    5.12
  -7 -16   1  104.66    5.13
  -7 -16  -2    3.67    1.62
  -7 -16   2    5.17    1.67
  -7 -16   2    9.08    1.99
  -7 -16   2    4.62    1.64
  -7 -16   2    6.08    1.75
  -7 -16  -2    5.45    1.58
  -7 -16   2    5.27    1.80
  -7 -16  -2    4.48    1.71
  -7 -16   3   94.88    4.80
  -7 -16   3   86.66    4.57
  -7 -16  -3   75.82    4.38
  -7 -16   3   84.16    4.37
  -7 -16  -3   87.32    4.41
  -7 -16   3   81.46    4.40
  -7 -16   3   90.57    4.64
  -7 -16  -3   83.73    4.23
  -7 -16   4   18.72    2.18
  -7 -16  -4   21.40    2.03
  -7 -16   4   21.71    2.39
  -7 -16   4   21.12    2.64
  -7 -16  -4   18.58    2.07
  -7 -16   4   20.40    2.09
  -7 -16  -4   20.45    2.07
  -7 -16  -4   18.81    2.15
  -7 -16  -5   48.95    3.04
  -7 -16  -5   47.72    3.03
  -7 -16  -5   46.14    3.06
  -7 -16   5   43.00    2.87
  -7 -16  -5   44.06    2.91
  -7 -16   6   59.89    3.87
  -7 -16  -6   55.20    3.26
  -7 -16   6   66.44    3.91
  -7 -16  -7    7.20    1.69
  -7 -16  -7    6.35    1.72
  -7 -16   7    9.28    1.97
 -16   7  -8    3.98    1.44
  -7 -16  -8    3.43    1.58
  -7 -16  -8    3.85    1.46
  -7 -16   8    3.88    1.79
  -7 -16   9   -0.91    1.51
 -16   7  -9    3.97    1.37
  -7 -16  -9   -0.74    1.26
  -7 -16   9    0.99    1.54
  -7 -16  10    0.91    1.19
 -16   7 -10   -1.62    1.28
  -7 -16 -10   -0.05    1.14
  -7 -16  10    0.18    1.38
  -7 -16 -11    1.73    1.02
 -16   7 -11    0.53    0.89
  -7 -16  11    1.98    1.14
  -7 -16  12    0.83    0.76
  -6 -16   0  252.47   10.09
  -6 -16   0  228.47    9.87
  -6 -16   0  245.73   10.11
  -6 -16   0  233.68    9.95
  -6 -16   0  234.05   10.09
  -6 -16   1  174.94    8.19
  -6 -16  -1  194.07    8.17
  -6 -16  -1  184.41    8.29
  -6 -16   1  196.13    8.31
  -6 -16   1  199.18    8.29
  -6 -16   2    2.69    1.78
  -6 -16  -2    2.05    1.66
  -6 -16  -2    3.48    1.71
  -6 -16   2    0.23    1.61
  -6 -16   2    4.33    1.79
  -6 -16  -2    3.45    1.55
  -6 -16   2    2.08    1.77
  -6 -16  -3   17.14    2.04
  -6 -16  -3   14.18    1.95
  -6 -16   3   15.08    1.99
  -6 -16   3   19.57    2.27
  -6 -16   3   18.27    2.42
  -6 -16   3   14.60    2.02
  -6 -16  -3   12.68    1.84
  -6 -16   3   16.73    2.08
  -6 -16  -3   16.58    2.06
  -6 -16  -4   28.80    2.35
  -6 -16   4   26.64    2.60
  -6 -16  -4   28.95    2.17
  -6 -16   4   28.35    2.35
  -6 -16  -4   25.49    2.34
  -6 -16   4   33.18    2.92
  -6 -16  -4   23.35    2.32
  -6 -16   4   26.62    2.57
  -6 -16   5    6.24    1.91
  -6 -16  -5    8.73    1.62
  -6 -16  -5    9.35    1.75
  -6 -16   5    9.69    1.57
  -6 -16  -5    9.13    1.67
  -6 -16  -5    9.43    1.60
  -6 -16  -6   15.10    2.04
  -6 -16  -6   18.14    2.04
  -6 -16   6   17.74    2.55
  -6 -16   6   18.72    2.33
  -6 -16   7    4.68    1.96
  -6 -16  -7    5.97    1.55
  -6 -16  -7    6.82    1.63
 -16   6  -7    7.89    1.64
  -6 -16   7    8.81    2.11
  -6 -16   8   11.12    2.18
  -6 -16  -8   16.63    1.99
  -6 -16  -8   14.56    1.85
 -16   6  -8   10.99    1.83
  -6 -16   8   16.61    2.24
  -6 -16  -9    8.86    1.64
  -6 -16   9   11.22    1.90
 -16   6  -9   10.55    1.76
  -6 -16 -10    6.82    1.46
  -6 -16  10   10.36    1.60
  -6 -16  10    9.64    1.72
 -16   6 -11   -0.34    0.95
  -6 -16 -11    0.40    1.01
  -6 -16  11    1.76    1.19
 -16   6 -12    0.25    0.89
  -6 -16  12   -0.13    0.81
  -5 -16   0    1.21    1.65
  -5 -16   0    1.93    1.77
  -5 -16   0   -0.08    1.67
  -5 -16   0    1.91    1.62
  -5 -16  -1  226.39    9.55
  -5 -16   1  216.69    9.55
  -5 -16   1  247.14    9.73
  -5 -16  -1  219.90    9.63
  -5 -16   1  228.89    9.63
  -5 -16   2  115.96    5.32
  -5 -16  -2   93.82    4.83
  -5 -16   2  100.89    5.20
  -5 -16  -2  103.73    5.09
  -5 -16   2   97.93    5.06
  -5 -16  -2   99.77    5.15
  -5 -16   2  104.75    5.04
  -5 -16  -2  106.39    5.10
  -5 -16  -3    0.91    1.51
  -5 -16  -3    0.15    1.57
  -5 -16   3    2.36    1.64
  -5 -16   3    1.61    1.55
  -5 -16  -3    0.93    1.44
  -5 -16   3   -1.91    1.58
  -5 -16   3   -0.35    1.93
  -5 -16   3    0.08    1.73
  -5 -16  -3    1.68    1.27
  -5 -16  -4    3.51    1.60
  -5 -16   4    4.40    1.47
  -5 -16  -4    5.31    1.65
  -5 -16   4    2.77    1.68
  -5 -16  -4    3.63    1.44
  -5 -16   4    5.32    1.98
  -5 -16   4    3.09    1.69
  -5 -16  -4    4.33    1.41
  -5 -16   5    7.32    1.94
  -5 -16   5    6.79    1.46
  -5 -16  -5    3.62    1.58
  -5 -16  -5    7.31    1.56
  -5 -16  -6   82.06    4.27
 -16   5  -6   72.01    4.24
  -5 -16   6   96.13    4.87
  -5 -16  -6   76.89    4.37
  -5 -16   6   92.11    4.76
  -5 -16   7    2.20    1.80
  -5 -16  -7    2.35    1.50
  -5 -16   7    1.91    1.90
  -5 -16  -7    1.19    1.42
 -16   5  -7   -1.66    1.52
  -5 -16   8   10.94    2.05
  -5 -16  -8    9.35    1.68
 -16   5  -8   11.07    1.85
  -5 -16   8    9.65    2.00
  -5 -16   9   14.86    2.12
  -5 -16  -9   12.23    1.75
 -16   5  -9   13.87    1.96
 -16   5 -10    2.51    1.47
  -5 -16  10    5.15    1.49
 -16   5 -10    7.01    1.57
  -5 -16 -10    2.19    1.35
  -5 -16  10    2.72    1.53
  -5 -16  11    1.13    0.95
 -16   5 -11    0.69    0.96
  -5 -16  11    1.19    1.19
  -5 -16 -11   -0.51    1.04
  -5 -16  12   -0.14    0.94
 -16   5 -12   -0.17    0.92
  -4 -16   0  444.56   18.46
  -4 -16   0  491.28   18.72
  -4 -16   0  486.24   18.69
  -4 -16   0  482.17   18.73
  -4 -16   1   22.17    2.26
  -4 -16  -1   23.56    2.30
  -4 -16   1   21.85    2.23
  -4 -16  -1   22.39    2.13
  -4 -16  -1   20.57    2.23
  -4 -16   1   20.82    2.34
  -4 -16  -1   24.93    2.43
  -4 -16   2    4.46    1.66
  -4 -16  -2    4.69    1.69
  -4 -16   2    6.87    1.75
  -4 -16  -2    5.45    1.83
  -4 -16  -2    3.58    1.79
  -4 -16   2    4.93    1.68
  -4 -16   2    5.74    1.93
  -4 -16  -2    4.37    1.53
  -4 -16   2    9.05    1.90
  -4 -16  -3    2.09    1.55
  -4 -16  -3    1.61    1.44
  -4 -16   3    3.46    1.60
  -4 -16   3    1.58    1.69
  -4 -16   3    2.40    1.90
  -4 -16   3   -0.94    1.50
  -4 -16  -3    1.95    1.28
  -4 -16   3    1.55    1.53
  -4 -16  -3    1.45    1.64
  -4 -16  -4   27.54    2.30
  -4 -16   4   26.16    2.82
  -4 -16   4   26.08    2.47
  -4 -16  -4   26.20    2.15
  -4 -16  -4   32.94    2.42
  -4 -16   4   27.44    2.26
  -4 -16  -4   28.88    2.46
 -16   4  -5   37.16    2.69
  -4 -16  -5   37.22    2.59
  -4 -16  -5   36.98    2.82
  -4 -16   5   35.79    2.52
  -4 -16   5   44.94    3.15
  -4 -16   6    7.80    1.98
  -4 -16  -6    5.28    1.44
 -16   4  -6    5.73    1.65
  -4 -16  -6    5.88    1.61
  -4 -16   6    7.13    2.10
  -4 -16   7   -0.35    1.74
  -4 -16  -7    2.12    1.40
  -4 -16   7    0.75    1.86
  -4 -16  -7    1.19    1.42
 -16   4  -7    0.56    1.51
  -4 -16   8    1.93    1.77
  -4 -16  -8   -1.06    1.35
 -16   4  -8    0.72    1.58
  -4 -16   8    1.32    1.66
  -4 -16   9    3.42    1.69
  -4 -16  -9    1.11    1.30
 -16   4  -9    2.28    1.50
 -16   4 -10    8.31    1.67
 -16   4 -10    8.17    1.64
  -4 -16  10    9.86    1.62
  -4 -16 -10    6.03    1.49
  -4 -16  10    6.80    1.76
 -16   4 -11    0.09    1.09
  -4 -16  11    0.05    1.30
  -4 -16  11    1.76    1.06
  -4 -16 -11    2.14    1.17
 -16   4 -12    2.06    0.99
  -4 -16  12    0.77    1.02
  -3 -16   0    1.19    1.70
  -3 -16   0    1.87    1.60
  -3 -16   1   27.91    2.48
  -3 -16   1   20.62    2.27
  -3 -16  -1   22.49    2.42
  -3 -16   1   23.18    2.29
  -3 -16   1   20.11    2.16
  -3 -16   1   22.90    2.27
  -3 -16  -1   22.23    2.28
  -3 -16  -1   22.38    2.23
  -3 -16  -1   20.22    2.05
  -3 -16  -2  115.67    5.62
  -3 -16   2  123.95    5.92
  -3 -16  -2  133.43    5.99
  -3 -16   2  127.32    6.00
  -3 -16   2  131.19    6.04
  -3 -16   2  125.74    5.91
  -3 -16  -2  127.58    6.01
  -3 -16  -2  133.78    6.04
  -3 -16   3   43.88    2.98
  -3 -16  -3   44.17    2.96
  -3 -16   3   42.77    3.19
  -3 -16   3   42.52    2.92
  -3 -16   3   49.18    3.31
  -3 -16  -3   42.99    2.75
  -3 -16  -3   41.07    3.04
  -3 -16   3   43.49    2.99
  -3 -16   3   47.93    3.18
  -3 -16  -3   45.02    3.08
  -3 -16  -4   20.63    2.10
  -3 -16   4   26.53    2.66
  -3 -16   4   21.79    2.48
  -3 -16  -4   20.84    2.32
  -3 -16   4   19.97    2.07
  -3 -16  -4   20.71    2.19
  -3 -16  -4   22.60    1.99
  -3 -16   4   22.67    2.39
 -16   3  -5   28.74    2.55
  -3 -16  -5   33.67    2.56
  -3 -16  -5   30.59    2.41
  -3 -16   5   38.09    2.93
  -3 -16   5   31.26    2.35
  -3 -16  -6   55.69    3.28
  -3 -16   6   58.22    3.62
  -3 -16   6   62.59    3.87
  -3 -16  -6   50.06    3.32
 -16   3  -6   56.36    3.54
  -3 -16   7   29.82    2.61
  -3 -16   7   22.78    2.67
 -16   3  -7   24.44    2.50
  -3 -16  -7   24.31    2.25
  -3 -16   8    0.78    1.76
 -16   3  -8    3.53    1.74
  -3 -16  -8    2.85    1.37
  -3 -16   9    2.16    1.65
  -3 -16  -9   -0.20    1.28
 -16   3  -9    1.12    1.57
 -16   3 -10    3.44    1.53
  -3 -16  10    3.05    1.45
 -16   3 -10    2.70    1.46
  -3 -16 -10    3.46    1.27
  -3 -16  10    3.53    1.60
  -3 -16  11    1.23    1.28
  -3 -16  11    1.10    1.06
 -16   3 -11   -0.48    1.08
 -16   3 -12    1.54    0.99
  -3 -16  12    1.50    1.01
  -2 -16   0    1.66    1.76
  -2 -16   0    1.72    1.84
  -2 -16   0    0.68    1.70
  -2 -16  -1  322.17   12.49
  -2 -16   1  316.17   12.48
  -2 -16  -1  293.86   12.18
  -2 -16  -1  322.81   12.48
  -2 -16   1  284.51   12.31
  -2 -16  -1  296.13   12.39
  -2 -16   1  296.18   12.33
  -2 -16   2    2.60    1.60
  -2 -16  -2    1.76    1.63
  -2 -16  -2    2.20    1.75
  -2 -16   2    3.59    1.68
  -2 -16  -2    4.00    1.41
  -2 -16   2    1.45    1.64
  -2 -16  -2    1.48    1.62
  -2 -16   2    2.47    1.71
  -2 -16  -3   11.96    1.66
  -2 -16   3   10.91    1.81
  -2 -16   3   12.53    1.99
  -2 -16  -3   13.12    1.99
  -2 -16  -3    8.35    1.47
  -2 -16   3   11.68    2.17
  -2 -16  -3   11.48    1.78
  -2 -16   3   10.30    1.84
  -2 -16  -3   10.67    1.93
  -2 -16  -4    7.67    1.45
  -2 -16   4   12.07    1.95
  -2 -16  -4    8.89    1.75
  -2 -16  -4    8.61    1.65
  -2 -16   4   10.26    1.78
  -2 -16  -4   10.00    1.79
  -2 -16   4    6.80    1.79
  -2 -16   4    7.67    2.10
  -2 -16   5    6.37    1.50
  -2 -16  -5    6.34    1.42
  -2 -16   5    5.00    2.05
  -2 -16  -5    6.82    1.70
  -2 -16  -5    6.10    1.44
  -2 -16   6    2.17    1.78
  -2 -16  -6    5.48    1.56
  -2 -16   6    3.86    1.81
  -2 -16  -6    3.72    1.42
 -16   2  -6    1.63    1.58
 -16   2  -7   19.68    2.42
  -2 -16  -7   18.44    2.04
  -2 -16   7   20.40    2.47
  -2 -16   7   23.79    2.45
 -16   2  -8    0.97    1.68
  -2 -16  -8   -1.43    1.29
 -16   2  -8   -0.20    1.61
  -2 -16   8    1.88    1.65
  -2 -16   8   -0.93    1.72
 -16   2  -9   -0.34    1.61
  -2 -16   9    2.26    1.62
 -16   2  -9   -1.16    1.59
  -2 -16  -9   -0.06    1.20
 -16   2  -9   -1.06    1.67
  -2 -16  10    3.64    1.62
  -2 -16  10    3.77    1.49
 -16   2 -10    2.72    1.38
  -2 -16  11   -0.06    1.29
  -2 -16  11    0.55    1.11
 -16   2 -11    1.02    1.03
 -16   2 -12   -0.99    1.05
  -2 -16  12    0.59    1.03
  -1 -16   0    2.75    1.81
  -1 -16   0    2.29    1.66
  -1 -16   0    2.25    1.77
 -16   1   0    2.16    3.19
 -16   1   1   57.77    5.26
  -1 -16  -1   75.94    3.84
  -1 -16  -1   75.06    3.85
  -1 -16   1   58.24    3.76
  -1 -16  -1   65.86    3.89
  -1 -16   1   71.54    3.93
  -1 -16  -1   65.76    3.61
  -1 -16  -2  117.01    5.39
  -1 -16   2  115.45    5.68
  -1 -16  -2  133.03    5.79
  -1 -16   2  110.71    5.67
  -1 -16  -2  132.61    5.71
  -1 -16   2  124.79    5.67
  -1 -16  -2  120.35    5.68
  -1 -16   2  113.51    5.59
  -1 -16   3   71.85    4.00
  -1 -16  -3   73.48    3.82
  -1 -16  -3   67.12    3.64
  -1 -16   3   74.87    4.23
  -1 -16  -3   65.92    3.74
  -1 -16   3   77.85    3.96
  -1 -16  -3   79.48    4.03
  -1 -16  -3   80.30    4.12
  -1 -16  -4    5.11    1.58
  -1 -16   4    0.69    1.52
  -1 -16  -4    2.11    1.36
  -1 -16   4    1.11    1.60
  -1 -16  -4    4.07    1.39
  -1 -16   4    4.22    1.57
  -1 -16  -4    1.73    1.54
  -1 -16   5    1.23    1.32
  -1 -16   5    1.42    1.51
  -1 -16  -5    1.16    1.35
  -1 -16  -5   -0.19    1.25
  -1 -16  -5    0.79    1.33
  -1 -16   6    5.01    1.70
  -1 -16   6    8.14    1.86
  -1 -16  -6    6.83    1.49
  -1 -16  -6    6.19    1.50
  -1 -16  -7   11.83    1.80
 -16   1  -7   25.40    2.53
  -1 -16   7   16.23    2.34
  -1 -16  -7   14.80    1.90
 -16   1  -7   20.40    2.40
  -1 -16   7   20.12    2.45
  -1 -16   7   18.22    2.33
 -16   1  -8   11.89    2.14
 -16   1  -8   15.18    2.20
  -1 -16   8   16.22    2.27
 -16   1  -8   18.58    2.36
 -16   1  -9    9.27    1.91
 -16   1  -9    9.35    1.98
  -1 -16   9   12.34    2.02
 -16   1 -10    0.97    1.61
  -1 -16  10    3.23    1.43
 -16   1 -10   -1.51    1.37
 -16   1 -11    1.20    1.34
  -1 -16  11    1.14    1.13
  -1 -16  11    0.64    1.33
  -1 -16  12    0.09    1.06
 -16   1 -12    0.97    1.06
 -16   0   0  120.84    7.84
   0 -16   0  121.91    5.78
   0 -16   0  129.77    5.91
   0 -16   0  117.06    5.92
   0 -16  -1   48.64    3.16
   0 -16   1   46.25    3.33
   0 -16  -1   60.24    3.55
   0 -16   1   64.67    3.51
   0 -16  -1   54.85    3.37
   0 -16   2   18.99    2.06
   0 -16   2   18.56    2.20
   0 -16  -2   23.34    2.21
   0 -16  -2   20.73    1.90
   0 -16   2   17.54    2.21
   0 -16  -2   17.60    2.27
   0 -16  -2   18.81    2.12
   0 -16  -3   39.54    2.59
   0 -16  -3   34.90    2.53
   0 -16   3   37.65    2.95
   0 -16   3   38.28    2.77
   0 -16  -3   38.54    2.83
   0 -16   3   38.33    2.76
   0 -16  -3   43.46    2.92
   0 -16  -4   10.73    1.82
   0 -16  -4    8.68    1.71
   0 -16   4    8.76    1.71
   0 -16  -4   13.33    1.87
   0 -16   4   12.39    1.79
   0 -16   4   11.00    1.75
   0 -16  -4    8.57    1.44
   0 -16   4   11.27    2.08
   0 -16   5    0.33    1.63
   0 -16  -5    2.19    1.38
   0 -16   5    1.75    1.37
   0 -16   5   -0.32    1.73
   0 -16  -5    0.92    1.44
   0 -16  -6   -1.48    1.35
   0 -16  -6   -2.47    1.46
   0 -16   6    1.84    1.68
   0 -16   6   -0.08    1.65
 -16   0  -7    1.95    1.79
   0 -16   7    5.98    1.85
   0 -16  -7    2.93    1.49
   0 -16   7    3.24    1.76
 -16   0  -7    5.11    1.84
   0 -16   8   12.37    2.11
 -16   0  -8   15.74    2.31
   0 -16   8   17.44    2.29
   0 -16   8   18.03    2.18
 -16   0  -8   16.05    2.33
   0 -16   9    0.92    1.64
 -16   0  -9    1.16    1.74
   0 -16   9    2.33    1.62
 -16   0  -9    2.03    1.56
   0 -16  10    6.51    1.65
 -16   0 -10    3.41    1.51
 -16   0 -10    4.96    1.73
 -16   0 -11    1.39    1.39
   0 -16  11    0.31    1.15
   0 -16  12   -1.04    1.09
 -16   0 -12    0.55    1.04
   1 -16   0    1.87    1.89
   1 -16   0    2.73    1.82
   1 -16   1  132.71    5.94
   1 -16  -1  128.92    5.78
   1 -16  -1  120.88    5.89
   1 -16   1  117.45    5.79
   1 -16   2    0.29    1.39
 -16  -1  -2    1.75    1.50
   1 -16  -2    1.88    1.42
   1 -16   2    0.14    1.53
   1 -16  -2    1.11    1.44
   1 -16  -2    1.19    1.73
   1 -16   2    1.32    1.63
   1 -16   3  120.41    5.74
   1 -16  -3  110.43    5.55
   1 -16   3  125.59    5.86
   1 -16  -3  120.79    5.53
   1 -16  -3  127.81    5.81
   1 -16   3  114.07    5.66
   1 -16  -3  136.13    5.91
   1 -16  -4   46.86    2.87
   1 -16  -4   45.54    3.14
   1 -16   4   55.90    3.49
   1 -16   4   48.22    3.23
   1 -16   4   50.35    3.26
   1 -16   4   45.72    3.04
   1 -16  -4   45.76    3.14
   1 -16   5    3.40    1.71
   1 -16   5    1.10    1.79
 -16  -1  -5    2.56    1.81
   1 -16   5    0.45    1.37
   1 -16  -5    2.80    1.49
   1 -16   6    6.97    1.83
   1 -16   6    6.68    1.73
 -16  -1  -6    6.59    1.93
   1 -16  -6    7.21    1.72
   1 -16   7  103.74    5.18
 -16  -1  -7   97.71    5.24
   1 -16   7   99.00    5.06
   1 -16   7  102.81    5.07
 -16  -1  -8   27.91    2.74
   1 -16   8   27.47    2.69
   1 -16   8   28.07    2.54
   1 -16   9    4.77    1.81
   1 -16   9    4.82    1.76
 -16  -1  -9    6.35    1.70
   1 -16  10    2.65    1.49
 -16  -1 -10    0.79    1.32
 -16  -1 -10    2.27    1.65
   1 -16  11    7.97    1.54
 -16  -1 -11   12.24    1.85
   1 -16  11   12.46    1.79
 -16  -1 -12    2.64    1.09
   1 -16  12    2.26    1.19
   2 -16   0  117.82    5.90
   2 -16   0  138.19    5.97
   2 -16   1  154.96    7.13
   2 -16  -1  161.92    7.23
 -16  -2  -1  152.88    6.91
   2 -16  -1  168.64    7.05
   2 -16   2   55.40    3.70
 -16  -2  -2   66.35    3.68
   2 -16   2   64.59    3.63
   2 -16  -2   67.80    3.81
   2 -16   2   67.00    3.66
   2 -16  -2   66.14    3.60
   2 -16  -3  225.02    9.50
   2 -16  -3  230.89    9.70
   2 -16   3  238.79    9.84
   2 -16   3  234.76    9.74
 -16  -2  -3  219.28    9.78
   2 -16  -3  241.24    9.84
   2 -16   3  233.62    9.67
   2 -16  -4  163.29    7.67
   2 -16   4  175.69    7.87
   2 -16   4  175.98    7.75
   2 -16   4  175.04    7.80
   2 -16  -4  185.37    7.75
   2 -16   4  170.21    7.58
 -16  -2  -4  178.30    7.93
   2 -16  -5   14.31    2.06
 -16  -2  -5   15.39    2.31
   2 -16   5   16.00    2.27
   2 -16   5   16.56    2.14
   2 -16   5   15.84    2.21
   2 -16   5   17.97    1.92
   2 -16   6  267.49   10.80
   2 -16   6  256.79   10.69
   2 -16  -6  248.72   10.64
 -16  -2  -6  227.85   10.90
   2 -16  -7   10.41    1.92
   2 -16   7   14.06    2.15
   2 -16   7   15.41    2.30
 -16  -2  -7   16.84    2.26
   2 -16   7   14.27    2.11
 -16  -2  -8   20.23    2.52
   2 -16   8   25.80    2.58
   2 -16   8   21.24    2.51
   2 -16   8   21.92    2.26
 -16  -2  -8   21.67    2.43
 -16  -2  -9    0.49    1.57
 -16  -2  -9   -1.83    1.64
   2 -16   9   -0.76    1.69
   2 -16   9    1.12    1.34
 -16  -2  -9    0.07    1.51
   2 -16  10   10.27    1.86
 -16  -2 -10   11.91    1.99
 -16  -2 -10   11.73    1.74
 -16  -2 -11    1.34    1.41
   2 -16  11    1.54    1.20
   2 -16  11    0.86    1.36
 -16  -2 -12   12.78    1.52
   2 -16  12   11.54    1.51
   3 -16   0    2.51    1.78
 -16  -3   0    2.69    1.44
 -16  -3  -1   38.92    2.58
   3 -16   1   35.23    2.78
   3 -16  -1   40.77    2.92
 -16  -3  -2   15.98    1.93
   3 -16   2   14.72    2.03
   3 -16   2   14.07    1.92
   3 -16  -2   16.19    2.04
   3 -16  -2   17.03    1.85
 -16  -3  -2   15.72    1.77
   3 -16  -3  139.25    6.50
 -16  -3  -3  144.99    6.59
   3 -16   3  150.99    6.67
 -16  -3  -3  138.66    6.49
   3 -16  -3  147.34    6.33
   3 -16   3  143.43    6.53
   3 -16  -3  145.07    6.58
   3 -16   4    8.40    1.80
   3 -16   4    6.17    1.69
   3 -16  -4    3.19    1.52
   3 -16   4    7.76    1.71
   3 -16  -4    6.69    1.78
   3 -16   4    4.33    1.81
   3 -16  -5  115.98    5.50
 -16  -3  -5  108.62    5.66
 -16  -3   5  100.70    5.25
   3 -16   5  113.58    5.53
   3 -16   5  115.82    5.49
   3 -16   5  112.79    5.44
   3 -16   5  105.63    5.21
   3 -16   6   31.24    2.77
 -16  -3  -6   29.52    2.88
   3 -16   6   35.72    2.68
   3 -16  -6   28.20    2.71
   3 -16   7  162.09    6.77
   3 -16   7  143.21    6.58
 -16  -3  -7  132.29    6.71
   3 -16   7  138.45    6.50
   3 -16  -7  112.96    6.34
   3 -16   8    3.67    1.71
 -16  -3  -8    3.74    1.98
   3 -16   8    3.58    1.83
 -16  -3  -8    5.05    1.65
   3 -16   8    3.78    1.67
   3 -16   9    9.79    1.96
 -16  -3  -9   11.16    2.03
 -16  -3  -9    8.02    1.79
   3 -16   9    6.06    1.57
   3 -16   9    9.20    1.91
   3 -16  10   -1.00    1.49
 -16  -3 -10    0.17    1.22
 -16  -3 -10    1.88    1.50
   3 -16  11    4.59    1.34
 -16  -3 -11    6.09    1.54
   3 -16  12   -0.08    1.04
 -16  -3 -12    0.16    0.98
   3 -16  12    0.41    0.83
   4 -16   0   93.11    4.82
 -16  -4   0   99.93    4.62
   4 -16  -1  157.43    7.19
   4 -16   1  154.59    7.14
 -16  -4  -1  168.99    7.03
 -16  -4  -2  383.04   15.11
 -16  -4  -2  388.81   15.20
   4 -16  -2  383.33   15.35
   4 -16   2  377.63   15.19
   4 -16   2  377.50   15.15
   4 -16  -3   83.86    4.28
 -16  -4  -3   81.86    4.37
 -16  -4  -3   77.35    4.24
   4 -16   3   81.21    4.22
   4 -16  -3   84.24    4.43
   4 -16   3   84.50    4.39
   4 -16  -4   98.27    4.99
 -16  -4   4  104.27    5.08
   4 -16   4  102.76    5.04
 -16  -4  -4   93.82    4.93
   4 -16  -4  100.51    4.93
   4 -16   4   97.48    4.84
   4 -16   4   93.73    4.93
   4 -16   5   24.00    2.41
 -16  -4  -5   19.73    2.45
   4 -16  -5   24.93    2.40
 -16  -4  -5   23.37    2.54
 -16  -4   5   24.89    2.46
   4 -16   5   23.98    2.39
   4 -16   5   23.67    2.16
   4 -16   5   24.94    2.47
   4 -16  -6    4.70    1.86
 -16  -4  -6    2.22    1.85
 -16  -4   6    4.87    1.73
 -16  -4  -6    2.05    1.66
   4 -16   6    6.36    1.79
   4 -16   6    5.89    1.81
   4 -16   7   35.29    2.86
   4 -16   7   30.89    2.98
   4 -16   7   39.42    2.96
   4 -16  -7   38.27    2.95
 -16  -4  -7   32.26    2.91
   4 -16   8   61.06    3.72
   4 -16   8   51.35    3.59
 -16  -4  -8   56.57    3.81
   4 -16   8   54.00    3.43
 -16  -4  -8   50.39    3.45
   4 -16   9    4.09    1.78
 -16  -4  -9    2.38    1.57
   4 -16   9    2.41    1.40
   4 -16   9    3.90    1.72
 -16  -4  -9    3.90    1.72
 -16  -4 -10    2.96    1.24
 -16  -4 -10    2.14    1.57
   4 -16  11    1.48    1.19
   4 -16  11   -2.53    1.40
 -16  -4 -11    0.16    1.22
   4 -16  12    3.54    0.98
   4 -16  12    4.38    1.20
 -16  -4 -12    4.03    1.13
 -16  -5   0    3.55    1.46
 -16  -5   1  347.66   13.70
 -16  -5  -1  341.74   13.75
 -16  -5  -2   24.26    2.26
   5 -16   2   29.11    2.32
   5 -16  -2   25.31    2.34
 -16  -5  -2   21.59    2.05
   5 -16   2   25.37    2.27
   5 -16   3  215.06    8.91
 -16  -5   3  204.77    9.01
 -16  -5  -3  208.12    8.84
 -16  -5  -3  206.99    8.89
   5 -16   3  200.84    8.78
   5 -16  -3  209.25    8.90
   5 -16  -4   19.52    2.06
   5 -16   4   17.22    2.05
 -16  -5  -4   14.23    2.06
 -16  -5   4   16.41    2.29
   5 -16   4   16.67    2.20
   5 -16  -5   46.21    3.20
   5 -16   5   49.53    3.21
 -16  -5   5   48.65    3.12
   5 -16   5   44.04    2.93
 -16  -5  -5   43.39    3.18
 -16  -5  -5   46.80    3.12
   5 -16  -6    1.84    1.60
   5 -16   6    5.65    1.64
 -16  -5  -6    2.53    1.77
 -16  -5   6    5.39    1.71
   5 -16   6    3.66    1.78
 -16  -5  -6    2.33    1.62
   5 -16  -7    1.63    1.65
 -16  -5   7   -1.34    1.63
 -16  -5  -7    0.31    1.45
   5 -16   7   -0.08    1.56
   5 -16   7    0.96    1.63
 -16  -5  -8    4.03    1.89
 -16  -5  -8    6.30    1.72
   5 -16   8    5.56    1.82
   5 -16   8    4.62    1.98
   5 -16   8    4.69    1.63
   5 -16   9    0.34    1.58
   5 -16   9   -0.59    1.60
 -16  -5  -9   -0.29    1.61
 -16  -5  -9    0.19    1.27
   5 -16   9    0.54    1.23
   5 -16  10    2.98    1.55
 -16  -5 -10    1.60    1.51
 -16  -5 -10    1.77    1.22
 -16  -5 -11    7.08    1.52
   5 -16  11    9.59    1.47
 -16  -5 -12    0.83    0.84
   5 -16  12   -0.04    0.98
 -16  -6   0   92.24    4.55
 -16  -6  -1   38.68    2.74
 -16  -6   1   39.16    2.66
 -16  -6   2   33.66    2.94
 -16  -6  -2   30.44    2.24
   6 -16   2   26.61    2.36
 -16  -6  -2   28.06    2.41
 -16  -6  -3    0.53    1.45
 -16  -6   3   -0.22    5.32
 -16  -6   3    2.83    1.93
 -16  -6  -3    0.22    1.40
   6 -16   3    1.71    1.57
   6 -16  -3    0.55    1.59
 -16  -6  -4  137.52    6.47
 -16  -6   4  131.71    6.47
   6 -16   4  148.48    6.49
   6 -16   4  130.87    6.27
   6 -16  -4  151.13    6.46
 -16  -6   4  138.64    8.14
 -16  -6  -5    3.30    1.67
 -16  -6   5    3.16    1.65
 -16  -6  -5    2.72    1.54
   6 -16   5    2.25    1.62
   6 -16   5    2.12    1.38
 -16  -6   6    0.08    1.54
 -16  -6  -6    2.48    1.55
 -16  -6  -6    0.47    1.47
   6 -16   6    0.08    1.59
   6 -16   6    1.67    1.57
 -16  -6  -7   -0.54    1.46
   6 -16  -7    1.31    1.67
 -16  -6  -7    3.00    1.55
 -16  -6   7    0.77    1.54
   6 -16   7    5.57    1.54
   6 -16   8    2.41    1.42
   6 -16   8    0.07    1.65
   6 -16   8   -0.46    1.50
 -16  -6   8   -1.00    1.38
 -16  -6  -8    2.48    1.61
 -16  -6  -8   -0.14    1.30
 -16  -6  -8    0.23    1.43
   6 -16   9    7.51    1.81
   6 -16   9    2.79    1.71
 -16  -6  -9    7.03    1.78
 -16  -6  -9    6.71    1.48
 -16  -6  -9    3.17    1.62
   6 -16   9    4.08    1.45
 -16  -6 -10    2.10    1.43
 -16  -6 -10   -0.23    1.13
   6 -16  10    1.25    1.43
   6 -16  10   -1.95    1.63
   6 -16  11    9.19    1.35
 -16  -6 -11    4.48    1.37
   6 -16  12    6.68    1.15
 -16  -6 -12    4.32    0.97
 -16  -7   0    2.69    1.59
 -16  -7   1    1.16    1.39
 -16  -7  -1   -0.87    1.51
 -16  -7   2    6.02    6.40
 -16  -7   2    4.03    2.15
 -16  -7  -2    2.75    1.39
 -16  -7  -2    4.44    1.61
   7 -16  -2    7.30    1.76
   7 -16   2    4.51    1.57
   7 -16   3   44.64    3.07
 -16  -7   3   46.26    6.94
 -16  -7   3   51.28    3.27
   7 -16  -3   46.98    3.12
 -16  -7  -3   47.52    3.07
 -16  -7  -3   50.67    3.07
 -16  -7  -4   18.63    2.17
 -16  -7   4   24.22    2.47
   7 -16   4   20.66    2.24
 -16  -7   4   29.16    5.95
   7 -16   4   22.64    2.10
   7 -16  -4   21.93    2.17
   7 -16  -4   25.05    2.35
   7 -16   5   10.76    1.95
 -16  -7   5    6.26    1.82
 -16  -7  -5    7.63    1.76
 -16  -7   5    6.12    5.46
 -16  -7  -5    9.08    1.86
   7 -16   5    8.70    1.66
   7 -16  -5    9.37    1.70
   7 -16  -5   10.22    1.85
 -16  -7   6   32.33    2.69
 -16  -7  -6   35.11    2.72
 -16  -7  -6   33.05    2.78
   7 -16   6   30.02    2.73
   7 -16   7    7.80    1.70
 -16  -7  -7    5.15    1.64
 -16  -7   7    3.69    1.61
 -16  -7  -7    6.43    1.58
   7 -16   8    4.53    1.44
   7 -16   8    3.16    1.76
   7 -16   8    0.52    1.64
 -16  -7  -8    3.49    1.67
 -16  -7   8    3.08    1.43
 -16  -7  -8    2.24    1.35
 -16  -7  -8    4.78    1.53
   7 -16   9    6.18    1.72
   7 -16   9    3.24    1.58
 -16  -7  -9    3.25    1.54
 -16  -7  -9    3.65    1.33
   7 -16   9    3.08    1.25
 -16  -7  -9    3.75    1.46
   7 -16  10    2.80    1.54
   7 -16  10    5.85    1.51
 -16  -7 -10    5.02    1.45
   7 -16  11    1.05    1.07
 -16  -7 -11    1.66    1.06
   7 -16  12    2.50    1.02
 -16  -8   0   58.69    3.33
 -16  -8   1   32.30    2.46
 -16  -8  -1   33.50    2.53
 -16  -8   1   26.42    6.80
 -16  -8   2    3.64    7.35
 -16  -8  -2    2.35    1.45
 -16  -8  -2    0.37    1.54
   8 -16  -2    2.28    1.62
   8 -16  -3   61.27    3.67
 -16  -8   3   69.53    3.90
 -16  -8   3   58.29    7.30
 -16  -8  -3   58.51    3.50
 -16  -8  -3   55.93    3.51
 -16  -8   4    2.84    6.51
 -16  -8   4    1.10    1.82
 -16  -8  -4    2.34    1.56
   8 -16  -4    0.08    1.71
 -16  -8  -5   85.60    4.59
   8 -16  -5   93.97    4.77
 -16  -8   5   94.24    4.75
   8 -16   5   90.23    4.67
 -16  -8   5   84.33    7.11
 -16  -8  -5   89.60    4.72
   8 -16   5   82.20    4.45
   8 -16  -5   88.62    4.45
 -16  -8   6    6.29    5.25
 -16  -8   6   10.16    1.82
 -16  -8  -6    6.29    1.75
   8 -16  -6    5.06    1.68
 -16  -8  -6    6.00    1.71
   8 -16   6    5.12    1.84
   8 -16   7    0.85    1.52
 -16  -8  -7    2.27    1.38
   8 -16  -7    2.29    1.59
 -16  -8   7    3.77    1.57
 -16  -8  -7    2.72    1.55
 -16  -8  -8    3.73    1.38
 -16  -8  -8    4.02    1.46
 -16  -8   8    3.37    1.49
 -16  -8  -8    2.74    1.62
   8 -16   8    7.45    1.53
 -16  -8  -9   -0.37    1.34
 -16  -8   9    2.09    1.21
   8 -16   9    2.25    1.12
   8 -16   9   -0.72    1.41
 -16  -8  -9    0.73    1.10
   8 -16   9   -0.24    1.48
   8 -16  10    2.07    1.37
 -16  -8 -10    2.86    1.27
   8 -16  10    2.64    1.36
 -16  -8 -11    0.98    0.96
   8 -16  11    1.42    1.06
 -16  -9   0    1.44    1.53
   9 -16  -1   74.87    4.22
 -16  -9  -1   71.04    3.75
 -16  -9   1   70.33    3.87
 -16  -9  -1   69.94    3.84
   9 -16  -2  460.11   17.71
 -16  -9   2  445.66   19.10
 -16  -9  -2  429.64   17.42
 -16  -9  -2  448.85   17.56
 -16  -9   2  444.03   17.38
 -16  -9   3   14.86    7.15
 -16  -9   3   13.30    2.28
 -16  -9  -3   14.86    1.92
   9 -16  -3   13.58    2.11
 -16  -9  -3   14.03    2.00
 -16  -9  -4    1.92    1.53
   9 -16  -4    5.69    1.76
 -16  -9   4    3.60    1.88
 -16  -9  -4    2.81    1.53
   9 -16  -5   35.20    2.90
 -16  -9   5   28.80    6.19
 -16  -9   5   36.22    2.86
   9 -16  -5   31.99    2.54
   9 -16   5   31.76    2.60
 -16  -9  -5   42.84    2.80
 -16  -9  -5   37.33    2.81
   9 -16  -6   46.80    3.28
   9 -16   6   57.34    3.38
 -16  -9   6   52.53    6.16
 -16  -9   6   49.88    3.29
 -16  -9  -6   54.20    3.33
 -16  -9  -6   45.05    3.07
 -16  -9  -6   53.37    3.35
 -16  -9  -7   -1.26    1.36
 -16  -9   7    2.64    4.56
   9 -16   7    1.92    1.43
 -16  -9   7    0.07    1.50
   9 -16   8    6.22    1.72
 -16  -9   8    3.09    1.42
 -16  -9  -8    2.44    1.51
 -16  -9  -8    2.27    1.34
   9 -16   8    4.62    1.40
 -16  -9  -9    6.79    1.47
 -16  -9   9    5.93    1.35
   9 -16   9    6.30    1.33
   9 -16   9   10.15    1.67
   9 -16   9    7.62    1.66
 -16  -9  -9    3.89    1.22
   9 -16  10    5.75    1.39
   9 -16  10    3.01    1.33
 -16  -9 -10    5.22    1.28
 -16  -9 -11    2.71    0.92
   9 -16  11    3.70    1.03
  10 -16   0  316.10   12.08
 -16 -10   0  265.69   11.61
  10 -16  -1  102.04    5.19
 -16 -10  -1   94.42    4.70
 -16 -10   1   96.41    4.69
 -16 -10  -1   92.95    4.61
  10 -16  -2  100.27    5.18
 -16 -10   2  101.38    5.20
 -16 -10   2  106.56    8.93
 -16 -10  -2   98.30    4.88
 -16 -10  -2  104.79    5.00
 -16 -10   2   99.86    4.82
  10 -16  -3   57.43    3.55
 -16 -10  -3   51.05    3.22
 -16 -10   3   46.99    7.25
 -16 -10   4    1.07    1.78
 -16 -10  -4    2.02    1.45
 -16 -10  -4   -0.08    1.42
 -16 -10   4   -0.79    6.30
  10 -16  -4   -0.16    1.65
  10 -16  -5   10.17    1.98
 -16 -10   5    8.19    6.05
 -16 -10   5   11.58    1.95
 -16 -10  -5   11.12    1.75
 -16 -10  -5    9.46    1.81
  10 -16   5   11.56    1.68
  10 -16  -5   10.80    1.69
 -16 -10   6    7.31    1.73
 -16 -10  -6    6.48    1.64
  10 -16   6    8.81    1.86
  10 -16  -6    6.34    1.75
 -16 -10  -6    6.41    1.56
 -16 -10   7   15.06    1.89
 -16 -10   7   14.55    4.94
  10 -16   7   16.75    1.87
 -16 -10  -7   11.01    1.64
  10 -16   8   -0.06    1.55
 -16 -10   8    1.85    1.33
 -16 -10  -8   -0.55    1.33
  10 -16   8    1.61    1.20
 -16 -10  -8    1.23    1.18
 -16 -10  -9    2.48    1.28
 -16 -10   9    5.04    1.25
  10 -16   9    1.96    1.46
 -16 -10  -9    3.86    1.10
  10 -16   9    3.66    1.50
  10 -16   9    1.92    1.16
  10 -16  10    1.04    1.17
 -16 -10 -10    1.63    1.03
  10 -16  10    2.23    1.14
 -16 -11   0    1.70    1.60
  11 -16   0    2.63    1.96
 -16 -11  -1  214.58    9.31
 -16 -11   1  216.70    9.32
 -16 -11  -1  212.46    9.21
  11 -16   1  236.76    9.89
  11 -16  -2   12.00    2.10
 -16 -11   2    8.32    2.10
 -16 -11   2   11.64    7.72
 -16 -11  -2   11.45    1.84
 -16 -11   2   10.01    1.60
 -16 -11  -2   11.22    1.69
 -16 -11   3   32.43    2.71
 -16 -11  -3   27.13    2.38
  11 -16  -3   30.91    2.74
 -16 -11   4    5.58    6.52
  11 -16  -4   12.25    2.05
 -16 -11  -4    9.38    1.80
 -16 -11  -4   10.98    1.77
 -16 -11   5   14.51    5.93
  11 -16  -5   13.52    2.00
 -16 -11   5   12.88    1.99
 -16 -11  -5   11.77    1.78
 -16 -11  -5   11.33    1.74
 -16 -11   6   -3.69    5.61
 -16 -11  -6    2.20    1.40
 -16 -11   6    0.49    1.51
 -16 -11  -6    0.68    1.35
  11 -16   7    1.32    1.57
 -16 -11   7    1.25    1.41
 -16 -11  -7    0.11    1.28
  11 -16   7    2.10    1.35
 -16 -11   8    0.27    1.31
 -16 -11  -8    2.38    1.27
 -16 -11  -8   -0.05    1.09
  11 -16   8    0.26    1.13
 -16 -11  -9    3.48    1.03
 -16 -11   9    4.36    1.33
 -16 -11  -9    6.42    1.29
  11 -16   9    7.06    1.20
  11 -16   9   10.78    1.58
  11 -16   9    8.74    1.50
  11 -16  10    1.47    1.11
 -16 -11 -10    1.62    0.92
  11 -16  10    1.01    1.09
  12 -16   0   60.71    3.61
 -16 -12   0   52.93    3.18
 -16 -12   1   18.02    8.19
  12 -16   1   20.65    2.39
  12 -16  -1   24.24    2.50
 -16 -12  -1   22.88    1.96
 -16 -12   1   22.47    2.12
 -16 -12  -1   23.72    2.07
 -16 -12   2  183.43    7.88
 -16 -12  -2  179.27    7.72
 -16 -12   2  168.53    7.52
 -16 -12  -2  159.88    7.51
 -16 -12   3   11.27    2.09
 -16 -12  -3    6.73    1.53
  12 -16  -3    7.63    1.93
 -16 -12   3    7.11    7.12
 -16 -12  -4    1.71    1.36
 -16 -12  -4    3.74    1.53
  12 -16  -4    3.67    1.64
  12 -16  -5    2.15    1.46
 -16 -12   5    1.30    5.84
 -16 -12  -5    0.39    1.36
 -16 -12  -5    2.35    1.39
 -16 -12   5    2.58    1.76
 -16 -12   6   16.41    1.96
 -16 -12  -6   11.86    1.64
 -16 -12  -6   15.09    1.84
 -16 -12   7   -0.36    1.43
  12 -16   7   -0.71    1.55
  12 -16   7    0.52    1.26
 -16 -12  -7    0.83    1.18
  12 -16   8    1.61    1.11
 -16 -12  -8    1.81    1.00
 -16 -12  -8    0.20    1.10
 -16 -12   8    0.95    1.24
  12 -16   9   -0.80    1.18
 -16 -12   9    1.66    1.14
 -16 -12  -9    1.01    0.98
  12 -16   9    0.18    1.19
 -16 -12 -10   -0.52    0.74
  12 -16  10   -0.75    0.95
 -16 -13   0   -0.59    1.39
 -16 -13   1   34.97    8.08
  13 -16  -1   39.52    2.81
 -16 -13  -1   29.47    2.15
 -16 -13   1   29.72    2.26
 -16 -13  -1   31.18    2.34
 -16 -13   2    4.87    2.03
  13 -16  -2    4.32    1.87
 -16 -13  -2    6.22    1.35
 -16 -13   2    5.92    1.33
 -16 -13  -2    3.89    1.56
 -16 -13   3   90.36    4.60
  13 -16  -3   95.88    4.68
 -16 -13  -3   78.61    4.22
 -16 -13   3   83.59    8.07
  13 -16  -4    0.68    1.61
 -16 -13  -4    0.74    1.30
 -16 -13   4    2.07    1.71
 -16 -13  -4    1.62    1.39
 -16 -13  -5    6.12    1.44
 -16 -13   5    5.43    6.02
 -16 -13  -5    7.57    1.50
 -16 -13   6   -1.66    5.55
 -16 -13  -6    2.11    1.22
 -16 -13  -6    2.00    1.31
 -16 -13   6    3.58    1.63
 -16 -13   7   19.82    2.00
  13 -16   7   22.64    1.89
 -16 -13  -7   19.52    1.71
 -16 -13   7   15.59    4.84
  13 -16   7   21.53    2.07
  13 -16   8    1.74    1.03
 -16 -13  -8    1.22    1.08
 -16 -13  -8    0.14    0.86
 -16 -13   8    2.38    1.24
 -16 -13  -9    0.98    0.93
  13 -16   9    3.92    1.21
  13 -16   9    2.96    1.11
 -16 -14   0   11.90    1.60
 -16 -14   1   -0.07    7.59
 -16 -14  -1    1.65    1.22
 -16 -14   1    2.90    1.25
 -16 -14  -1    1.55    1.38
 -16 -14   2   34.45    2.25
 -16 -14  -2   33.31    2.35
 -16 -14   2   36.55    7.76
 -16 -14  -2   32.97    2.26
 -16 -14  -3    3.47    1.25
 -16 -14   3    2.20    1.87
 -16 -14   4    5.27    6.51
 -16 -14   4    6.47    1.84
 -16 -14  -4    6.27    1.35
 -16 -14  -4    5.18    1.45
 -16 -14  -5   12.98    1.68
 -16 -14  -5   14.67    1.68
 -16 -14  -6   17.78    1.69
  14 -16   6   21.86    1.95
 -16 -14   6   16.74    5.45
 -16 -14  -6   17.46    1.78
  14 -16   7    1.80    1.17
 -16 -14   7    1.72    1.40
 -16 -14  -7    2.79    0.99
  14 -16   7    0.25    1.37
  14 -16   8    4.91    0.98
 -16 -14   8    4.15    1.30
 -16 -14  -8    4.39    1.09
 -16 -14  -8    3.74    0.91
 -16 -14  -9    0.27    0.74
  14 -16   9   -0.22    0.92
 -16 -15   0   -0.34    1.22
 -16 -15   1    2.22    1.20
 -16 -15  -1    3.57    1.25
 -16 -15   2   -0.44    7.37
 -16 -15  -2    0.41    1.09
 -16 -15  -2    0.91    1.25
 -16 -15  -3   15.22    1.60
 -16 -15   3   20.91    2.32
 -16 -15  -4    2.61    1.18
 -16 -15  -4    1.47    1.12
 -16 -15   4    3.18    1.78
 -16 -15   5   12.48    1.86
 -16 -15  -5    8.63    1.33
 -16 -15  -5    9.83    1.38
 -16 -15   6    2.07    5.11
  15 -16   6    3.03    1.36
 -16 -15  -6    6.24    1.07
 -16 -15  -6    2.39    1.15
  15 -16   7    5.19    1.05
 -16 -15  -7    3.10    0.90
 -16 -15   7    3.16    1.37
  15 -16   7    2.87    1.33
 -16 -15  -8    0.69    0.81
 -16 -16   0    0.45    1.10
 -16 -16   1    2.18    1.10
 -16 -16  -1    0.66    1.14
 -16 -16  -2    3.14    1.07
 -16 -16  -2    3.84    1.24
 -16 -16  -3    2.49    1.11
 -16 -16  -3    4.29    1.23
 -16 -16  -4    0.55    1.07
 -16 -16  -4    1.60    1.06
 -16 -16   5    5.00    5.48
  16 -16   5    2.75    1.23
 -16 -16  -5    3.17    1.05
 -16 -16   5    2.46    1.59
 -16 -16  -5    2.46    1.04
 -16 -16  -6    1.33    0.84
 -16 -16  -6    0.26    0.93
  16 -16   6    0.84    1.15
  16 -16   7    1.49    1.11
 -16 -17   0    2.49    1.09
 -16 -17   1    6.72    1.20
 -16 -17  -1    8.10    1.22
 -16 -17  -3    1.58    0.97
 -16 -17  -3    1.22    0.98
 -16 -17  -4    8.92    1.16
 -16 -17  -4    9.96    1.20
 -16 -17  -5    1.59    0.88
 -16 -17  -5    0.20    0.84
 -16 -17  -6    3.67    0.88
  17 -16   6    4.28    0.97
  17 -16   6    5.31    1.03
 -16 -17  -6    3.52    0.79
 -15 -17   0    2.66    1.24
 -15 -17   1    3.10    6.86
 -15 -17  -1    1.98    1.12
 -15 -17   1    0.79    1.13
 -15 -17   2    8.26    1.29
 -15 -17  -2    9.71    1.34
 -15 -17   2   10.30    6.74
 -15 -17  -3   10.59    1.37
 -15 -17  -3   12.56    1.40
 -15 -17   3   15.55    6.50
 -15 -17  -4   41.87    2.48
 -15 -17  -4   47.55    2.52
 -15 -17   4   47.46    2.87
 -15 -17   5    2.52    5.13
 -15 -17  -5    1.94    0.94
 -15 -17   5    0.25    1.42
 -15 -17  -5    1.08    1.04
 -15 -17   6    8.28    1.42
 -15 -17  -6    6.85    1.02
  17 -15   6    7.79    1.38
 -15 -17   6    7.90    4.52
 -15 -17  -7    0.99    0.81
  17 -15   7    4.15    1.12
 -15 -17   7    2.02    1.12
 -14 -17   0    0.06    1.23
 -14 -17   0   -7.26    6.88
 -14 -17   0   -1.34    6.53
 -14 -17   1   45.64    6.49
 -14 -17  -1   37.27    6.76
 -14 -17  -1   40.50    2.49
 -14 -17   1   41.37    2.49
 -14 -17   1   43.68    6.79
 -14 -17  -1   40.51    2.46
 -14 -17   2   33.39    5.82
 -14 -17  -2   19.89    6.02
 -14 -17   2   23.27    5.95
 -14 -17   2   24.92    1.97
 -14 -17  -2   25.11    1.91
 -14 -17  -3   89.32    4.38
 -14 -17   3   99.81    4.67
 -14 -17  -3   91.77    4.39
 -14 -17   4   14.94    1.92
 -14 -17  -4   15.93    1.60
 -14 -17  -4   15.76    1.62
 -14 -17  -4   13.50    1.46
 -14 -17  -5   -0.05    1.02
 -14 -17  -5    1.42    1.07
 -14 -17   5    0.52    1.39
 -14 -17   6    5.41    1.41
 -14 -17   6    3.83    3.91
 -14 -17  -6    4.86    1.13
 -14 -17  -6    4.99    1.04
 -14 -17  -6    5.14    1.08
 -14 -17  -7    7.33    1.11
  17 -14   7    5.80    1.05
 -14 -17   7    5.96    3.88
 -14 -17  -7    9.62    1.14
 -14 -17  -7    6.73    0.93
 -14 -17   7    9.05    1.36
 -14 -17  -8    0.38    0.74
 -14 -17  -8    0.38    0.71
 -13 -17   0  126.16    8.30
 -13 -17   0  125.53    8.40
 -13 -17   0  128.76    5.67
 -13 -17   0  123.18    5.55
 -13 -17   1   16.17    4.88
 -13 -17  -1   12.33    6.73
 -13 -17   1   14.25    6.35
 -13 -17  -1   10.11    6.46
 -13 -17   1   13.15    1.66
 -13 -17  -1   10.79    1.61
 -13 -17   2   32.49    3.81
 -13 -17   2   30.44    2.39
 -13 -17   2   32.38    6.50
 -13 -17  -2   34.41    6.58
 -13 -17   2   31.44    2.23
 -13 -17  -2   29.77    2.22
 -13 -17  -2   32.76    2.23
 -13 -17  -3    4.19    1.30
 -13 -17  -3    5.79    1.42
 -13 -17   3    5.02    2.71
 -13 -17   3   -0.76    5.67
 -13 -17  -3    9.44    5.94
 -13 -17  -3    3.16    1.39
 -13 -17   3    5.77    1.38
 -13 -17   3    3.68    1.58
 -13 -17  -4    3.51    1.23
 -13 -17  -4    6.92    4.87
 -13 -17  -4    2.87    1.25
 -13 -17  -4    3.95    1.24
 -13 -17   4    1.94    1.56
 -13 -17   5    7.28    2.27
 -13 -17  -5    3.29    1.21
 -13 -17  -5    4.13    1.18
 -13 -17   5    5.08    1.59
 -13 -17   6    6.48    1.53
 -13 -17   6    6.72    2.28
 -13 -17  -6    7.64    1.31
 -13 -17  -6    5.65    1.13
 -13 -17  -6   10.21    1.32
 -13 -17   7    0.55    1.24
 -13 -17   7    3.51    2.52
 -13 -17  -7    0.10    0.85
 -13 -17  -7    0.92    0.97
 -13 -17  -7   -0.58    0.99
 -13 -17  -8   28.50    1.81
 -13 -17  -8   29.52    1.88
 -13 -17   8   31.65    3.52
 -13 -17   9    4.74    0.98
 -12 -17   0    3.92    4.14
 -12 -17   0    3.03    1.36
 -12 -17   0    0.72    3.89
 -12 -17   0    0.07    1.36
 -12 -17   1   84.80    5.83
 -12 -17  -1   88.41    5.87
 -12 -17   1   87.04    4.76
 -12 -17  -1   82.13    7.22
 -12 -17   1   80.95    4.14
 -12 -17  -1   79.78    4.06
 -12 -17   1   80.23    4.04
 -12 -17  -2   28.01    2.23
 -12 -17   2   26.00    2.28
 -12 -17  -2   32.09    2.26
 -12 -17   2   29.58    2.75
 -12 -17   2   30.39    2.28
 -12 -17  -2   29.14    2.24
 -12 -17   2   32.25    4.94
 -12 -17  -2   37.30    5.19
 -12 -17  -3   52.17    6.18
 -12 -17  -3   49.74    3.09
 -12 -17   3   59.01    3.30
 -12 -17   3   62.34    6.14
 -12 -17   3   60.28    3.65
 -12 -17  -3   53.45    3.11
 -12 -17   3   55.40    3.18
 -12 -17  -3   53.83    3.08
 -12 -17   4    9.91    1.79
 -12 -17   4   13.96    5.71
 -12 -17  -4   10.06    5.76
 -12 -17  -4   11.35    1.59
 -12 -17  -4   12.20    1.62
 -12 -17  -5   65.94    3.52
 -12 -17   5   68.49    3.76
 -12 -17   5   72.07    3.89
 -12 -17  -5   62.40    3.38
 -12 -17  -5   62.06    3.44
 -12 -17  -6   -1.17    1.23
 -12 -17   6    1.37    1.50
 -12 -17   6    1.02    1.64
 -12 -17  -6    2.64    1.11
 -12 -17  -6    0.83    1.20
 -12 -17  -7   12.60    1.44
 -12 -17   7   12.06    1.68
 -12 -17  -7   10.38    1.31
 -12 -17   7   11.56    1.82
 -12 -17  -7    9.41    1.45
 -12 -17  -8    4.88    1.04
 -12 -17  -8    3.17    1.06
 -12 -17   8    1.88    1.77
 -12 -17   9    5.36    1.14
  17 -12   9    8.42    1.27
 -12 -17   9    7.96    2.47
 -12 -17  -9    3.97    0.90
 -11 -17   0   27.07    2.81
 -11 -17   0   23.59    2.98
 -11 -17   0   24.65    2.18
 -11 -17   0   21.40    2.09
 -11 -17   1  104.06    4.94
 -11 -17  -1  104.02    5.03
 -11 -17  -1   95.42    6.28
 -11 -17   1  106.47    5.26
 -11 -17   1  104.98    5.50
 -11 -17  -1  110.10    5.57
 -11 -17   1  106.01    5.10
 -11 -17   2  120.32    5.51
 -11 -17  -2  110.97    5.35
 -11 -17   2  125.24    5.72
 -11 -17   2  115.22    5.31
 -11 -17  -2  117.14    5.43
 -11 -17   2  116.33    5.96
 -11 -17  -2  113.57    5.96
 -11 -17  -2  117.62    5.46
 -11 -17   2  114.36    5.46
 -11 -17   3    7.90    3.51
 -11 -17  -3    9.05    3.45
 -11 -17  -3    5.90    1.54
 -11 -17   3    8.36    2.13
 -11 -17   3    6.90    1.67
 -11 -17   3    5.39    1.56
 -11 -17  -3    8.07    1.57
 -11 -17  -3    7.28    1.55
 -11 -17   4   77.54    4.05
 -11 -17  -4   74.83    3.95
 -11 -17   4   81.19    5.92
 -11 -17  -4   72.79    5.78
 -11 -17  -4   78.32    4.03
 -11 -17   4   83.71    4.29
 -11 -17  -5    9.88    1.58
 -11 -17  -5    9.97    1.63
 -11 -17   5   14.39    2.25
 -11 -17   5   15.55    5.00
 -11 -17  -5   12.08    5.14
 -11 -17  -5   12.04    1.57
 -11 -17   5   10.72    1.89
 -11 -17  -6   13.06    1.67
 -11 -17   6   14.05    1.95
 -11 -17   6   16.12    2.09
 -11 -17  -6   14.03    1.57
 -11 -17  -6   12.58    1.68
 -11 -17   7   -0.13    1.42
 -11 -17  -7   -0.46    1.18
 -11 -17  -7    0.11    1.17
 -11 -17   7    2.91    1.52
 -11 -17   8    6.81    1.47
 -11 -17  -8    4.60    1.14
 -11 -17   9    0.72    1.06
 -11 -17   9   -0.03    1.44
 -11 -17  -9    0.17    0.85
 -11 -17  10    1.42    0.80
 -11 -17 -10    0.73    0.71
 -10 -17   0    1.57    1.74
 -10 -17   0    2.57    1.43
 -10 -17   0    2.56    1.64
 -10 -17   0    0.70    1.89
 -10 -17  -1  362.61   14.94
 -10 -17   1  385.23   15.04
 -10 -17  -1  360.01   15.00
 -10 -17   1  372.37   15.07
 -10 -17   1  386.07   14.98
 -10 -17  -1  375.03   15.01
 -10 -17   1  380.62   15.14
 -10 -17  -1  387.45   15.16
 -10 -17  -1  388.35   15.07
 -10 -17   2   48.14    2.97
 -10 -17  -2   41.08    2.80
 -10 -17   2   47.02    3.19
 -10 -17   2   47.18    2.93
 -10 -17   2   49.96    3.20
 -10 -17  -2   44.80    3.24
 -10 -17  -2   44.43    2.93
 -10 -17   2   42.35    2.80
 -10 -17  -2   45.77    2.90
 -10 -17  -3   10.92    1.70
 -10 -17   3    8.46    2.12
 -10 -17  -3   10.94    2.24
 -10 -17   3   12.44    1.56
 -10 -17   3   13.56    2.29
 -10 -17   3    9.33    1.80
 -10 -17  -3   10.53    1.57
 -10 -17   3   11.13    1.83
 -10 -17  -4   23.47    2.14
 -10 -17   4   25.85    2.41
 -10 -17  -4   22.51    2.11
 -10 -17   4   22.34    2.19
 -10 -17  -4   24.40    2.10
 -10 -17   4   25.62    3.02
 -10 -17  -4   24.33    3.07
 -10 -17   4   26.71    2.63
 -10 -17  -5    7.19    1.54
 -10 -17   5    8.06    4.01
 -10 -17  -5    3.41    4.06
 -10 -17   5    9.36    1.89
 -10 -17  -5    5.35    1.54
 -10 -17  -5    8.26    1.54
 -10 -17   6    0.92    1.60
 -10 -17   6   -0.72    1.78
 -10 -17  -6    2.48    1.31
 -10 -17  -6   -0.63    1.29
 -10 -17   7   12.08    1.86
 -10 -17   7    9.81    1.88
 -10 -17  -7   11.06    1.57
 -10 -17  -8    2.10    1.12
 -10 -17   8   -0.57    1.42
 -10 -17  -8   -0.53    1.14
 -10 -17  -9   10.84    1.29
 -10 -17   9   10.02    1.50
 -10 -17  -9    8.95    1.34
 -17  10 -10    1.19    0.86
 -10 -17 -10    0.36    0.79
 -10 -17  10    0.78    0.91
  -9 -17   0  557.25   21.21
  -9 -17   0  558.40   21.34
  -9 -17   0  521.16   21.15
  -9 -17   1   64.14    3.69
  -9 -17  -1   59.29    3.48
  -9 -17  -1   61.58    3.60
  -9 -17   1   63.92    3.74
  -9 -17   1   66.08    3.56
  -9 -17  -1   60.15    3.62
  -9 -17   1   60.33    3.72
  -9 -17  -1   62.83    3.75
  -9 -17  -1   66.74    3.65
  -9 -17   2   46.89    3.03
  -9 -17  -2   48.67    2.88
  -9 -17   2   47.84    3.24
  -9 -17   2   39.07    2.87
  -9 -17   2   42.45    2.98
  -9 -17  -2   44.74    3.09
  -9 -17  -2   46.44    2.99
  -9 -17  -2   44.53    2.97
  -9 -17   2   43.03    2.84
  -9 -17  -3    0.84    1.40
  -9 -17   3   -1.44    1.38
  -9 -17   3    0.86    1.96
  -9 -17   3    0.56    1.53
  -9 -17   3   -0.07    1.58
  -9 -17  -3    0.51    1.62
  -9 -17  -3    2.50    1.45
  -9 -17   3    1.66    1.62
  -9 -17  -4    7.87    1.68
  -9 -17   4    7.94    1.92
  -9 -17  -4    5.47    1.75
  -9 -17   4    9.49    2.17
  -9 -17   4    6.68    1.88
  -9 -17  -4    8.08    1.66
  -9 -17  -4   11.36    1.57
  -9 -17   4    8.93    1.82
  -9 -17   5    2.42    2.25
  -9 -17  -5    0.70    2.33
  -9 -17  -5    1.20    1.35
  -9 -17   5    2.19    1.76
  -9 -17  -5   -0.45    1.31
  -9 -17   6   22.70    2.43
  -9 -17  -6   21.37    2.06
  -9 -17  -6   21.95    2.06
  -9 -17   6   29.18    2.60
  -9 -17   7    1.70    1.58
  -9 -17   7   -0.48    1.64
  -9 -17  -7    0.89    1.26
  -9 -17  -7    0.06    1.29
  -9 -17   8   16.36    1.92
  -9 -17  -8   11.45    1.63
  -9 -17  -8   13.07    1.63
  -9 -17   8   15.58    1.94
  -9 -17  -9    3.27    1.16
  -9 -17  -9    3.26    1.13
  -9 -17   9    4.65    1.34
  -9 -17 -10    3.86    1.00
  -9 -17  10    6.57    1.19
 -17   9 -10    4.49    1.10
  -9 -17  10    3.86    1.00
  -8 -17   0    0.08    1.73
  -8 -17   0    0.44    1.59
  -8 -17   0    0.24    1.49
  -8 -17  -1    3.30    1.67
  -8 -17   1    4.67    1.62
  -8 -17   1    5.94    1.88
  -8 -17   1    8.82    2.01
  -8 -17  -1    5.39    1.89
  -8 -17   1    5.16    1.85
  -8 -17  -1    6.20    1.67
  -8 -17  -1    5.90    1.69
  -8 -17  -2   12.96    1.85
  -8 -17   2   11.73    2.00
  -8 -17  -2   10.00    1.87
  -8 -17   2   13.37    1.87
  -8 -17   2   11.96    2.21
  -8 -17   2   11.12    1.79
  -8 -17   2   11.15    2.02
  -8 -17  -2   11.64    1.81
  -8 -17   3   55.97    3.35
  -8 -17  -3   54.35    3.32
  -8 -17   3   57.97    3.55
  -8 -17  -3   55.62    3.44
  -8 -17   3   60.25    3.53
  -8 -17   3   66.18    3.82
  -8 -17   3   64.56    3.70
  -8 -17  -3   53.81    3.29
  -8 -17  -3   53.02    3.45
  -8 -17   4   70.27    4.12
  -8 -17   4   75.20    3.91
  -8 -17  -4   72.75    3.93
  -8 -17  -4   64.37    3.79
  -8 -17   4   71.13    4.11
  -8 -17  -4   69.36    3.75
  -8 -17   4   73.42    4.33
  -8 -17   5    8.16    1.75
  -8 -17  -5    7.70    1.73
  -8 -17  -5    9.98    1.70
  -8 -17  -5    9.45    1.75
  -8 -17   5    8.24    2.03
  -8 -17  -5   11.23    1.74
  -8 -17  -6    3.71    1.40
  -8 -17  -6    5.38    1.55
  -8 -17   6    2.50    1.95
  -8 -17   6    6.63    1.82
  -8 -17  -6    2.64    1.41
  -8 -17  -7   -0.13    1.35
  -8 -17   7   -0.07    1.73
  -8 -17   7   -0.15    1.60
  -8 -17  -7   -0.76    1.33
  -8 -17  -8    1.98    1.31
  -8 -17   8    2.18    1.64
  -8 -17   8    3.97    1.58
  -8 -17  -8    2.82    1.35
  -8 -17  -9    3.53    1.21
  -8 -17   9    4.67    1.41
  -8 -17  -9    3.58    1.24
  -8 -17  10    2.19    1.07
  -8 -17 -10    0.78    0.98
 -17   8 -10    1.56    1.08
  -8 -17  10    2.16    1.17
  -8 -17 -11   -0.28    0.76
  -8 -17  11    0.73    0.84
  -7 -17   0  124.15    5.93
  -7 -17   0  121.30    5.98
  -7 -17   0  118.69    5.75
  -7 -17   0  128.77    5.89
  -7 -17  -1  216.07    9.24
  -7 -17   1  218.15    9.19
  -7 -17   1  225.55    9.41
  -7 -17  -1  206.74    9.13
  -7 -17   1  210.14    9.24
  -7 -17  -1  214.28    9.23
  -7 -17   1  218.40    9.34
  -7 -17  -1  219.24    9.39
  -7 -17   2   65.77    3.92
  -7 -17  -2   61.95    3.63
  -7 -17   2   69.63    3.89
  -7 -17   2   63.34    3.83
  -7 -17  -2   65.93    3.87
  -7 -17   2   63.67    3.71
  -7 -17   3    1.79    1.73
  -7 -17  -3    0.77    1.57
  -7 -17  -3   -1.22    1.59
  -7 -17   3    0.35    1.43
  -7 -17   3    1.61    2.01
  -7 -17   3    1.38    1.68
  -7 -17   3    0.58    1.77
  -7 -17  -3    0.49    1.46
  -7 -17  -4   80.35    4.12
  -7 -17   4   91.45    4.89
  -7 -17   4   84.32    4.55
  -7 -17  -4   74.92    4.29
  -7 -17  -4   83.33    4.37
  -7 -17   4   82.80    4.27
  -7 -17  -4   86.35    4.37
  -7 -17  -5   43.49    2.89
  -7 -17  -5   44.65    2.85
  -7 -17  -5   44.92    3.01
  -7 -17   5   47.80    3.25
  -7 -17  -5   42.85    2.88
  -7 -17   5   41.47    2.80
  -7 -17   6   23.04    2.59
  -7 -17  -6   26.45    2.24
  -7 -17  -6   19.45    2.19
  -7 -17   6   29.80    2.83
  -7 -17   7   39.69    3.05
  -7 -17   7   44.98    3.10
  -7 -17  -7   41.87    2.76
  -7 -17   8   21.17    2.26
  -7 -17   8   18.05    2.19
  -7 -17  -8   16.42    1.88
  -7 -17  -8   18.20    1.94
  -7 -17  -9    0.87    1.20
  -7 -17   9    0.97    1.40
  -7 -17 -10   12.45    1.49
  -7 -17  10   12.06    1.56
  -7 -17  10   15.06    1.69
 -17   7 -10   11.62    1.57
  -7 -17 -11   -0.16    0.80
  -7 -17  11    0.58    0.93
  -6 -17   0    0.58    1.73
  -6 -17   0   -0.22    1.64
  -6 -17   0   -0.08    1.73
  -6 -17   0    1.44    1.71
  -6 -17  -1    1.41    1.56
  -6 -17   1    2.06    1.64
  -6 -17   1    0.74    1.87
  -6 -17  -1    2.79    1.96
  -6 -17   1    2.95    1.64
  -6 -17  -2   -1.71    1.68
  -6 -17   2    0.70    1.55
  -6 -17   2    0.85    1.97
  -6 -17  -2    0.51    1.48
  -6 -17   2    1.94    1.76
  -6 -17   2    3.19    1.81
  -6 -17  -2    1.24    1.71
  -6 -17   3   12.63    2.03
  -6 -17  -3   11.48    1.96
  -6 -17  -3   11.71    1.86
  -6 -17   3   11.60    1.93
  -6 -17   3   11.80    2.24
  -6 -17   3   14.56    1.98
  -6 -17  -3   16.08    1.99
  -6 -17  -3   10.65    1.69
  -6 -17   3   14.33    2.25
  -6 -17   4    6.58    1.66
  -6 -17  -4    9.10    1.81
  -6 -17   4    7.95    2.18
  -6 -17  -4    7.31    1.66
  -6 -17  -4    7.15    1.60
  -6 -17  -4    5.90    1.62
  -6 -17   4    7.00    1.86
  -6 -17   5    2.98    1.39
  -6 -17  -5    2.86    1.50
  -6 -17  -5    4.95    1.58
  -6 -17  -5    3.41    1.49
  -6 -17  -5    6.39    1.50
  -6 -17   5    2.54    1.79
  -6 -17  -6    3.63    1.53
  -6 -17  -6    1.73    1.54
  -6 -17   6    3.73    2.00
  -6 -17   6    3.96    1.84
  -6 -17  -7    1.95    1.46
  -6 -17  -7    2.84    1.46
  -6 -17   7    5.53    2.00
  -6 -17   7    2.36    1.78
  -6 -17  -8    1.71    1.37
  -6 -17  -8   -0.64    1.38
  -6 -17   8   -0.07    1.58
  -6 -17   8    3.37    1.74
  -6 -17  -9   23.66    2.14
  -6 -17   9   33.14    2.48
  -6 -17 -10    4.08    1.17
 -17   6 -10    3.70    1.31
  -6 -17  10    2.73    1.31
  -6 -17  10    0.09    1.25
  -6 -17 -11    2.45    0.98
  -6 -17  11    4.44    1.14
  -5 -17   0    0.87    1.62
  -5 -17   0    1.70    1.75
  -5 -17   0    1.90    1.70
  -5 -17   0    3.03    1.77
  -5 -17   1   11.35    2.09
  -5 -17   1   13.79    2.15
  -5 -17  -1   14.22    2.25
  -5 -17  -1   10.67    1.86
  -5 -17  -1   12.77    1.93
  -5 -17   1   14.14    2.15
  -5 -17   2   50.59    3.38
  -5 -17  -2   55.85    3.50
  -5 -17   2   56.34    3.59
  -5 -17   2   63.05    3.75
  -5 -17  -2   49.57    3.21
  -5 -17   2   56.06    3.48
  -5 -17  -2   62.27    3.54
  -5 -17  -2   56.24    3.45
  -5 -17   3   45.45    3.11
  -5 -17  -3   49.08    3.06
  -5 -17   3   50.26    3.49
  -5 -17   3   43.99    3.03
  -5 -17   3   50.43    3.41
  -5 -17  -3   48.55    2.87
  -5 -17   3   45.61    3.12
  -5 -17  -3   49.65    3.15
  -5 -17  -3   47.62    3.11
  -5 -17  -4   19.97    1.93
  -5 -17  -4   18.81    1.97
  -5 -17   4   23.89    2.63
  -5 -17  -4   19.52    2.13
  -5 -17  -4   18.18    2.12
  -5 -17   4   18.46    2.12
  -5 -17   4   19.87    2.30
  -5 -17  -5   28.55    2.36
  -5 -17   5   30.85    2.68
  -5 -17  -5   29.50    2.47
  -5 -17   5   27.60    2.24
  -5 -17  -5   26.24    2.28
  -5 -17  -6   15.27    1.94
  -5 -17   6   14.61    2.43
  -5 -17   6   12.81    2.24
  -5 -17  -6   13.52    1.87
  -5 -17  -7   51.63    3.10
  -5 -17   7   58.39    3.55
  -5 -17   7   48.77    3.35
  -5 -17   8   70.23    3.96
  -5 -17   8   66.22    3.91
  -5 -17  -8   56.54    3.46
  -5 -17   9    9.57    1.81
  -5 -17  -9    6.69    1.45
  -5 -17  10    4.14    1.39
 -17   5 -10    5.05    1.37
  -5 -17  10    2.92    1.43
  -5 -17 -10    5.30    1.25
  -5 -17  11    1.10    0.86
  -5 -17 -11    0.25    0.91
  -5 -17  11    1.57    1.10
 -17   5 -11    0.69    0.83
  -4 -17   0    0.67    1.77
  -4 -17   0   -0.85    1.72
  -4 -17  -1  119.32    5.64
  -4 -17   1  119.11    5.60
  -4 -17   1  113.81    5.55
  -4 -17  -1  110.96    5.53
  -4 -17   1  102.46    5.39
  -4 -17   1  117.29    5.71
  -4 -17  -1  108.77    5.34
  -4 -17  -1  114.56    5.46
  -4 -17   2  104.79    5.39
  -4 -17  -2  112.16    5.45
  -4 -17   2  104.92    5.50
  -4 -17   2  117.90    5.48
  -4 -17  -2  109.90    5.50
  -4 -17  -2  128.65    5.59
  -4 -17   2  116.88    5.73
  -4 -17  -2  106.31    5.23
  -4 -17  -3    9.97    1.89
  -4 -17   3   10.80    1.81
  -4 -17  -3   14.84    2.06
  -4 -17  -3   10.46    1.93
  -4 -17   3    9.14    1.86
  -4 -17   3   12.74    2.35
  -4 -17  -3   10.96    1.67
  -4 -17   3   10.60    1.83
  -4 -17  -4   54.97    3.29
  -4 -17  -4   56.64    3.51
  -4 -17   4   67.05    4.05
  -4 -17   4   64.26    3.70
  -4 -17  -4   61.16    3.57
  -4 -17   4   58.42    3.55
  -4 -17  -4   61.52    3.47
  -4 -17  -5  106.52    5.54
  -4 -17   5  124.00    5.92
  -4 -17   5  116.40    5.50
  -4 -17  -5  120.05    5.57
  -4 -17  -5  113.95    5.69
  -4 -17  -6   21.79    2.12
  -4 -17  -6   16.31    1.99
  -4 -17   6   18.52    2.34
  -4 -17   7    0.40    1.88
  -4 -17  -7   -1.44    1.40
  -4 -17  -7    2.52    1.34
  -4 -17   7    0.24    1.64
  -4 -17  -8   11.10    1.69
  -4 -17   8   11.37    1.97
  -4 -17   8   15.54    2.14
  -4 -17   9    7.38    1.75
  -4 -17   9    8.68    1.78
  -4 -17  -9    8.86    1.49
 -17   4  -9    8.20    1.85
  -4 -17  10    0.10    1.31
 -17   4 -10    1.71    1.21
  -4 -17 -10   -1.06    1.13
 -17   4 -11    2.34    1.18
 -17   4 -11    1.64    0.92
  -4 -17  11    0.10    0.97
  -4 -17  11    0.51    1.17
  -4 -17  12    0.52    0.81
 -17   4 -12    1.30    0.80
  -3 -17   0  143.83    6.91
  -3 -17   0  156.19    6.89
  -3 -17   1   13.52    2.03
  -3 -17   1   14.60    2.11
  -3 -17  -1   10.99    2.17
  -3 -17   1   12.70    2.02
  -3 -17  -1   13.06    2.02
  -3 -17   1   16.11    2.20
  -3 -17  -1   14.30    1.91
  -3 -17   1   17.60    2.25
  -3 -17  -1   10.92    2.13
  -3 -17   2   25.20    2.61
  -3 -17  -2   29.94    2.62
  -3 -17   2   33.93    2.78
  -3 -17  -2   27.23    2.65
  -3 -17   2   24.50    2.69
  -3 -17   2   31.64    2.76
  -3 -17  -2   23.50    2.68
  -3 -17  -2   24.33    2.38
  -3 -17  -3   16.33    2.07
  -3 -17   3   15.55    2.37
  -3 -17   3   15.73    2.13
  -3 -17  -3   14.56    2.19
  -3 -17   3   19.16    2.20
  -3 -17  -3   13.36    2.08
  -3 -17  -3   15.24    1.81
  -3 -17  -4  128.54    5.98
  -3 -17  -4  130.51    6.02
  -3 -17   4  140.96    6.55
  -3 -17   4  127.50    6.23
  -3 -17   4  135.35    6.37
  -3 -17  -4  134.04    6.26
  -3 -17  -4  136.81    6.20
  -3 -17   4  128.43    6.05
  -3 -17  -5   92.72    4.85
  -3 -17   5   94.00    5.10
  -3 -17   5   95.36    4.84
  -3 -17  -5  109.00    5.06
  -3 -17  -5  100.22    5.08
  -3 -17  -6    2.39    1.38
  -3 -17   6    1.84    1.67
  -3 -17  -6   -0.60    1.36
  -3 -17   7   12.07    2.04
  -3 -17   7   14.41    2.23
  -3 -17  -7   11.99    1.74
  -3 -17   8    3.08    1.63
  -3 -17   8    3.08    1.78
  -3 -17  -8    1.61    1.32
 -17   3  -9    6.48    1.69
  -3 -17   9    3.90    1.58
  -3 -17  -9    3.45    1.30
  -3 -17   9    7.03    1.72
 -17   3 -10    0.28    1.22
  -3 -17  10    0.98    1.28
  -3 -17 -10    0.15    1.10
 -17   3 -11    3.39    1.20
 -17   3 -11    0.36    0.94
  -3 -17  11   -0.17    0.99
  -3 -17  11    1.05    1.16
  -3 -17  12    2.12    0.89
 -17   3 -12    0.84    0.82
  -2 -17   0   -0.83    1.83
  -2 -17   0    1.30    1.83
  -2 -17   0    0.96    1.66
  -2 -17   1    3.40    1.80
  -2 -17   1    1.11    1.62
  -2 -17  -1    1.52    1.85
  -2 -17   1    1.22    1.88
  -2 -17  -1    1.62    1.80
  -2 -17   1    1.63    1.95
  -2 -17  -1    1.68    1.58
  -2 -17   2  227.14    9.60
  -2 -17  -2  229.01    9.58
  -2 -17   2  214.28    9.50
  -2 -17   2  219.86    9.60
  -2 -17  -2  248.12    9.70
  -2 -17   2  227.42    9.50
  -2 -17  -2  223.68    9.59
  -2 -17  -2  209.20    9.24
  -2 -17   3    4.55    1.61
  -2 -17  -3    2.09    1.77
  -2 -17  -3    3.55    1.51
  -2 -17   3    1.09    1.97
  -2 -17  -3    2.69    1.80
  -2 -17   3    1.87    1.72
  -2 -17  -3    1.97    1.42
  -2 -17  -3    1.79    1.62
  -2 -17  -4  109.03    5.21
  -2 -17  -4   99.03    4.85
  -2 -17   4  103.70    5.30
  -2 -17   4  105.87    5.33
  -2 -17   4   97.89    5.13
  -2 -17  -4   94.02    4.85
  -2 -17   4  102.88    5.09
  -2 -17  -4  110.36    5.15
  -2 -17  -5   21.33    1.98
  -2 -17   5   24.36    2.37
  -2 -17   5   22.88    2.60
  -2 -17  -5   23.86    2.22
  -2 -17  -5   17.86    2.01
  -2 -17   5   25.80    2.52
  -2 -17  -5   24.99    2.19
  -2 -17   5   21.44    2.07
  -2 -17   6    4.68    1.67
  -2 -17  -6    4.41    1.50
  -2 -17  -6    6.53    1.49
  -2 -17  -7   12.83    1.74
  -2 -17   7   12.71    1.93
  -2 -17   7   10.90    2.12
  -2 -17   8    1.83    1.72
 -17   2  -8    1.66    1.69
  -2 -17  -8   -1.01    1.21
  -2 -17   9   -1.03    1.41
  -2 -17   9    0.46    1.56
  -2 -17  -9   -1.43    1.24
 -17   2  -9    2.92    1.50
  -2 -17  10    0.69    1.33
 -17   2 -10    1.01    1.26
 -17   2 -11    1.61    1.22
  -2 -17  11    0.30    1.15
  -2 -17  11    1.99    1.02
 -17   2 -11    0.19    0.90
 -17   2 -12    0.72    0.87
  -2 -17  12   -0.48    0.89
  -1 -17   0  162.96    7.63
  -1 -17   0  170.04    7.52
 -17   1   0  156.51    7.25
  -1 -17   0  183.24    7.68
  -1 -17   1  801.77   32.50
  -1 -17  -1  942.55   32.78
  -1 -17   1  854.46   32.72
  -1 -17  -1  856.80   32.79
  -1 -17   1  822.30   32.60
  -1 -17  -1  861.61   32.48
  -1 -17  -2   28.53    2.38
  -1 -17   2   29.36    2.60
  -1 -17  -2   29.75    2.68
  -1 -17   2   28.95    2.68
  -1 -17  -2   29.05    2.71
  -1 -17  -2   29.80    2.50
  -1 -17   2   26.38    2.68
  -1 -17  -3    7.13    1.64
  -1 -17   3    7.62    1.75
  -1 -17  -3    7.93    1.88
  -1 -17   3    7.86    1.81
  -1 -17  -3    9.94    1.90
  -1 -17  -3    6.21    1.52
  -1 -17   3    8.18    1.98
  -1 -17  -3    4.91    1.60
  -1 -17  -4    5.88    1.62
  -1 -17   4    6.39    1.69
  -1 -17  -4    5.61    1.58
  -1 -17   4    5.45    1.64
  -1 -17   4    4.52    1.70
  -1 -17  -4    6.13    1.66
  -1 -17  -4    6.23    1.51
  -1 -17   4    5.69    1.93
  -1 -17  -5   35.15    2.61
  -1 -17  -5   28.24    2.20
  -1 -17   5   32.91    2.85
  -1 -17  -5   27.74    2.39
  -1 -17   5   32.98    2.41
  -1 -17  -5   30.33    2.44
  -1 -17   6    1.99    1.83
  -1 -17  -6    3.86    1.34
  -1 -17  -6    2.66    1.36
  -1 -17  -7    1.86    1.26
  -1 -17  -7   -0.46    1.25
  -1 -17   7    2.16    1.81
  -1 -17   7    1.18    1.53
 -17   1  -7    2.35    1.72
  -1 -17   8    8.43    1.95
  -1 -17   8    9.75    1.81
 -17   1  -8    9.95    2.05
  -1 -17   9    1.31    1.60
 -17   1  -9    3.34    1.55
  -1 -17   9    0.48    1.44
  -1 -17  10    0.22    1.37
 -17   1 -10    1.24    1.19
 -17   1 -10    0.13    1.44
  -1 -17  11    4.79    1.16
  -1 -17  11    3.69    1.33
 -17   1 -11    4.32    1.34
  -1 -17  12    2.57    0.96
 -17   1 -12    2.41    0.93
   0 -17   0    2.41    1.88
   0 -17   0    3.11    1.84
   0 -17   0    4.12    1.57
 -17   0   0   -0.20    1.44
   0 -17   1    9.58    2.00
   0 -17  -1    9.35    2.01
   0 -17   1    7.41    1.86
   0 -17   1    7.61    2.03
   0 -17  -1    8.22    2.09
   0 -17   1    7.79    1.70
 -17   0  -1    6.69    1.68
   0 -17  -2   13.56    1.97
   0 -17   2   13.31    1.91
   0 -17  -2   15.33    2.09
   0 -17   2   11.57    2.07
 -17   0  -2   10.63    1.90
   0 -17   2    9.03    1.89
   0 -17  -3  141.70    6.51
   0 -17   3  149.06    6.84
   0 -17   3  138.93    6.64
   0 -17  -3  153.46    6.78
   0 -17   3  141.79    6.60
   0 -17  -3  141.05    6.46
   0 -17  -3  166.41    6.90
   0 -17   4   -0.16    1.61
   0 -17  -4    0.72    1.48
   0 -17  -4    3.19    1.25
   0 -17  -4    0.30    1.53
   0 -17   4   -0.21    1.51
   0 -17  -4   -0.95    1.53
   0 -17   4   -1.13    1.49
   0 -17  -5    0.67    1.37
   0 -17  -5   -1.63    1.59
   0 -17   5    0.07    1.47
   0 -17  -5    2.01    1.43
   0 -17   5    4.25    1.55
   0 -17  -5    2.09    1.31
   0 -17  -6   19.76    2.00
 -17   0  -6   18.69    2.62
   0 -17   6   22.21    2.40
   0 -17   6   18.08    2.06
 -17   0  -7   29.07    2.76
   0 -17   7   19.45    2.37
   0 -17   7   29.25    2.56
   0 -17  -7   19.48    2.14
   0 -17   7   27.68    2.59
   0 -17   8    9.58    1.92
 -17   0  -8    7.11    1.85
   0 -17   9    5.26    1.72
 -17   0  -9    6.19    1.73
   0 -17   9    4.25    1.55
   0 -17  10    5.54    1.55
 -17   0 -10    4.19    1.40
 -17   0 -10    4.27    1.70
   0 -17  11    8.30    1.49
 -17   0 -11   10.45    1.61
 -17   0 -12   -0.67    0.90
   0 -17  12   -1.35    0.95
 -17  -1   0   17.87    1.96
   1 -17   0   16.77    2.28
   1 -17   0   18.60    2.25
   1 -17   0   15.85    1.91
   1 -17   1    3.42    1.57
   1 -17  -1    0.08    1.73
   1 -17   1    1.88    1.62
   1 -17  -1    5.85    1.71
   1 -17   1    1.82    1.51
 -17  -1  -1    2.94    1.49
   1 -17   2    3.49    1.75
   1 -17  -2    1.81    1.81
 -17  -1  -2    1.07    1.59
   1 -17  -2    1.57    1.46
   1 -17   2    2.93    1.52
   1 -17  -3  177.96    7.27
   1 -17  -3  150.91    6.87
   1 -17   3  161.08    7.23
 -17  -1  -3  159.59    7.32
   1 -17   3  154.47    7.13
   1 -17   3  162.00    7.14
   1 -17  -3  157.35    7.24
   1 -17  -3  155.63    7.03
   1 -17  -4  180.40    7.63
   1 -17   4  176.16    7.64
   1 -17  -4  154.14    7.27
   1 -17   4  179.77    7.76
   1 -17   4  159.60    7.52
 -17  -1  -4  181.48    7.91
   1 -17  -4  181.89    7.70
   1 -17   4  175.95    7.53
   1 -17  -4  172.87    7.63
   1 -17  -5   16.90    2.00
   1 -17   5   18.75    2.16
   1 -17   5   19.12    1.90
   1 -17  -5   22.27    2.11
   1 -17   5   22.10    2.34
   1 -17  -6    3.28    1.58
 -17  -1  -6    3.78    1.93
   1 -17   6    3.39    1.77
   1 -17   6    3.83    1.69
   1 -17  -7    4.73    1.54
 -17  -1  -7    6.54    1.97
   1 -17   7    5.11    1.76
   1 -17   7    4.99    1.66
 -17  -1  -8    9.32    1.97
   1 -17   8   15.58    2.12
   1 -17   8   11.21    1.97
   1 -17   8   13.36    1.96
 -17  -1  -9    5.50    1.93
   1 -17   9    4.69    1.79
 -17  -1  -9    5.30    1.70
 -17  -1 -10   27.12    2.34
 -17  -1 -10   26.10    2.59
   1 -17  10   24.98    2.37
 -17  -1 -11    0.36    1.26
   1 -17  11    1.15    1.14
 -17  -1 -12    6.62    1.13
   1 -17  12    5.60    1.15
 -17  -2   0    1.36    1.39
   2 -17   0    1.31    1.40
   2 -17   0    2.25    1.75
   2 -17   1   61.20    3.58
   2 -17  -1   65.59    3.70
 -17  -2  -1   62.52    3.49
   2 -17   1   57.28    3.42
   2 -17   2    0.57    1.63
   2 -17  -2   -0.07    1.34
 -17  -2  -2    1.28    1.59
   2 -17   2    0.75    1.58
   2 -17  -2   -0.57    1.74
   2 -17   2    2.88    1.45
   2 -17   3    5.81    1.68
   2 -17  -3    4.52    1.84
   2 -17   3    7.10    1.97
   2 -17   3    6.38    1.62
   2 -17  -3    4.52    1.83
 -17  -2  -3    6.57    1.79
   2 -17  -3    6.26    1.49
   2 -17   4   85.88    4.50
   2 -17   4   75.40    4.26
 -17  -2  -4   78.20    4.62
   2 -17  -4   80.89    4.34
   2 -17   4   87.61    4.41
   2 -17   4   78.71    4.27
   2 -17  -4   90.01    4.45
   2 -17  -5  107.02    5.23
   2 -17   5   94.09    5.20
   2 -17   5  102.29    5.08
   2 -17  -5  111.67    5.22
   2 -17   5  112.36    5.42
   2 -17  -6   -1.95    1.53
   2 -17   6    1.85    1.66
   2 -17   6    1.21    1.78
   2 -17   6    1.22    1.65
 -17  -2  -6    1.14    1.66
   2 -17  -7   31.66    2.79
 -17  -2  -7   40.31    3.20
 -17  -2  -7   39.56    3.09
   2 -17   7   43.26    3.04
   2 -17   7   39.59    2.94
   2 -17   8    1.89    1.56
   2 -17   8    6.45    1.67
 -17  -2  -8    2.45    1.68
 -17  -2  -9   40.35    2.92
   2 -17   9   34.36    2.78
   2 -17   9   40.11    2.93
 -17  -2  -9   40.13    3.16
   2 -17  10    1.91    1.46
   2 -17  10    0.81    1.41
 -17  -2 -10    0.85    1.20
 -17  -2 -10   -0.65    1.49
 -17  -2 -11   13.74    1.67
   2 -17  11    7.55    1.38
 -17  -2 -12    3.28    1.06
   2 -17  12    3.70    1.09
   3 -17   0  687.07   27.39
 -17  -3   0  727.44   27.24
   3 -17   0  714.40   27.23
   3 -17  -1   20.30    2.35
   3 -17   1   20.82    2.24
 -17  -3  -1   23.35    2.23
   3 -17   1   20.72    2.10
 -17  -3  -2  159.64    7.20
   3 -17   2  159.94    7.11
   3 -17   2  161.92    7.19
   3 -17  -2  162.24    7.30
   3 -17   2  163.61    7.13
   3 -17  -3   -0.63    1.70
   3 -17   3    1.10    1.52
   3 -17  -3    0.08    1.59
   3 -17   3    0.15    1.44
   3 -17   3   -0.59    1.60
 -17  -3  -3    1.98    1.55
 -17  -3  -3    1.89    1.44
   3 -17   4   11.01    1.75
   3 -17  -4   15.14    1.97
   3 -17  -4   11.92    1.91
 -17  -3  -4   12.24    1.95
   3 -17   4   12.05    1.88
   3 -17   4   12.73    2.03
   3 -17   4   10.35    1.71
 -17  -3  -4   13.88    2.13
   3 -17   5    0.75    1.51
   3 -17   5    1.89    1.74
   3 -17  -5    3.94    1.73
 -17  -3  -5    1.84    1.68
   3 -17   5    3.79    1.40
   3 -17  -5    0.97    1.55
 -17  -3  -6   32.75    3.04
   3 -17   6   36.21    2.89
   3 -17   6   36.36    2.78
 -17  -3  -6   34.05    2.92
   3 -17   6   37.11    2.88
   3 -17  -6   31.72    2.75
 -17  -3  -7    7.70    1.99
 -17  -3  -7    5.87    1.96
   3 -17   7    7.28    1.82
   3 -17   7    7.77    1.87
   3 -17  -7    5.69    1.81
 -17  -3  -8   65.83    4.07
   3 -17   8   66.90    3.99
   3 -17   8   65.03    3.96
   3 -17   8   76.00    4.10
 -17  -3  -9    5.34    1.85
   3 -17   9    5.12    1.77
 -17  -3  -9    6.45    1.65
   3 -17   9    5.88    1.70
   3 -17  10    1.99    1.39
 -17  -3 -10    2.77    1.50
   3 -17  10    3.50    1.44
 -17  -3 -10    0.26    1.20
 -17  -3 -11    2.48    1.18
   3 -17  11   -0.31    1.12
   3 -17  12    1.30    0.93
 -17  -3 -12    2.45    0.86
   4 -17   0    8.78    2.07
 -17  -4   0    8.96    1.74
 -17  -4  -1  623.54   24.03
   4 -17   1  621.39   24.16
   4 -17  -1  625.88   24.21
   4 -17   2    1.91    1.63
 -17  -4  -2    2.83    1.58
 -17  -4  -2    3.18    1.46
   4 -17   2    3.25    1.51
   4 -17  -2    4.76    1.77
   4 -17  -3  100.17    4.98
 -17  -4  -3   99.56    5.04
   4 -17   3   96.41    4.92
   4 -17   3   96.36    4.82
   4 -17  -3  104.99    5.01
 -17  -4  -3  100.26    4.87
   4 -17   4   13.77    1.94
 -17  -4  -4   12.50    1.96
   4 -17   4   16.07    2.08
   4 -17   4   13.69    1.86
   4 -17  -4   14.75    1.93
 -17  -4  -4    9.32    2.01
   4 -17  -4   14.15    2.03
   4 -17   5   63.10    3.65
 -17  -4  -5   54.93    3.76
   4 -17  -5   62.67    3.68
 -17  -4  -5   59.91    3.80
   4 -17   5   53.61    3.46
   4 -17   5   64.04    3.71
   4 -17   5   53.38    3.33
   4 -17  -5   63.33    3.44
   4 -17  -6   11.47    2.01
 -17  -4  -6   11.99    2.15
   4 -17   6   14.33    1.99
   4 -17   6   13.94    2.14
 -17  -4  -6   14.14    2.18
   4 -17   6   11.31    1.96
   4 -17  -7    4.43    1.61
 -17  -4  -7    3.71    1.89
   4 -17   7    5.93    1.73
 -17  -4  -7    5.10    1.78
   4 -17   7    4.17    1.67
   4 -17   8    0.21    1.57
   4 -17   8   -0.55    1.71
 -17  -4  -8    2.44    1.56
   4 -17   8    0.76    1.53
   4 -17   9    3.47    1.48
 -17  -4  -9    2.08    1.63
 -17  -4  -9    0.31    1.34
   4 -17   9    2.19    1.35
 -17  -4 -10    1.33    1.37
   4 -17  10    0.62    1.37
 -17  -4 -10    2.32    1.15
   4 -17  10    3.42    1.38
   4 -17  11    3.73    1.11
 -17  -4 -11    1.98    1.19
   4 -17  12   -0.19    0.85
   5 -17   0  514.65   20.69
 -17  -5   0  539.49   20.57
   5 -17   1   41.56    2.98
   5 -17  -1   41.29    3.00
 -17  -5  -1   43.59    2.89
 -17  -5   1   44.31    2.81
 -17  -5  -2  265.89   10.72
   5 -17   2  245.83   10.55
   5 -17   2  253.78   10.75
   5 -17  -2  265.99   10.86
 -17  -5  -2  264.39   10.64
 -17  -5  -3   20.16    2.21
   5 -17  -3   21.86    2.23
   5 -17   3   22.53    2.12
 -17  -5  -3   19.16    2.06
   5 -17   3   19.48    2.17
 -17  -5  -4  108.23    5.30
   5 -17  -4  105.86    5.36
   5 -17   4  112.72    5.36
   5 -17   4   99.25    5.12
   5 -17  -4  116.81    5.31
   5 -17   5    2.36    1.55
   5 -17  -5   -0.32    1.60
 -17  -5  -5    0.16    1.50
   5 -17  -5    3.45    1.45
   5 -17   5    0.60    1.33
   5 -17   5   -0.37    1.66
 -17  -5  -5    1.07    1.62
   5 -17   5    1.47    1.38
   5 -17  -6    9.98    1.95
 -17  -5  -6    8.07    1.85
   5 -17   6    8.47    1.80
   5 -17   6   12.92    2.00
 -17  -5  -6    5.47    1.85
   5 -17   6    8.77    1.75
   5 -17  -7    5.98    1.64
 -17  -5  -7    5.07    1.85
   5 -17   7    2.84    1.53
 -17  -5  -7    1.97    1.63
   5 -17   7    1.18    1.61
 -17  -5  -8   16.39    1.98
   5 -17   8   14.44    2.07
   5 -17   8   13.10    1.87
   5 -17   8   12.57    1.97
   5 -17   9    3.44    1.54
 -17  -5  -9    4.03    1.67
   5 -17   9    4.14    1.62
 -17  -5  -9    1.88    1.37
   5 -17   9    1.87    1.33
 -17  -5 -10   -0.34    1.36
   5 -17  10    1.44    1.32
 -17  -5 -10    0.49    1.05
   5 -17  10    0.22    1.31
 -17  -5 -11    3.87    1.14
   5 -17  11    1.84    1.11
   6 -17   0    3.66    1.78
 -17  -6   0    1.14    1.55
   6 -17   1  186.66    8.50
   6 -17  -1  188.84    8.53
 -17  -6   1  211.22    8.35
 -17  -6  -1  196.58    8.41
   6 -17  -2  136.28    6.27
 -17  -6  -2  141.38    6.14
 -17  -6  -2  138.02    6.26
   6 -17   2  134.16    6.21
   6 -17  -2  136.36    6.29
   6 -17   2  126.99    6.04
   6 -17  -3   16.81    2.09
 -17  -6  -3   22.77    2.13
 -17  -6  -3   21.64    2.11
   6 -17   3   20.28    2.11
   6 -17  -3   21.75    2.16
   6 -17   3   22.72    2.20
   6 -17   4    1.72    1.46
   6 -17  -4    0.80    1.34
   6 -17   4    1.81    1.70
 -17  -6   4    2.10    2.14
 -17  -6  -4    0.61    1.50
   6 -17   5   23.62    2.33
   6 -17   5   24.95    2.26
 -17  -6   5   20.72    2.47
 -17  -6  -5   23.70    2.38
 -17  -6  -5   26.39    2.44
   6 -17   5   24.20    2.14
   6 -17  -5   26.63    2.15
   6 -17   5   25.51    2.39
 -17  -6  -6   26.71    2.65
   6 -17  -6   28.23    2.61
 -17  -6  -6   30.53    2.52
 -17  -6   6   27.19    2.50
   6 -17   6   25.82    2.34
   6 -17   6   30.60    2.55
   6 -17   6   28.20    2.58
   6 -17  -7    8.07    1.81
 -17  -6  -7    9.86    1.96
 -17  -6  -7    9.14    1.81
   6 -17   7    9.12    1.73
   6 -17   7   10.54    1.82
   6 -17   8    1.15    1.45
   6 -17   8    0.07    1.67
 -17  -6  -8    0.46    1.40
   6 -17   8   -0.13    1.42
   6 -17   9    3.00    1.45
 -17  -6  -9    5.43    1.55
   6 -17   9    2.83    1.55
 -17  -6  -9    2.26    1.30
   6 -17   9    3.84    1.28
 -17  -6 -10    1.65    1.31
   6 -17  10    1.09    1.26
 -17  -6 -10    2.13    1.01
   6 -17  10   -0.47    1.21
   6 -17  11   -0.07    0.99
 -17  -6 -11    0.43    0.99
 -17  -7   0  179.87    7.76
 -17  -7   1    8.34    1.61
 -17  -7  -1    9.81    1.71
   7 -17  -2   17.15    2.06
 -17  -7  -2   17.92    1.83
   7 -17   2   17.63    1.93
 -17  -7  -2   15.29    1.93
 -17  -7  -3   11.80    1.83
   7 -17   3   10.71    1.81
   7 -17   3   13.47    1.88
   7 -17  -3   10.26    1.83
   7 -17  -3   11.79    1.93
 -17  -7  -3   12.91    1.76
   7 -17   4    6.12    1.78
   7 -17  -4    8.98    1.86
   7 -17   4    9.26    1.72
   7 -17  -4    9.69    1.71
 -17  -7   4   10.79    2.22
 -17  -7  -4    7.33    1.67
 -17  -7  -5   77.21    4.30
   7 -17  -5   78.71    4.34
 -17  -7  -5   83.49    4.43
 -17  -7   5   82.79    4.40
   7 -17   5   75.70    4.15
   7 -17   5   70.13    4.05
   7 -17  -5   82.66    4.08
   7 -17   5   81.88    4.26
 -17  -7   6   10.36    2.02
 -17  -7  -6   13.75    2.00
   7 -17   6   13.80    2.04
 -17  -7  -6   12.55    2.04
   7 -17   6   17.12    2.05
   7 -17   6   13.64    1.88
 -17  -7  -7    2.31    1.51
   7 -17   7    2.97    1.54
   7 -17   7    1.94    1.43
 -17  -7   7    2.83    1.58
 -17  -7  -7    3.33    1.65
   7 -17   8    8.04    1.78
 -17  -7  -8    6.53    1.55
   7 -17   8    7.39    1.59
   7 -17   8    7.05    1.57
   7 -17   9    2.27    1.36
 -17  -7  -9   -0.85    1.34
   7 -17   9   -0.20    1.20
   7 -17   9    1.71    1.44
 -17  -7  -9    0.05    1.13
 -17  -7 -10   11.41    1.56
   7 -17  10   10.05    1.57
 -17  -7 -11    0.10    0.94
   7 -17  11   -0.06    0.91
   7 -17  11   -0.93    1.02
 -17  -8   0    2.00    1.59
   8 -17  -1  102.63    5.09
 -17  -8   1  101.62    4.89
 -17  -8  -1   99.47    4.91
   8 -17  -2   53.77    3.37
 -17  -8  -2   51.57    3.20
 -17  -8  -2   49.15    3.02
   8 -17   2   50.58    3.10
   8 -17  -3  138.04    6.42
 -17  -8   3  140.31    6.58
 -17  -8  -3  144.80    6.42
   8 -17  -3  136.70    6.30
 -17  -8  -3  130.65    6.16
   8 -17   3  134.72    6.25
   8 -17  -4   66.76    3.71
   8 -17   4   58.75    3.60
   8 -17   4   55.42    3.49
   8 -17  -4   62.42    3.46
 -17  -8   4   59.74    3.82
 -17  -8  -4   63.81    3.56
 -17  -8  -5   13.53    1.91
   8 -17   5   10.22    1.73
   8 -17  -5    9.54    1.74
 -17  -8  -5   12.31    1.93
 -17  -8   5   15.77    2.20
   8 -17  -5   11.87    1.91
   8 -17   5   11.99    2.03
   8 -17   6    4.92    1.72
 -17  -8  -6    4.27    1.61
 -17  -8   6    4.02    1.76
   8 -17  -6    4.99    1.69
 -17  -8  -6    2.47    1.57
   8 -17   6    4.83    1.64
 -17  -8  -7   21.39    2.21
   8 -17   7   18.04    2.03
 -17  -8  -7   13.11    1.86
   8 -17   7   16.63    2.01
 -17  -8   7   15.83    1.99
 -17  -8   8   11.57    1.69
   8 -17   8   10.15    1.86
   8 -17   8   11.34    1.70
 -17  -8  -8   10.98    1.68
   8 -17   8   12.42    1.66
 -17  -8  -9    2.50    1.28
   8 -17   9    0.43    1.12
   8 -17   9    1.86    1.29
 -17  -8  -9    0.46    1.12
   8 -17   9    3.85    1.37
   8 -17  10   -0.91    1.13
 -17  -8 -10   -0.13    1.11
   8 -17  10   -0.95    1.18
 -17  -8 -11    1.12    0.84
   8 -17  11    2.72    0.92
 -17  -9   0  791.85   30.27
   9 -17  -1   51.07    3.50
 -17  -9   1   51.27    3.08
 -17  -9  -1   52.78    3.30
   9 -17  -2  163.71    7.06
 -17  -9  -2  150.80    6.59
 -17  -9  -2  157.04    6.86
   9 -17  -3   16.37    2.17
   9 -17   3   18.37    2.03
 -17  -9  -3   16.11    2.01
 -17  -9  -3   16.39    1.80
 -17  -9   3   16.11    2.49
   9 -17   4    0.98    1.42
   9 -17  -4    1.76    1.55
 -17  -9  -4    3.18    1.48
 -17  -9   4    3.87    1.93
   9 -17  -4    1.11    1.66
   9 -17   4    1.81    1.58
   9 -17   5    1.34    1.55
 -17  -9  -5    0.43    1.46
 -17  -9   5    1.43    1.75
   9 -17   5    2.39    1.39
   9 -17  -5    0.63    1.34
   9 -17  -5    3.02    1.56
 -17  -9  -5    0.81    1.45
 -17  -9  -6   19.26    2.08
   9 -17  -6   14.58    2.08
   9 -17   6   16.94    2.13
 -17  -9   6   19.95    2.17
   9 -17   6   20.39    2.10
 -17  -9  -6   18.43    2.01
 -17  -9  -7    2.22    1.50
 -17  -9   7    2.30    1.55
   9 -17   7    4.36    1.46
   9 -17   7    2.43    1.40
   9 -17   7    2.68    1.62
 -17  -9  -7    3.29    1.37
 -17  -9   8    1.53    1.38
   9 -17   8    2.94    1.28
 -17  -9  -8    0.48    1.20
   9 -17   8   -0.06    1.38
 -17  -9  -9    7.29    1.41
 -17  -9  -9    6.45    1.24
   9 -17   9    7.55    1.42
   9 -17   9    4.24    1.21
   9 -17   9    6.40    1.51
   9 -17  10    0.07    1.06
   9 -17  10    0.53    1.03
 -17  -9 -10   -0.71    0.99
 -17 -10   0    2.44    1.43
  10 -17   0    0.92    1.77
 -17 -10  -1  110.29    5.40
 -17 -10   1  113.66    5.36
  10 -17  -1  126.45    5.83
 -17 -10  -2    1.22    1.29
  10 -17  -2    1.03    1.73
  10 -17   2    2.10    1.45
 -17 -10  -2    2.81    1.56
 -17 -10   2    0.48    1.25
 -17 -10  -3    7.35    1.51
  10 -17  -3    9.48    2.00
 -17 -10  -3    6.41    1.59
  10 -17   3    5.58    1.62
 -17 -10   4    3.02    6.57
  10 -17  -4   -0.32    1.60
 -17 -10  -4    1.22    1.36
 -17 -10   4    2.89    1.87
  10 -17   4    3.56    1.47
  10 -17  -4    1.46    1.47
  10 -17   4    0.71    1.45
  10 -17  -5    0.66    1.44
 -17 -10  -5    1.43    1.42
 -17 -10   5    0.37    1.75
 -17 -10  -5    0.28    1.35
  10 -17   5   -0.06    1.32
  10 -17   5    0.58    1.43
  10 -17   6    0.69    1.50
 -17 -10  -6    0.60    1.45
 -17 -10   6    1.26    1.61
 -17 -10  -6    0.32    1.39
  10 -17  -6    0.14    1.41
 -17 -10   7    2.50    1.49
  10 -17   7    4.60    1.59
 -17 -10  -7    2.98    1.32
  10 -17   7   -1.31    1.39
  10 -17   7    1.57    1.30
 -17 -10  -8    7.72    1.62
 -17 -10   8    8.16    1.59
  10 -17   8   11.05    1.52
 -17 -10  -8    9.83    1.38
  10 -17   8   11.07    1.58
  10 -17   9    1.16    1.14
  10 -17   9   -0.49    1.25
 -17 -10  -9    0.86    1.10
 -17 -10  -9    1.11    0.90
  10 -17   9    1.01    0.94
 -17 -10 -10    2.84    0.97
  10 -17  10    2.20    1.08
  10 -17  10    3.67    1.02
  11 -17   0  321.33   12.48
 -17 -11   0  281.83   11.97
  11 -17   1   21.09    2.43
  11 -17  -1   22.71    2.54
 -17 -11  -1   20.01    1.88
 -17 -11  -1   20.91    2.02
 -17 -11   1   21.21    1.94
  11 -17   2  106.66    5.23
 -17 -11  -2  117.92    5.32
 -17 -11  -2  122.31    5.51
 -17 -11   2  109.22    5.26
  11 -17   3   38.39    2.69
 -17 -11   3   44.30    7.68
 -17 -11  -3   50.24    2.93
  11 -17  -3   48.79    3.21
 -17 -11  -3   40.29    2.67
  11 -17  -4    8.74    1.80
 -17 -11   4    9.89    6.94
 -17 -11  -4    6.47    1.46
 -17 -11  -4    6.55    1.65
  11 -17   4    5.44    1.61
  11 -17  -4    8.86    1.68
  11 -17  -5    1.93    1.49
 -17 -11  -5    3.01    1.41
 -17 -11   5    1.27    1.71
 -17 -11  -5    0.39    1.41
  11 -17   5    0.63    1.27
  11 -17   5    3.26    1.50
  11 -17   6   10.32    1.72
 -17 -11  -6   11.42    1.66
 -17 -11   6   10.54    1.79
 -17 -11  -6    5.82    1.55
  11 -17   7    1.21    1.42
 -17 -11   7    1.82    1.42
  11 -17   7    0.55    1.25
 -17 -11  -7    2.60    1.15
 -17 -11  -8    0.54    1.12
 -17 -11   8   -0.96    1.35
  11 -17   8    1.22    1.06
 -17 -11  -8   -0.08    0.99
  11 -17   8   -0.24    1.17
  11 -17   9    1.60    1.02
  11 -17   9    0.93    1.14
 -17 -11  -9    1.25    0.78
 -17 -11  -9   -1.07    1.00
  11 -17   9    0.62    0.86
 -17 -11 -10    2.10    0.78
 -17 -12   0   -0.64    1.40
  12 -17   0    2.24    1.83
  12 -17   1   91.66    4.57
  12 -17  -1   98.52    4.74
 -17 -12   1   76.78    4.07
 -17 -12  -1   80.55    4.17
  12 -17  -2    1.70    1.76
 -17 -12  -2    3.91    1.51
 -17 -12   2    3.40    1.24
 -17 -12  -2    3.56    1.33
  12 -17   3   57.69    3.39
 -17 -12   3   76.96    8.14
  12 -17  -3   74.28    3.98
 -17 -12  -3   66.97    3.47
  12 -17  -4    3.01    1.59
 -17 -12   4    8.02    6.90
  12 -17   4    2.20    1.43
 -17 -12  -4    2.52    1.42
 -17 -12  -4    1.08    1.34
  12 -17   5   51.99    3.06
 -17 -12   5   42.93    6.56
 -17 -12  -5   54.39    3.12
  12 -17  -5   53.75    3.31
 -17 -12  -5   49.79    3.04
 -17 -12   5   55.69    3.39
  12 -17   6    3.70    1.44
 -17 -12  -6    2.08    1.32
 -17 -12  -6   -1.03    1.33
 -17 -12   6    2.34    1.64
  12 -17   7    4.82    1.45
 -17 -12  -7    1.84    1.14
 -17 -12   7    2.53    1.46
  12 -17   7    2.31    1.20
 -17 -12  -8    0.30    1.02
 -17 -12  -8    0.64    0.87
  12 -17   8    0.12    1.00
  12 -17   9    1.16    1.01
 -17 -12  -9    1.48    0.85
 -17 -13   0   45.22    2.76
 -17 -13   1   34.67    2.36
 -17 -13  -1   33.73    2.42
 -17 -13  -2   33.82    2.43
 -17 -13  -2   31.34    2.22
  13 -17  -3   19.24    2.07
 -17 -13  -3   11.97    1.58
  13 -17   4   43.40    2.84
 -17 -13   4   63.82    7.25
 -17 -13  -4   60.23    3.10
 -17 -13   4   50.46    3.36
  13 -17  -4   56.84    3.33
 -17 -13  -4   47.73    2.89
 -17 -13  -5    3.40    1.35
  13 -17   5    5.03    1.41
 -17 -13  -5    2.74    1.29
  13 -17   6   41.10    2.80
 -17 -13  -6   52.94    2.76
 -17 -13  -6   42.47    2.71
 -17 -13   6   51.20    3.03
 -17 -13  -7    1.97    0.99
  13 -17   7    2.21    1.16
  13 -17   7    1.24    1.28
 -17 -13   7    0.62    1.44
  13 -17   8    3.23    1.01
 -17 -13  -8    4.65    0.89
 -17 -13  -9    1.48    0.75
 -17 -14   0    1.37    1.18
 -17 -14   1   22.53    1.84
 -17 -14  -1   25.82    1.97
 -17 -14  -2    8.18    1.50
 -17 -14  -3   14.57    1.52
 -17 -14  -4    7.71    1.37
  14 -17   4    3.20    1.34
  14 -17  -4    6.65    1.57
 -17 -14  -4    7.33    1.32
  14 -17   5    4.54    1.29
 -17 -14  -5    2.86    1.15
 -17 -14  -5    3.90    1.23
 -17 -14  -6    5.32    1.19
 -17 -14  -6    5.54    1.12
  14 -17   6    6.62    1.32
  14 -17   6    5.49    1.37
 -17 -14  -7   27.72    1.75
  14 -17   7   27.56    2.08
  14 -17   7   31.60    1.96
  14 -17   8    5.92    1.13
 -17 -14  -8    5.01    0.93
 -17 -15   0   58.60    3.04
 -17 -15   1    0.84    1.11
 -17 -15  -1    1.15    1.09
 -17 -15  -2   18.23    1.65
 -17 -15  -3    1.41    1.06
  15 -17   4   10.31    1.49
  15 -17  -4   14.42    1.69
 -17 -15  -4   11.34    1.35
 -17 -15  -4   15.13    1.47
 -17 -15  -5    0.66    1.00
 -17 -15  -5    0.16    1.00
  15 -17   6    0.57    0.99
 -17 -15  -6    0.64    0.95
 -17 -15  -6    0.58    0.85
  15 -17   6    0.87    1.07
 -17 -15  -7   -0.40    0.67
  15 -17   7    0.76    1.04
 -17 -16   0    2.23    1.08
 -17 -16  -1   31.97    2.02
 -17 -16  -2   -0.78    1.07
 -17 -16  -4    0.47    0.95
 -17 -16  -4    0.40    0.87
 -17 -16  -5    7.19    1.04
 -17 -16  -5    8.70    1.07
  16 -17   6    6.33    1.00
 -17 -16  -6    6.62    1.00
 -17 -16  -6    7.56    0.92
 -17 -17   0    3.09    0.95
 -17 -17  -1    7.01    1.10
 -17 -17  -2    4.68    1.04
 -17 -17  -4    3.87    0.82
 -17 -17  -4    2.90    0.89
 -17 -17  -5    8.23    0.92
  17 -17   5    7.15    1.08
 -17 -17  -5    8.65    0.94
 -17 -18   0    0.70    0.78
 -17 -18  -1    1.21    0.80
 -17 -18  -2    3.62    0.86
 -16 -18   0    0.92    0.91
 -16 -18  -1    1.84    0.95
 -16 -18  -3    6.86    1.03
 -16 -18  -4    7.17    1.00
 -16 -18  -4    7.92    0.97
 -16 -18  -5    0.88    0.71
 -16 -18  -5    0.27    0.71
 -15 -18   0    0.09    1.00
 -15 -18   1   29.64    1.90
 -15 -18  -1   28.89    1.92
 -15 -18  -2   18.48    1.47
 -15 -18   3   23.76    6.02
 -15 -18  -3   23.14    1.64
 -15 -18  -3   22.33    1.61
 -15 -18  -4    6.13    1.07
 -15 -18  -4    7.72    1.11
 -15 -18   5    3.92    4.72
 -15 -18  -5    2.31    0.90
 -15 -18  -5    2.07    0.85
  18 -15   6    0.46    0.92
 -14 -18   0   99.30    7.33
 -14 -18   0   99.43    4.49
 -14 -18  -1    1.64    1.10
 -14 -18   1   -2.03    6.49
 -14 -18   1    1.92    5.41
 -14 -18  -1    0.63    5.75
 -14 -18  -1    1.19    1.16
 -14 -18   1    1.03    1.17
 -14 -18   2  178.83    9.30
 -14 -18   2  166.31    7.02
 -14 -18   2  168.64    8.26
 -14 -18  -2  181.98    8.51
 -14 -18  -2  164.38    6.95
 -14 -18  -3    6.93    1.30
 -14 -18   3    7.07    5.48
 -14 -18  -3    8.50    1.29
 -14 -18  -4    0.59    1.04
 -14 -18  -4    2.92    1.10
 -14 -18  -5    8.55    1.17
 -14 -18   5    9.97    1.51
 -14 -18  -6    3.22    0.98
 -14 -18  -6    2.12    0.81
 -14 -18   6    1.34    1.14
 -14 -18   7    0.62    0.93
  18 -14   7    2.00    1.04
 -14 -18  -7    0.33    0.75
 -14 -18   7    2.89    3.28
 -13 -18   0    0.61    6.39
 -13 -18   0    0.13    6.40
 -13 -18   0    0.06    1.31
 -13 -18   0    1.48    1.21
 -13 -18   1   73.34    6.44
 -13 -18   1   69.08    7.06
 -13 -18  -1   75.02    7.30
 -13 -18   1   64.36    3.37
 -13 -18  -1   63.32    3.30
 -13 -18  -2    2.62    1.27
 -13 -18   2    3.25    5.94
 -13 -18  -2   -3.41    6.05
 -13 -18   2    8.45    4.47
 -13 -18  -2    2.36    1.23
 -13 -18   2    3.79    1.32
 -13 -18   3   34.00    3.96
 -13 -18   3   33.40    5.54
 -13 -18  -3   33.93    5.85
 -13 -18  -3   29.99    2.06
 -13 -18  -3   30.30    2.09
 -13 -18   4   17.64    1.91
 -13 -18  -4   20.14    1.69
 -13 -18  -4   20.83    1.77
 -13 -18   4   24.09    3.27
 -13 -18   5    6.49    1.48
 -13 -18  -5    6.87    1.18
 -13 -18  -5    7.13    1.19
 -13 -18   6    4.32    2.81
 -13 -18  -6    1.10    1.00
 -13 -18   6    2.72    1.22
 -13 -18  -6    1.02    0.90
 -13 -18  -6    1.48    0.96
 -13 -18   7    3.06    1.09
 -13 -18   7    2.04    3.09
 -13 -18  -7    4.07    0.95
 -13 -18  -7    3.84    0.92
 -13 -18  -8    1.10    0.70
 -13 -18   8    2.05    0.86
 -12 -18   0   14.38    4.82
 -12 -18   0   14.22    5.22
 -12 -18   0   12.73    1.68
 -12 -18   0   12.80    1.59
 -12 -18   1   33.20    4.02
 -12 -18   1   35.53    2.30
 -12 -18  -1   37.03    2.42
 -12 -18   1   36.15    5.36
 -12 -18  -1   37.73    5.41
 -12 -18   1   36.76    2.42
 -12 -18   2  120.03    7.18
 -12 -18  -2  119.09    7.42
 -12 -18   2  119.33    5.70
 -12 -18  -2  111.61    5.17
 -12 -18   2  116.71    5.23
 -12 -18  -2  110.30    5.18
 -12 -18   3   27.38    2.20
 -12 -18   3   24.97    5.84
 -12 -18  -3   24.91    5.99
 -12 -18   3   27.87    2.71
 -12 -18   3   27.12    2.10
 -12 -18  -3   26.85    2.08
 -12 -18  -3   28.51    2.13
 -12 -18   4   23.61    2.10
 -12 -18   4   16.54    5.33
 -12 -18  -4   22.61    5.46
 -12 -18   4   28.89    2.56
 -12 -18  -4   22.18    1.85
 -12 -18  -4   21.34    1.80
 -12 -18   5    2.66    1.38
 -12 -18  -5    0.86    1.13
 -12 -18  -5    1.27    1.07
 -12 -18  -5    2.02    1.12
 -12 -18  -6   17.93    1.64
 -12 -18   6   21.17    1.87
 -12 -18   6   19.84    2.15
 -12 -18  -6   18.80    1.55
 -12 -18  -6   18.26    1.66
 -12 -18   7    3.87    1.77
 -12 -18  -7    1.63    0.97
 -12 -18   7    0.87    1.09
 -12 -18  -7   -0.13    0.96
 -12 -18   8   11.05    2.39
 -12 -18  -8   11.22    1.16
 -12 -18   8   12.75    1.33
 -12 -18  -8    9.66    1.14
 -11 -18   0    2.42    3.12
 -11 -18   0    2.03    2.78
 -11 -18   0    2.02    1.46
 -11 -18   0    1.44    1.39
 -11 -18   1   68.10    4.07
 -11 -18   1   71.45    3.72
 -11 -18  -1   74.08    3.82
 -11 -18   1   77.44    3.93
 -11 -18  -1   84.84    4.71
 -11 -18   1   81.60    4.67
 -11 -18   2   14.49    3.39
 -11 -18  -2   15.06    3.46
 -11 -18  -2   11.22    1.64
 -11 -18   2   12.72    1.56
 -11 -18   2   11.06    2.04
 -11 -18  -2   11.81    1.68
 -11 -18   2    9.60    1.78
 -11 -18   3   27.36    4.32
 -11 -18  -3   24.97    4.26
 -11 -18  -3   23.94    2.07
 -11 -18   3   23.59    2.08
 -11 -18   3   27.80    2.54
 -11 -18  -3   25.52    2.06
 -11 -18   3   24.13    2.10
 -11 -18  -3   26.87    2.08
 -11 -18   4    5.20    1.57
 -11 -18   4    6.06    1.91
 -11 -18  -4    5.25    1.39
 -11 -18  -4    5.22    1.27
 -11 -18   4    1.63    4.68
 -11 -18  -5   38.89    2.57
 -11 -18   5   44.32    2.85
 -11 -18  -5   45.04    2.65
 -11 -18  -5   39.94    2.52
 -11 -18  -6    6.02    1.32
 -11 -18  -6    4.57    1.29
 -11 -18   6    6.29    1.72
 -11 -18   6    6.21    1.51
 -11 -18  -6    6.03    1.19
 -11 -18  -7   13.07    1.55
 -11 -18   7   15.34    1.72
 -11 -18   7   15.49    1.78
 -11 -18  -7   12.85    1.48
 -11 -18   8    0.34    1.06
 -11 -18   8    1.65    1.35
 -11 -18  -8    0.32    0.89
 -11 -18  -9    3.74    0.90
 -10 -18   0  225.73    9.61
 -10 -18   0  245.13    9.86
 -10 -18   0  224.12    9.50
 -10 -18   1    5.04    1.91
 -10 -18   1    3.86    1.42
 -10 -18  -1    3.81    1.53
 -10 -18   1    4.40    1.54
 -10 -18  -1    2.36    1.46
 -10 -18   1    3.27    1.96
 -10 -18  -1    4.70    1.92
 -10 -18   2   27.02    2.40
 -10 -18  -2   28.76    2.21
 -10 -18   2   34.39    2.67
 -10 -18   2   32.99    2.75
 -10 -18  -2   33.35    2.81
 -10 -18  -2   31.06    2.28
 -10 -18   2   26.57    2.17
 -10 -18  -2   26.51    2.27
 -10 -18   3    6.19    2.34
 -10 -18  -3   11.09    2.58
 -10 -18  -3    9.88    1.51
 -10 -18   3   10.25    2.08
 -10 -18   3    8.25    1.61
 -10 -18  -3    9.25    1.51
 -10 -18   3    7.01    1.59
 -10 -18  -4   43.56    2.74
 -10 -18   4   41.65    2.91
 -10 -18   4   45.27    4.00
 -10 -18  -4   45.26    4.06
 -10 -18  -4   43.43    2.76
 -10 -18  -4   42.54    2.67
 -10 -18   4   49.25    3.22
 -10 -18   5    3.40    4.34
 -10 -18  -5    7.02    1.53
 -10 -18  -5    7.76    1.55
 -10 -18   5   12.18    1.79
 -10 -18  -5   10.36    1.48
 -10 -18  -6    5.23    1.29
 -10 -18   6    9.81    1.82
 -10 -18  -6    5.96    1.37
 -10 -18   6    6.79    1.60
 -10 -18   7    8.17    1.69
 -10 -18   7    6.79    1.54
 -10 -18  -7    4.65    1.26
 -10 -18  -8   10.92    1.40
 -10 -18   8   15.61    1.64
 -10 -18   8   13.50    1.55
 -10 -18  -8   12.22    1.42
 -10 -18  -9    0.54    0.75
 -10 -18   9    0.18    1.15
 -10 -18  -9    0.59    0.81
  -9 -18   0    1.04    1.65
  -9 -18   0   -1.35    1.83
  -9 -18   0    1.08    1.39
  -9 -18   1   88.36    4.52
  -9 -18   1   93.96    4.49
  -9 -18  -1   81.56    4.35
  -9 -18   1   84.80    4.59
  -9 -18  -1   81.82    4.57
  -9 -18  -1   86.99    4.39
  -9 -18   1   86.47    4.36
  -9 -18  -2   13.64    1.90
  -9 -18   2   13.93    2.03
  -9 -18  -2   18.11    2.21
  -9 -18  -2   14.33    1.84
  -9 -18   2   14.73    1.76
  -9 -18   2   13.70    2.21
  -9 -18  -2   16.02    1.84
  -9 -18   2   12.57    2.00
  -9 -18   3   99.89    4.74
  -9 -18  -3   84.55    4.39
  -9 -18   3   82.85    4.51
  -9 -18  -3   89.00    4.52
  -9 -18   3   90.23    4.55
  -9 -18  -3   88.18    4.63
  -9 -18   3  105.80    4.95
  -9 -18  -4    4.65    1.48
  -9 -18   4    4.79    1.87
  -9 -18  -4    5.97    1.98
  -9 -18  -4    6.13    1.56
  -9 -18   4    4.22    2.09
  -9 -18  -4    3.89    1.41
  -9 -18   4    4.47    1.69
  -9 -18  -5   19.15    1.93
  -9 -18   5   22.23    2.25
  -9 -18   5   21.94    3.15
  -9 -18  -5   16.77    3.27
  -9 -18  -5   24.66    2.01
  -9 -18   6   53.30    3.22
  -9 -18   6   43.95    3.04
  -9 -18  -6   43.90    2.81
  -9 -18  -6   45.11    2.77
  -9 -18   7   45.98    2.92
  -9 -18  -7   39.90    2.66
  -9 -18  -7   43.85    2.73
  -9 -18   8    3.41    1.31
  -9 -18  -8    1.40    1.11
  -9 -18  -8    5.91    1.20
  -9 -18   8    4.85    1.43
  -9 -18  -9    0.23    0.92
  -9 -18  -9   -0.07    0.90
  -9 -18   9    0.18    1.08
  -9 -18 -10    0.67    0.75
 -18   9 -10    0.91    0.74
  -9 -18  10   -0.59    0.91
  -8 -18   0    0.41    1.72
  -8 -18   0   -1.37    1.57
  -8 -18   0    0.28    1.74
  -8 -18   1    3.00    1.90
  -8 -18   1    4.16    1.54
  -8 -18  -1    3.12    1.67
  -8 -18   1    2.32    1.80
  -8 -18  -1    2.21    1.83
  -8 -18  -1    2.80    1.60
  -8 -18   1    0.64    1.76
  -8 -18  -2   12.68    1.81
  -8 -18   2   11.51    1.91
  -8 -18  -2   12.85    1.99
  -8 -18   2   11.17    2.10
  -8 -18   2    9.25    1.76
  -8 -18  -2   13.90    1.74
  -8 -18   2   11.54    1.98
  -8 -18   3   -0.43    1.58
  -8 -18  -3    1.25    1.68
  -8 -18   3    0.59    1.92
  -8 -18   3    0.51    1.47
  -8 -18  -3    2.42    1.51
  -8 -18   3    1.08    1.44
  -8 -18  -3    1.46    1.40
  -8 -18   3    2.60    1.71
  -8 -18  -4   14.53    1.91
  -8 -18   4   12.62    2.02
  -8 -18  -4   14.80    1.78
  -8 -18   4   14.65    1.89
  -8 -18  -4   11.51    1.93
  -8 -18  -5  143.11    6.19
  -8 -18  -5  130.33    6.15
  -8 -18   5  127.73    6.13
  -8 -18  -5  144.05    6.29
  -8 -18  -5  133.94    6.29
  -8 -18  -6   12.48    1.74
  -8 -18  -6   12.50    1.72
  -8 -18   6   15.25    2.24
  -8 -18   6   10.39    1.94
  -8 -18  -7   -0.77    1.28
  -8 -18  -7    1.76    1.30
  -8 -18   7   -0.52    1.61
  -8 -18   7    1.47    1.42
  -8 -18  -8    1.81    1.14
  -8 -18  -8    0.10    1.18
  -8 -18   8   -0.12    1.32
  -8 -18   8    1.62    1.44
  -8 -18  -9    0.72    0.99
  -8 -18   9    0.19    1.18
  -8 -18   9    0.34    1.25
  -8 -18 -10    2.31    0.83
 -18   8 -10    0.96    0.87
  -8 -18  10    2.69    0.93
  -7 -18   0    0.36    1.59
  -7 -18   0    1.93    1.58
  -7 -18   0   -0.57    1.56
  -7 -18   0    1.27    1.80
  -7 -18   1    6.95    1.93
  -7 -18   1    9.18    1.79
  -7 -18  -1    9.52    1.82
  -7 -18   1    6.75    1.90
  -7 -18  -1    9.02    1.94
  -7 -18  -1    5.26    1.67
  -7 -18   2   62.95    3.71
  -7 -18  -2   54.68    3.36
  -7 -18   2   53.63    3.69
  -7 -18   2   61.91    3.59
  -7 -18  -2   63.29    3.71
  -7 -18   2   59.10    3.41
  -7 -18   3   37.80    2.72
  -7 -18   3   44.86    3.16
  -7 -18  -3   41.06    2.64
  -7 -18   3   48.83    3.26
  -7 -18   3   38.06    2.81
  -7 -18  -3   43.71    3.00
  -7 -18  -3   36.12    2.68
  -7 -18  -4  186.02    8.26
  -7 -18   4  195.47    8.48
  -7 -18  -4  179.10    8.15
  -7 -18   4  191.30    8.28
  -7 -18  -4  195.38    8.37
  -7 -18  -4  197.07    8.40
  -7 -18  -5  139.50    5.99
  -7 -18  -5  119.28    5.93
  -7 -18   5  136.17    6.25
  -7 -18   5  152.48    6.51
  -7 -18  -5  127.63    6.00
  -7 -18   5  115.99    5.76
  -7 -18  -5  132.79    5.94
  -7 -18  -6    1.08    1.31
  -7 -18  -6    0.60    1.37
  -7 -18   6    2.29    1.58
  -7 -18   6   -1.38    1.82
  -7 -18  -7    8.85    1.53
  -7 -18  -7    5.07    1.43
  -7 -18   7    7.04    1.70
  -7 -18   7    9.18    1.86
  -7 -18  -8    6.44    1.38
  -7 -18   8    3.61    1.62
  -7 -18   8    4.58    1.46
  -7 -18  -8    6.33    1.33
  -7 -18   9   19.56    1.93
  -7 -18  -9   20.36    1.78
  -7 -18   9   25.70    1.99
  -7 -18 -10    1.25    0.90
  -7 -18  10    2.56    0.95
 -18   7 -10   -0.14    0.92
  -6 -18   0  145.68    6.84
  -6 -18   0  160.32    7.06
  -6 -18   0  155.69    7.21
  -6 -18   0  161.91    7.10
  -6 -18   1    0.70    1.74
  -6 -18   1   -0.98    1.62
  -6 -18  -1    1.64    1.53
  -6 -18   1    2.27    1.77
  -6 -18  -1    2.24    1.84
  -6 -18   2  189.97    8.08
  -6 -18  -2  164.31    7.57
  -6 -18   2  176.55    7.92
  -6 -18   2  176.90    7.80
  -6 -18  -2  170.76    7.77
  -6 -18   2  178.76    7.86
  -6 -18  -2  184.50    7.96
  -6 -18  -2  178.37    7.77
  -6 -18  -3  190.71    8.28
  -6 -18   3  214.66    8.72
  -6 -18   3  207.31    8.51
  -6 -18  -3  200.12    8.53
  -6 -18  -3  199.23    8.40
  -6 -18  -3  196.99    8.42
  -6 -18  -4   13.53    2.00
  -6 -18   4   17.62    2.45
  -6 -18   4   16.30    2.02
  -6 -18  -4   16.35    2.03
  -6 -18   4   17.90    2.00
  -6 -18  -4   19.25    2.14
  -6 -18  -4   20.07    2.01
  -6 -18  -5    4.08    1.61
  -6 -18   5    4.40    1.46
  -6 -18  -5    3.34    1.52
  -6 -18   5    4.48    2.14
  -6 -18   5    7.60    1.81
  -6 -18  -5    6.98    1.61
  -6 -18  -5    5.73    1.49
  -6 -18  -6    3.78    1.50
  -6 -18   6    5.88    1.73
  -6 -18  -6    5.81    1.55
  -6 -18  -7    9.65    1.71
  -6 -18   7   15.38    2.14
  -6 -18   7   12.24    1.89
  -6 -18  -7    8.94    1.63
  -6 -18  -8   80.25    4.09
  -6 -18   8   77.20    4.18
  -6 -18  -8   67.74    3.92
  -6 -18   9   17.43    1.84
  -6 -18   9   20.29    1.93
 -18   6  -9   17.59    1.87
  -6 -18  -9   16.01    1.66
  -6 -18  10    2.97    1.10
 -18   6 -10    3.46    1.02
  -6 -18 -10    1.28    0.93
 -18   6 -11    1.82    0.86
  -6 -18  11    2.48    0.89
  -5 -18   0    2.60    1.79
  -5 -18   0    0.92    1.57
  -5 -18   0    1.74    1.82
  -5 -18   0    1.11    1.73
  -5 -18   1  197.37    9.17
  -5 -18   1  220.77    9.42
  -5 -18  -1  224.01    9.52
  -5 -18  -1  226.96    9.27
  -5 -18   1  221.15    9.36
  -5 -18   2   30.26    2.54
  -5 -18  -2   28.85    2.49
  -5 -18   2   25.32    2.71
  -5 -18   2   30.06    2.58
  -5 -18  -2   30.42    2.63
  -5 -18  -2   29.24    2.53
  -5 -18   2   30.68    2.72
  -5 -18  -2   29.55    2.39
  -5 -18  -3    2.77    1.63
  -5 -18  -3    3.40    1.49
  -5 -18   3    2.19    1.88
  -5 -18   3    1.38    1.68
  -5 -18  -3    2.65    1.65
  -5 -18  -3    4.03    1.49
  -5 -18   3    0.51    1.45
  -5 -18   4    4.77    1.63
  -5 -18  -4    5.82    1.68
  -5 -18  -4    4.90    1.61
  -5 -18   4    5.81    2.06
  -5 -18   4    3.76    1.62
  -5 -18  -4    5.58    1.66
  -5 -18  -4    6.21    1.58
  -5 -18   5   37.62    2.88
  -5 -18  -5   34.44    2.63
  -5 -18   5   36.29    2.56
  -5 -18  -5   38.37    2.59
  -5 -18  -5   32.42    2.56
  -5 -18  -6    4.12    1.54
  -5 -18  -6    4.37    1.46
  -5 -18   6    4.75    1.72
  -5 -18  -7   41.87    2.94
  -5 -18   7   45.84    3.13
  -5 -18  -7   44.06    2.84
  -5 -18   8    4.85    1.70
  -5 -18   8    2.54    1.47
  -5 -18  -8    0.69    1.22
  -5 -18   9   14.88    1.76
 -18   5  -9   16.33    1.87
  -5 -18  -9   10.23    1.48
  -5 -18   9   13.80    1.81
 -18   5 -10    5.43    1.15
  -5 -18 -10    2.73    1.01
  -5 -18  10    3.14    1.17
  -5 -18  11    5.72    1.05
 -18   5 -11    4.90    1.04
  -4 -18   0   36.38    2.86
  -4 -18   0   35.30    2.97
  -4 -18   1   50.92    3.41
  -4 -18  -1   49.47    3.45
  -4 -18   1   60.89    3.60
  -4 -18  -1   52.61    3.30
  -4 -18   1   55.71    3.47
  -4 -18  -1   54.76    3.52
  -4 -18   1   47.88    3.26
  -4 -18   2    3.98    2.01
  -4 -18   2    2.11    1.86
  -4 -18  -2    3.00    2.03
  -4 -18  -2    1.67    1.53
  -4 -18  -2    2.32    1.67
  -4 -18   2    1.54    1.69
  -4 -18  -2    4.83    1.91
  -4 -18  -3   51.88    3.20
  -4 -18   3   61.57    3.65
  -4 -18  -3   52.28    3.40
  -4 -18   3   56.60    3.40
  -4 -18  -3   55.67    3.58
  -4 -18  -3   53.45    3.40
  -4 -18  -4  180.65    7.64
  -4 -18  -4  161.12    7.58
  -4 -18   4  196.17    8.09
  -4 -18   4  165.37    7.74
  -4 -18   4  174.08    7.65
  -4 -18  -4  181.61    7.81
  -4 -18  -4  175.07    7.74
  -4 -18  -5   44.82    2.88
  -4 -18   5   42.53    3.05
  -4 -18  -5   44.61    2.95
  -4 -18   5   37.11    2.74
  -4 -18  -5   44.99    2.91
  -4 -18   5   48.32    3.35
  -4 -18  -6    0.33    1.41
  -4 -18   6    1.09    1.53
  -4 -18  -6    2.52    1.36
  -4 -18   7    1.03    1.72
  -4 -18  -7    3.09    1.39
  -4 -18  -7    2.37    1.32
  -4 -18   7    3.79    1.55
  -4 -18  -8   10.80    1.47
  -4 -18   8    9.26    1.73
  -4 -18   8   11.81    1.95
  -4 -18   9    2.15    1.31
  -4 -18   9    1.33    1.45
 -18   4  -9    1.25    1.33
  -4 -18  -9    1.32    1.09
  -4 -18  10   -1.06    1.17
  -4 -18 -10   -0.20    0.90
 -18   4 -10   -0.13    1.03
  -4 -18  11    1.46    0.96
 -18   4 -11   -0.87    0.97
  -3 -18   0   -0.42    1.69
  -3 -18   0    0.78    1.70
  -3 -18   1   29.08    2.73
  -3 -18  -1   28.44    2.65
  -3 -18   1   25.69    2.60
  -3 -18  -1   26.71    2.60
  -3 -18   1   26.81    2.76
  -3 -18  -1   30.04    2.43
  -3 -18   1   26.06    2.48
  -3 -18   2   66.41    3.72
  -3 -18  -2   58.82    3.75
  -3 -18   2   56.57    3.68
  -3 -18  -2   53.91    3.33
  -3 -18   2   62.80    3.77
  -3 -18  -2   66.29    3.71
  -3 -18  -2   64.88    3.78
  -3 -18  -2   63.95    3.46
  -3 -18  -3  191.09    8.48
  -3 -18   3  204.72    8.92
  -3 -18  -3  202.80    8.71
  -3 -18   3  200.72    8.72
  -3 -18  -3  212.03    8.90
  -3 -18  -3  210.24    8.88
  -3 -18  -4   56.99    3.25
  -3 -18  -4   52.96    3.18
  -3 -18   4   53.83    3.39
  -3 -18  -4   54.36    3.39
  -3 -18   4   58.34    3.73
  -3 -18   4   51.02    3.29
  -3 -18  -4   60.99    3.46
  -3 -18  -5   11.74    1.71
  -3 -18  -5   12.00    1.86
  -3 -18   5   16.28    2.34
  -3 -18  -5   11.80    1.83
  -3 -18   5   17.06    1.85
  -3 -18   5   12.23    1.90
  -3 -18   6    5.30    1.73
  -3 -18  -6    5.23    1.45
  -3 -18  -6    5.89    1.49
  -3 -18  -7    6.87    1.46
  -3 -18   7    7.98    1.67
  -3 -18   7    6.68    1.91
  -3 -18   8    2.13    1.40
  -3 -18   8    0.93    1.57
 -18   3  -8   -0.89    1.54
  -3 -18  -8    0.81    1.15
  -3 -18   9    0.12    1.27
 -18   3  -9    0.86    1.37
  -3 -18   9    0.75    1.43
  -3 -18  -9   -0.41    1.02
  -3 -18  10    0.85    1.17
 -18   3 -10   -1.12    1.26
 -18   3 -10   -0.37    1.07
  -3 -18  11    1.22    0.86
 -18   3 -11    0.50    0.94
 -18   3 -11   -0.86    0.77
  -2 -18   0  853.73   31.34
  -2 -18   0  797.60   31.16
  -2 -18   0  792.42   31.25
  -2 -18   1  238.07   10.10
  -2 -18  -1  260.33   10.35
  -2 -18   1  233.08   10.17
  -2 -18  -1  234.24   10.06
 -18   2  -1  236.39   10.07
  -2 -18   1  245.50   10.29
  -2 -18  -1  247.18   10.36
  -2 -18   2   31.04    2.77
  -2 -18  -2   37.56    2.82
  -2 -18   2   32.05    2.72
  -2 -18   2   32.00    2.69
  -2 -18  -2   33.58    2.84
  -2 -18  -2   34.17    2.51
  -2 -18  -3   26.04    2.38
  -2 -18  -3   20.00    2.10
  -2 -18  -3   23.45    2.11
  -2 -18   3   23.54    2.30
  -2 -18  -3   24.78    2.43
  -2 -18  -3   19.51    2.05
  -2 -18   3   22.49    2.40
  -2 -18   3   22.24    2.49
  -2 -18   4   29.93    2.56
  -2 -18  -4   26.56    2.24
  -2 -18  -4   21.77    2.16
  -2 -18   4   28.11    2.41
  -2 -18  -4   26.88    2.37
  -2 -18   4   29.67    2.63
  -2 -18  -4   30.57    2.48
  -2 -18   4   25.59    2.32
  -2 -18  -5    3.82    1.47
  -2 -18  -5    6.20    1.40
  -2 -18   5    4.33    1.84
  -2 -18   5    8.69    1.60
  -2 -18  -5    5.97    1.50
  -2 -18   5    4.51    1.55
  -2 -18   6    1.06    1.49
  -2 -18  -6    1.65    1.26
  -2 -18  -6    0.26    1.29
  -2 -18   7    2.74    1.53
  -2 -18   7    4.30    1.78
 -18   2  -7    4.36    1.93
  -2 -18  -7    2.68    1.20
  -2 -18   8    5.79    1.55
  -2 -18   8    4.54    1.68
 -18   2  -8    7.09    1.81
  -2 -18  -8    6.68    1.33
  -2 -18   9   -0.64    1.42
 -18   2  -9    0.75    1.26
  -2 -18   9    0.66    1.27
  -2 -18  10    0.78    1.24
 -18   2 -10    1.56    1.10
 -18   2 -10   -1.27    1.27
  -2 -18  10   -1.63    1.24
 -18   2 -11   -0.36    1.00
  -2 -18  11   -0.03    0.81
 -18   2 -11    1.31    0.77
  -1 -18   0    1.39    1.97
  -1 -18   0    2.03    1.84
  -1 -18   1   35.94    2.72
  -1 -18   1   36.37    2.77
  -1 -18   1   39.47    2.92
  -1 -18  -1   39.82    2.98
  -1 -18  -1   41.09    3.04
 -18   1  -1   38.14    2.79
 -18   1  -2   10.19    1.96
  -1 -18   2    7.76    1.92
  -1 -18   2    8.59    1.94
  -1 -18  -2   11.92    1.96
  -1 -18   2    7.49    1.94
  -1 -18  -2    9.34    2.14
  -1 -18   3   11.22    2.04
  -1 -18  -3    8.51    1.72
  -1 -18   3    8.05    1.94
  -1 -18  -3   13.69    1.98
  -1 -18  -3   10.53    1.72
  -1 -18   3    9.42    1.79
  -1 -18  -3   14.01    2.17
  -1 -18  -4   16.86    1.92
  -1 -18  -4   18.25    2.10
  -1 -18   4   17.45    2.23
  -1 -18  -4   19.06    1.91
  -1 -18   4   22.41    2.13
  -1 -18  -4   21.40    2.17
  -1 -18   4   21.44    2.39
  -1 -18  -5   31.48    2.49
  -1 -18  -5   31.16    2.32
  -1 -18   5   29.00    2.47
  -1 -18  -5   24.69    2.38
  -1 -18   5   35.22    2.81
  -1 -18   5   29.30    2.37
  -1 -18  -5   35.81    2.55
  -1 -18   5   32.91    2.69
  -1 -18  -6    4.71    1.39
  -1 -18   6    6.99    1.65
 -18   1  -6    8.98    2.13
  -1 -18  -6    5.80    1.41
  -1 -18   7   10.61    1.76
  -1 -18   7   10.32    1.98
  -1 -18  -7    8.80    1.45
 -18   1  -7   10.15    2.18
  -1 -18   8    1.33    1.60
 -18   1  -8    2.50    1.52
  -1 -18   9   -0.48    1.30
  -1 -18   9    3.53    1.51
 -18   1  -9    0.70    1.41
 -18   1 -10    0.74    1.36
  -1 -18  10    0.26    1.18
  -1 -18  10   -0.05    1.24
 -18   1 -10   -0.67    1.11
 -18   1 -11   -0.12    1.02
  -1 -18  11   -0.41    0.91
   0 -18   0   37.28    2.92
   0 -18   0   31.99    2.90
 -18   0   0   32.66    2.47
   0 -18   1   41.43    2.83
 -18   0  -1   45.08    2.95
   0 -18  -1   45.21    3.07
   0 -18   1   42.79    3.11
   0 -18  -1   42.65    3.23
   0 -18   1   41.19    2.94
   0 -18   2   45.30    3.18
 -18   0  -2   51.23    3.29
   0 -18  -2   49.49    3.11
   0 -18   2   49.67    3.29
   0 -18  -2   50.81    3.34
   0 -18   2   47.27    3.18
   0 -18   3   94.75    5.03
   0 -18  -3   99.88    4.99
   0 -18   3  104.83    5.17
   0 -18  -3   98.38    4.82
   0 -18  -3  100.40    5.14
   0 -18   3  107.85    5.11
 -18   0  -3  105.60    5.31
   0 -18   4   19.68    2.14
   0 -18  -4   18.89    2.02
   0 -18  -4   17.48    1.86
 -18   0  -4   21.38    2.38
   0 -18   4   24.58    2.17
   0 -18  -4   19.36    2.18
   0 -18   4   19.59    2.25
   0 -18   4   15.26    1.94
   0 -18  -4   21.76    2.12
   0 -18  -5   27.62    2.28
   0 -18   5   29.92    2.57
   0 -18  -5   26.01    2.36
   0 -18   5   32.61    2.57
   0 -18  -5   26.87    2.23
   0 -18   5   28.40    2.32
   0 -18  -5   31.44    2.43
   0 -18   5   28.51    2.35
   0 -18  -6   42.08    3.09
   0 -18   6   54.04    3.43
   0 -18   6   47.16    3.18
   0 -18   6   55.87    3.51
 -18   0  -6   56.86    3.77
 -18   0  -7   -0.84    1.72
   0 -18   7   -0.63    1.39
   0 -18   8    3.91    1.73
 -18   0  -8    5.41    1.74
   0 -18   8    4.20    1.39
   0 -18   9    3.65    1.54
 -18   0  -9    1.33    1.40
   0 -18  10   -1.00    1.34
   0 -18  10    0.31    1.18
 -18   0 -10    0.82    1.14
 -18   0 -10    1.66    1.37
   0 -18  11    1.97    1.00
 -18   0 -11    0.93    1.12
   1 -18   0    1.20    1.38
 -18  -1   0    2.55    1.42
   1 -18   0    0.49    1.81
 -18  -1  -1   95.31    4.80
   1 -18   1   99.36    4.99
   1 -18  -1  100.65    5.07
   1 -18   1   99.02    4.88
   1 -18  -1  102.75    4.95
   1 -18  -2    5.14    1.92
   1 -18   2    7.36    1.84
   1 -18   2    5.92    1.73
   1 -18  -2    7.16    1.68
   1 -18   2    7.62    1.60
 -18  -1  -2    8.62    1.71
   1 -18   3    8.76    1.76
   1 -18  -3    8.27    1.88
   1 -18  -3    7.87    1.62
 -18  -1  -3    7.84    1.94
   1 -18  -3    9.76    1.96
   1 -18   3    9.55    1.82
   1 -18   3    7.35    1.92
   1 -18  -4   71.30    3.87
   1 -18  -4   78.39    4.22
   1 -18   4   82.87    4.35
   1 -18   4   78.56    4.24
 -18  -1  -4   80.92    4.46
   1 -18   4   77.41    4.10
   1 -18  -4   87.57    4.32
   1 -18   5    3.15    1.51
   1 -18  -5    3.62    1.59
   1 -18   5    4.14    1.80
   1 -18   5    3.09    1.46
   1 -18  -5    4.79    1.58
   1 -18  -6    6.88    1.70
   1 -18   6    8.61    1.71
 -18  -1  -6   12.60    2.23
   1 -18   6    9.32    1.99
   1 -18   6   11.07    1.94
   1 -18  -7    2.57    1.43
 -18  -1  -7    5.63    1.88
   1 -18   7    4.47    1.69
 -18  -1  -7    2.73    1.86
   1 -18   8    3.77    1.43
 -18  -1  -8    0.63    1.71
 -18  -1  -8    1.25    1.53
   1 -18   8    2.41    1.61
   1 -18   9   10.43    1.72
   1 -18   9   17.42    1.93
 -18  -1  -9   14.58    1.90
   1 -18  10   11.96    1.62
   1 -18  10   13.78    1.74
 -18  -1 -10   12.18    1.83
 -18  -1 -10    9.57    1.54
 -18  -1 -11   16.49    1.76
   1 -18  11   16.15    1.56
   2 -18   0  105.99    5.34
 -18  -2   0  108.87    5.10
   2 -18   0  107.98    5.08
   2 -18   1    3.08    1.76
   2 -18  -1    3.89    1.84
   2 -18   1    1.66    1.38
 -18  -2  -1    3.65    1.57
   2 -18  -2    3.11    1.75
   2 -18   2    3.42    1.64
 -18  -2  -2    1.00    1.48
   2 -18   2    3.34    1.47
   2 -18   3    1.21    1.39
   2 -18   3    1.60    1.60
   2 -18  -3    0.40    1.58
   2 -18   3    0.74    1.55
   2 -18  -3    0.08    1.61
 -18  -2  -3    1.90    1.46
 -18  -2  -3   -1.39    1.52
   2 -18   4   12.31    2.02
 -18  -2  -4   12.27    1.96
   2 -18   4   14.95    2.08
   2 -18  -4   14.80    1.97
 -18  -2  -4   14.99    2.23
   2 -18   4   17.35    1.95
   2 -18  -4   17.40    2.07
   2 -18  -5   21.39    2.30
   2 -18   5   19.84    2.01
   2 -18  -5   21.76    2.17
   2 -18   5   19.62    2.11
 -18  -2  -5   22.76    2.43
   2 -18   5   22.97    2.40
 -18  -2  -6    1.03    1.69
   2 -18   6    0.24    1.62
   2 -18   6    1.77    1.43
 -18  -2  -6    3.18    1.77
   2 -18  -6    1.88    1.60
 -18  -2  -7    1.18    1.76
   2 -18   7    0.08    1.61
   2 -18   7    3.35    1.48
 -18  -2  -7    1.85    1.67
   2 -18  -7   -0.27    1.38
 -18  -2  -8   14.75    2.08
   2 -18   8   13.20    1.89
 -18  -2  -8   14.05    2.26
   2 -18   8   14.67    2.01
   2 -18   8   17.58    2.09
   2 -18   9    5.98    1.48
   2 -18   9    8.63    1.73
 -18  -2  -9    7.55    1.64
 -18  -2 -10   29.35    2.35
 -18  -2 -10   36.25    2.67
   2 -18  10   32.84    2.41
   2 -18  10   39.05    2.49
 -18  -2 -11    0.70    1.09
   2 -18  11    0.81    0.96
 -18  -3   0    0.84    1.42
   3 -18   0    1.44    1.42
   3 -18   0    0.08    1.69
   3 -18  -1   36.04    2.67
   3 -18   1   29.95    2.55
 -18  -3  -1   33.49    2.48
   3 -18   1   31.96    2.41
   3 -18   2    3.93    1.65
   3 -18  -2    4.45    1.75
 -18  -3  -2    3.66    1.54
   3 -18   2    2.41    1.38
   3 -18   2    4.62    1.50
 -18  -3  -3   18.53    2.13
   3 -18   3   16.07    2.02
   3 -18  -3   19.34    2.01
   3 -18   3   16.25    1.92
   3 -18  -3   16.27    2.09
 -18  -3  -3   16.25    1.92
   3 -18   3   13.12    1.87
   3 -18   4    5.25    1.56
 -18  -3  -4    2.10    1.54
   3 -18   4    2.76    1.60
   3 -18   4    2.67    1.44
   3 -18  -4    2.56    1.49
 -18  -3  -4    2.09    1.55
   3 -18  -4    0.08    1.61
 -18  -3  -5   22.82    2.52
   3 -18  -5   26.56    2.42
   3 -18   5   22.40    2.20
   3 -18   5   25.09    2.22
   3 -18  -5   32.25    2.34
   3 -18   5   29.48    2.51
   3 -18   6    3.61    1.47
 -18  -3  -6    2.28    1.80
   3 -18  -6    2.96    1.67
   3 -18   6    1.33    1.63
   3 -18   6    1.78    1.61
 -18  -3  -6    2.00    1.77
   3 -18   7    2.75    1.42
 -18  -3  -7   -0.74    1.73
   3 -18  -7    0.61    1.43
 -18  -3  -7    0.94    1.69
   3 -18   7   -0.75    1.54
   3 -18   8    6.98    1.59
   3 -18   8    9.60    1.86
 -18  -3  -8    8.31    1.79
   3 -18   8    9.48    1.77
   3 -18   9   12.60    1.80
 -18  -3  -9   12.69    1.73
 -18  -3  -9   10.03    1.94
 -18  -3 -10    4.03    1.38
   3 -18  10    3.22    1.33
 -18  -3 -10    2.28    1.18
   3 -18  10    2.42    1.23
   3 -18  11    2.44    0.97
 -18  -3 -11   -0.51    0.98
   4 -18   0  149.57    6.90
 -18  -4   0  161.18    6.77
   4 -18   0  147.44    6.68
 -18  -4  -1    3.50    1.43
   4 -18   1    0.70    1.49
   4 -18  -1    1.29    1.54
   4 -18   1    4.05    1.50
   4 -18  -2   29.32    2.50
 -18  -4  -2   30.32    2.35
   4 -18   2   26.71    2.34
   4 -18  -2   28.51    2.49
   4 -18   2   24.33    2.25
   4 -18   2   28.86    2.30
   4 -18   3    4.51    1.56
 -18  -4  -3    2.15    1.45
   4 -18   3    2.78    1.58
   4 -18  -3    2.75    1.79
   4 -18   3    6.48    1.55
   4 -18  -3    1.91    1.65
 -18  -4  -3    3.88    1.73
   4 -18   4   59.85    3.51
 -18  -4  -4   53.13    3.50
   4 -18  -4   64.04    3.57
 -18  -4  -4   56.90    3.69
   4 -18   4   54.13    3.48
   4 -18  -4   58.42    3.41
   4 -18   4   59.69    3.40
   4 -18  -5   21.25    2.14
 -18  -4  -5   18.23    2.23
   4 -18   5   15.25    1.89
   4 -18   5   24.39    2.29
   4 -18   5   18.61    1.94
   4 -18  -5   17.68    1.96
   4 -18  -6    7.96    1.79
 -18  -4  -6    6.98    1.91
   4 -18   6    7.54    1.59
   4 -18   6    6.00    1.81
   4 -18   6    9.09    1.77
 -18  -4  -6    6.57    1.93
   4 -18  -7   56.76    3.67
   4 -18   7   57.68    3.56
   4 -18   7   70.58    3.80
 -18  -4  -7   72.79    4.10
 -18  -4  -7   61.40    3.91
   4 -18   8    3.81    1.43
   4 -18   8    2.74    1.51
 -18  -4  -8    2.69    1.57
   4 -18   9   20.04    1.98
   4 -18   9   14.21    1.78
 -18  -4  -9   16.27    2.06
 -18  -4  -9   12.74    1.83
   4 -18  10    1.54    1.16
 -18  -4 -10    0.47    1.25
 -18  -4 -10    0.74    1.05
   4 -18  10    3.05    1.23
   4 -18  11    1.06    0.92
 -18  -4 -11   -0.66    0.95
 -18  -5   0   -0.56    1.39
   5 -18   0   -0.56    1.64
 -18  -5  -1  135.52    5.88
   5 -18  -1  124.32    5.99
   5 -18   1  119.43    5.93
   5 -18   2   13.73    1.78
   5 -18  -2   13.28    1.95
   5 -18   2    9.10    1.84
 -18  -5  -2   11.93    1.78
 -18  -5  -3   53.98    3.26
 -18  -5  -3   53.98    3.40
   5 -18   3   56.32    3.33
   5 -18   3   57.70    3.37
   5 -18  -3   55.47    3.35
   5 -18   3   58.87    3.29
   5 -18   4   20.72    2.06
 -18  -5  -4   17.73    2.09
   5 -18  -4   19.42    2.16
 -18  -5  -4   19.46    2.28
   5 -18   4   19.30    2.13
   5 -18   4   20.36    2.07
   5 -18  -4   19.52    2.10
 -18  -5  -5   11.38    1.93
   5 -18   5    7.52    1.60
   5 -18  -5   10.88    1.64
   5 -18   5   11.00    1.91
   5 -18   5   11.03    1.63
   5 -18  -5   11.23    1.94
   5 -18  -6    0.66    1.48
 -18  -5  -6    0.08    1.56
   5 -18   6   -0.22    1.56
   5 -18   6    1.76    1.58
   5 -18   6    0.07    1.38
 -18  -5  -6   -0.55    1.69
   5 -18  -7    2.39    1.48
   5 -18   7   -0.13    1.32
 -18  -5  -7    1.54    1.61
 -18  -5  -7    0.66    1.49
   5 -18   7    0.77    1.51
   5 -18   8    2.73    1.32
   5 -18   8    0.83    1.50
 -18  -5  -8    1.92    1.41
   5 -18   8    0.94    1.35
 -18  -5  -9    2.38    1.44
   5 -18   9    1.41    1.36
 -18  -5  -9    2.79    1.27
   5 -18   9    1.80    1.24
 -18  -5 -10    0.49    0.92
 -18  -5 -10   -0.83    1.17
   5 -18  10   -0.84    1.18
 -18  -5 -11    0.71    0.86
   5 -18  11   -0.23    0.84
   6 -18   0   49.86    3.38
 -18  -6   0   56.83    3.22
 -18  -6   1    4.43    1.41
 -18  -6  -1    4.44    1.60
   6 -18   1    2.73    1.67
   6 -18  -1    2.80    1.77
   6 -18  -2   27.23    2.49
 -18  -6  -2   27.47    2.17
 -18  -6  -2   31.62    2.41
   6 -18   2   24.94    2.37
   6 -18  -2   26.92    2.37
   6 -18   2   26.62    2.20
 -18  -6  -3    2.70    1.59
   6 -18   3    2.53    1.51
   6 -18   3    3.61    1.57
   6 -18  -3    4.80    1.59
 -18  -6  -3    3.28    1.45
 -18  -6  -4    9.84    1.76
   6 -18   4    8.21    1.76
 -18  -6  -4    8.99    1.85
   6 -18   4    9.22    1.80
   6 -18   4   12.00    1.74
   6 -18  -4   10.45    1.73
 -18  -6  -5   37.02    2.85
   6 -18   5   31.49    2.39
 -18  -6  -5   32.06    2.69
   6 -18   5   35.42    2.47
   6 -18  -5   32.42    2.40
   6 -18   5   36.66    2.66
 -18  -6  -6   20.16    2.29
   6 -18  -6   21.93    2.26
 -18  -6  -6   21.39    2.34
   6 -18   6   18.85    1.99
   6 -18   6   23.22    2.19
   6 -18   6   23.02    2.24
 -18  -6  -7    0.81    1.51
   6 -18   7    0.69    1.52
   6 -18   7    1.82    1.47
   6 -18   7    0.37    1.30
 -18  -6  -7    4.64    1.60
   6 -18   8    4.90    1.40
 -18  -6  -8    6.57    1.44
   6 -18   8    4.35    1.47
   6 -18   9    3.37    1.28
 -18  -6  -9    2.93    1.23
   6 -18   9    2.11    1.21
 -18  -6  -9    3.32    1.39
 -18  -6 -10    1.31    1.14
 -18  -6 -10    0.70    0.94
 -18  -6 -11    1.45    0.82
   6 -18  11    0.99    0.85
 -18  -7   0    1.40    1.36
   7 -18   0    0.80    1.55
   7 -18   1   17.77    2.06
   7 -18  -1   17.59    2.07
 -18  -7   1   15.95    1.78
 -18  -7  -1   18.67    1.96
   7 -18  -1   19.34    2.21
   7 -18   2   19.80    2.12
   7 -18  -2   21.70    2.20
   7 -18  -2   19.50    2.25
 -18  -7  -2   22.01    1.91
 -18  -7  -2   21.22    2.11
   7 -18   2   17.86    1.91
 -18  -7  -3    8.73    1.60
   7 -18   3    7.65    1.64
 -18  -7  -3    7.82    1.71
   7 -18   3    4.53    1.57
   7 -18  -3    6.62    1.74
   7 -18  -3    7.57    1.83
 -18  -7  -4   29.69    2.46
   7 -18   4   23.16    2.34
   7 -18  -4   28.22    2.32
   7 -18   4   25.51    2.24
   7 -18  -4   30.46    2.54
   7 -18   5   29.64    2.48
   7 -18   5   27.53    2.21
   7 -18  -5   29.76    2.26
 -18  -7  -5   32.41    2.64
   7 -18   5   30.15    2.45
 -18  -7  -5   30.45    2.54
   7 -18   6    0.43    1.28
 -18  -7  -6    4.24    1.61
   7 -18   6    0.06    1.51
   7 -18   6    2.78    1.49
 -18  -7  -6    2.17    1.48
   7 -18   7    7.50    1.50
 -18  -7  -7    7.80    1.72
   7 -18   7    5.22    1.65
   7 -18   7    6.81    1.56
 -18  -7  -7    7.08    1.65
 -18  -7  -8    6.58    1.51
   7 -18   8    7.91    1.44
   7 -18   8    8.49    1.47
 -18  -7  -9   10.27    1.55
 -18  -7  -9    5.97    1.31
   7 -18   9    8.41    1.51
   7 -18   9    8.08    1.35
   7 -18   9    6.68    1.38
   7 -18  10    0.33    1.06
 -18  -7 -10    2.04    1.05
   7 -18  10   -0.38    0.97
   8 -18   0    8.03    1.82
 -18  -8   0    6.43    1.51
 -18  -8   1   65.00    3.44
 -18  -8  -1   64.71    3.55
   8 -18  -1   61.24    3.62
   8 -18   1   58.99    3.65
   8 -18  -1   73.59    3.91
   8 -18   2    0.07    1.53
   8 -18  -2    0.61    1.58
 -18  -8  -2    0.73    1.37
   8 -18   2    0.89    1.36
 -18  -8  -2    0.70    1.34
   8 -18  -2   -1.31    1.79
   8 -18   3    2.27    1.55
   8 -18  -3    3.22    1.57
   8 -18   3   -0.63    1.44
 -18  -8  -3    1.78    1.60
   8 -18  -3    0.24    1.69
 -18  -8  -3    3.97    1.48
   8 -18  -4   36.61    2.74
   8 -18   4   31.09    2.51
   8 -18   4   31.41    2.38
   8 -18  -4   37.95    2.52
 -18  -8  -4   33.09    2.49
   8 -18   5    2.40    1.50
 -18  -8  -5    2.45    1.51
   8 -18   5    4.39    1.54
   8 -18  -5    3.55    1.57
   8 -18   5    2.95    1.34
 -18  -8  -5    3.50    1.61
 -18  -8  -6   29.06    2.41
   8 -18  -6   24.40    2.39
 -18  -8  -6   31.02    2.51
   8 -18   6   28.00    2.38
   8 -18   6   33.84    2.43
 -18  -8  -7    2.21    1.43
   8 -18   7    1.49    1.51
   8 -18   7    1.82    1.27
 -18  -8  -7    3.55    1.40
   8 -18   7   -0.12    1.33
   8 -18   8    1.26    1.18
   8 -18   8    1.16    1.18
 -18  -8  -8    0.93    1.20
 -18  -8  -9    2.74    1.22
   8 -18   9    5.29    1.18
   8 -18   9    2.74    1.24
   8 -18   9    3.17    1.08
 -18  -8  -9    2.98    1.05
   8 -18  10    2.55    1.09
   8 -18  10    5.00    1.02
 -18  -8 -10    2.86    1.03
 -18  -9   0    0.34    1.39
   9 -18   0    2.15    1.79
   9 -18  -1   44.37    3.13
 -18  -9  -1   39.46    2.71
 -18  -9   1   39.97    2.64
   9 -18   2   76.98    4.16
   9 -18  -2   77.97    4.16
 -18  -9  -2   83.31    4.20
 -18  -9  -2   77.14    3.93
   9 -18   2   70.73    3.87
   9 -18  -3   26.78    2.35
 -18  -9  -3   23.63    2.17
   9 -18   3   17.86    2.03
   9 -18  -3   21.23    2.09
 -18  -9  -3   21.81    2.03
   9 -18   3   21.02    2.07
   9 -18   4    7.70    1.59
   9 -18   4    7.89    1.56
   9 -18  -4    7.32    1.53
 -18  -9  -4    5.82    1.44
   9 -18  -4    8.33    1.75
 -18  -9  -5   38.81    2.69
   9 -18  -5   36.74    2.73
 -18  -9  -5   40.87    2.73
   9 -18   5   43.52    2.79
   9 -18   5   34.29    2.42
   9 -18   5   34.15    2.64
   9 -18  -6    3.79    1.50
 -18  -9  -6    4.40    1.55
 -18  -9  -6    3.85    1.51
   9 -18   6    3.66    1.55
 -18  -9  -7    3.44    1.41
   9 -18   7    2.32    1.41
 -18  -9  -7    4.24    1.38
   9 -18   7    0.85    1.29
   9 -18   8    6.14    1.28
 -18  -9  -8    4.77    1.17
   9 -18   8    3.32    1.17
 -18  -9  -9    0.04    1.04
   9 -18   9    1.11    0.97
   9 -18   9    0.24    0.98
   9 -18   9    0.56    1.12
 -18  -9  -9    1.03    0.88
   9 -18  10    1.78    0.94
   9 -18  10    1.49    0.86
 -18  -9 -10    1.15    0.82
 -18 -10   0    7.63    1.55
  10 -18   0   13.68    2.15
  10 -18   1  174.23    7.53
  10 -18  -1  181.41    7.54
 -18 -10  -1  149.03    7.02
 -18 -10   1  156.84    6.96
 -18 -10  -2   92.28    4.48
  10 -18  -2   90.57    4.50
 -18 -10  -2   79.72    4.20
  10 -18  -2   97.48    4.77
 -18 -10  -3    3.02    1.32
  10 -18  -3    3.60    1.64
  10 -18   3    3.17    1.43
  10 -18   3    1.61    1.49
  10 -18  -3    1.99    1.53
 -18 -10  -3    3.63    1.45
  10 -18   4    0.92    1.37
  10 -18  -4   -0.15    1.53
  10 -18   4    1.60    1.32
  10 -18  -4    0.38    1.35
 -18 -10  -4    2.09    1.27
 -18 -10  -5   -1.17    1.37
  10 -18  -5   -0.54    1.46
  10 -18   5   -0.68    1.38
  10 -18   5    0.16    1.23
 -18 -10  -5    0.91    1.36
 -18 -10  -6    3.59    1.41
 -18 -10  -6    2.91    1.42
  10 -18   6    2.82    1.42
  10 -18   6    4.18    1.47
 -18 -10  -7   20.07    1.79
  10 -18   7   19.79    1.92
 -18 -10  -7   18.38    1.88
  10 -18   7   19.67    1.86
  10 -18   8    5.99    1.24
 -18 -10  -8    4.29    1.17
 -18 -10  -9    1.78    0.77
 -18 -10  -9    4.02    1.03
  10 -18   9    3.34    1.08
  10 -18   9    0.91    0.82
 -18 -11   0    0.06    1.26
  11 -18   0    1.44    1.75
  11 -18   1  114.32    5.35
  11 -18  -1  119.95    5.43
 -18 -11   1  100.94    4.84
 -18 -11  -1   98.30    4.92
 -18 -11  -2    2.19    1.45
  11 -18   2    2.65    1.55
  11 -18  -2    3.67    1.76
 -18 -11  -3   54.06    3.02
  11 -18  -3   48.05    3.05
  11 -18   3   45.87    2.93
  11 -18  -3   54.41    3.28
 -18 -11  -3   45.86    2.83
  11 -18   4    8.67    1.48
 -18 -11  -4    7.12    1.46
  11 -18   4    5.37    1.45
  11 -18  -4    8.65    1.62
  11 -18  -4    9.07    1.78
 -18 -11  -5    7.80    1.56
 -18 -11  -5    6.60    1.44
  11 -18  -5   10.28    1.66
  11 -18   5    5.71    1.51
 -18 -11  -6    1.51    1.17
  11 -18   6    0.33    1.24
  11 -18   6    0.35    1.27
 -18 -11  -6    1.74    1.23
 -18 -11  -7    6.71    1.26
  11 -18   7    7.57    1.35
 -18 -11  -7    7.38    1.36
  11 -18   7    4.33    1.37
 -18 -11  -8    0.11    0.90
  11 -18   8    0.96    1.00
  11 -18   9   -0.09    0.91
 -18 -11  -9    1.59    0.88
  12 -18   0  108.81    4.95
 -18 -12   0   86.86    4.43
  12 -18   1    1.31    1.53
  12 -18  -1    2.22    1.67
 -18 -12   1    1.19    1.17
 -18 -12  -1    1.01    1.27
  12 -18   2   27.33    2.24
  12 -18  -2   32.70    2.57
 -18 -12  -2   30.64    2.25
  12 -18  -3    5.60    1.77
 -18 -12  -3    8.36    1.55
 -18 -12  -3    5.33    1.33
  12 -18   3    8.19    1.58
  12 -18  -3    8.32    1.62
  12 -18  -4  110.09    4.69
  12 -18   4   77.92    4.09
 -18 -12  -4   91.22    4.20
  12 -18   4   72.86    4.14
  12 -18  -4  102.66    4.42
 -18 -12  -5    0.60    1.24
  12 -18   5    1.19    1.25
 -18 -12  -5    1.03    1.24
 -18 -12  -6   22.28    1.87
  12 -18   6   21.72    1.90
  12 -18   6   25.99    1.98
 -18 -12  -6   24.86    1.89
 -18 -12  -7    4.37    1.10
  12 -18   7    6.50    1.22
 -18 -12  -7    6.13    1.20
  12 -18   7    6.27    1.29
  12 -18   8   -0.49    1.04
  12 -18   8   -1.67    0.89
 -18 -12  -8   -0.69    0.73
 -18 -13   0    1.74    1.20
 -18 -13  -1   35.32    2.46
  13 -18  -1   50.61    2.86
 -18 -13  -2    4.45    1.37
  13 -18  -2   10.45    1.73
  13 -18   3   68.77    3.81
  13 -18  -3   84.07    4.03
 -18 -13  -3   67.85    3.64
 -18 -13  -3   79.68    3.92
  13 -18   4    7.80    1.40
  13 -18  -4    9.76    1.53
 -18 -13  -4    8.08    1.31
  13 -18   5   24.16    1.79
 -18 -13  -5   23.17    1.90
 -18 -13  -5   23.72    1.81
 -18 -13  -6    2.30    1.05
 -18 -13  -6    0.87    1.00
  13 -18   6    0.73    1.07
  13 -18   6   -0.20    1.14
  13 -18   7   15.86    1.51
 -18 -13  -7   15.52    1.42
 -18 -13  -7   13.02    1.31
  13 -18   8    2.24    0.93
 -18 -14   0   97.30    4.39
 -18 -14  -1    5.57    1.23
 -18 -14  -2   22.94    1.83
  14 -18   3    3.29    1.27
  14 -18  -3    6.88    1.44
  14 -18  -4    0.49    1.19
 -18 -14  -4    1.51    1.10
 -18 -14  -4    1.45    0.95
  14 -18   5    0.42    1.10
 -18 -14  -5   -0.08    0.93
 -18 -14  -5    2.18    1.00
  14 -18   6    1.93    1.09
 -18 -14  -6    1.82    0.91
 -18 -14  -6    2.93    0.94
  14 -18   6    1.53    1.01
 -18 -14  -7   -0.63    0.70
 -18 -14  -7    0.27    0.76
  14 -18   7   -0.36    0.88
 -18 -15   0    0.78    1.01
 -18 -15  -1   39.61    2.23
  15 -18   2    3.64    1.25
  15 -18  -2    1.54    1.24
 -18 -15  -2    0.85    1.03
  15 -18   3   -0.32    1.10
  15 -18  -3   -0.49    1.24
 -18 -15  -4    1.76    0.97
  15 -18   5    1.81    1.06
 -18 -15  -5    1.40    0.89
 -18 -15  -5    1.26    0.89
  15 -18   6    0.64    0.86
 -18 -15  -6    0.46    0.70
 -18 -15  -6    0.03    0.74
  16 -18   0    0.93    1.12
 -18 -16   0    1.15    0.87
  16 -18   1    8.10    1.28
  16 -18  -1    9.04    1.32
 -18 -16  -1   11.05    1.17
 -18 -16  -2    7.00    1.11
  16 -18   2    7.34    1.23
  16 -18  -2    9.80    1.33
 -18 -16  -4    4.13    0.93
 -18 -16  -5    8.13    0.97
  16 -18   5    9.68    1.09
 -18 -17  -1    0.77    0.77
 -18 -17  -2   12.90    1.11
 -16 -19   0    0.03    0.76
 -16 -19  -1    0.48    0.81
 -16 -19  -3   15.58    1.19
 -15 -19   0    0.07    0.91
 -15 -19   1    3.56    0.95
 -15 -19  -1    3.14    0.96
 -15 -19  -3    0.67    0.80
 -15 -19  -3   -0.23    0.87
 -15 -19  -4    1.96    0.80
 -15 -19  -4    2.76    0.84
 -15 -19  -5    2.33    0.75
 -14 -19   0    2.07    1.10
 -14 -19   0    1.01    4.64
 -14 -19   1   58.35    2.88
 -14 -19  -1   55.97    2.86
 -14 -19  -2   -0.04    0.94
 -14 -19   2    4.69    5.78
 -14 -19  -2   -0.08    1.05
 -14 -19  -3    3.28    1.03
 -14 -19   3    7.89    5.47
 -14 -19  -3    3.81    1.02
 -14 -19  -4    0.39    0.89
 -14 -19  -4   -0.45    0.88
 -14 -19   4    2.62    4.88
 -14 -19  -5   10.08    1.05
 -14 -19   6    6.59    3.53
 -14 -19  -6    0.72    0.70
 -13 -19   0   39.10    6.45
 -13 -19   0   37.61    2.32
 -13 -19   1    0.40    5.88
 -13 -19  -1    1.47    1.05
 -13 -19   1    1.01    1.17
 -13 -19   1    1.37    5.81
 -13 -19  -1    0.56    6.00
 -13 -19   2    3.00    5.09
 -13 -19  -2   -3.01    5.38
 -13 -19   2    1.96    5.35
 -13 -19  -2    1.35    1.06
 -13 -19  -2    0.89    1.13
 -13 -19   2    1.60    1.15
 -13 -19  -3   11.72    1.38
 -13 -19   3   15.33    4.52
 -13 -19   3   12.80    4.10
 -13 -19  -3   11.46    4.52
 -13 -19  -3   13.69    1.37
 -13 -19  -4   45.31    2.46
 -13 -19  -4   45.35    2.51
 -13 -19  -5    0.28    0.87
 -13 -19   6    8.33    1.13
 -13 -19  -6    4.11    0.82
 -13 -19  -6    6.02    0.98
 -13 -19   6    6.05    3.43
 -13 -19  -7   -0.07    0.69
 -13 -19   7    3.75    3.06
 -12 -19   0    2.09    1.16
 -12 -19   0   -0.49    1.26
 -12 -19  -1   11.89    1.44
 -12 -19   1    7.10    4.67
 -12 -19   1    8.04    5.50
 -12 -19  -1    5.04    5.69
 -12 -19   1   10.40    1.49
 -12 -19  -2    1.12    1.15
 -12 -19  -2    0.88    1.19
 -12 -19   2    9.69    5.36
 -12 -19  -2    6.81    5.52
 -12 -19   2   -0.10    1.27
 -12 -19   2    0.35    3.34
 -12 -19  -3   15.37    1.56
 -12 -19   3   14.16    5.36
 -12 -19  -3   20.05    5.71
 -12 -19  -3   17.41    1.56
 -12 -19   3   15.61    2.78
 -12 -19   4   19.69    2.56
 -12 -19  -4   19.10    1.62
 -12 -19  -5   52.54    2.68
 -12 -19  -5   51.42    2.73
 -12 -19   6    4.54    2.05
 -12 -19   6    3.33    1.11
 -12 -19  -6    4.31    1.01
 -12 -19  -6    2.33    0.99
 -12 -19  -6    4.84    0.94
 -12 -19   7   10.69    1.18
 -12 -19   7    9.28    2.54
 -12 -19  -7   11.63    1.10
 -11 -19   0   83.71    4.14
 -11 -19   0   89.71    4.23
 -11 -19   0   93.43    5.29
 -11 -19   1    2.66    3.41
 -11 -19  -1    2.12    3.40
 -11 -19   1    2.33    2.56
 -11 -19   1    1.33    1.15
 -11 -19  -1    1.25    1.19
 -11 -19  -1    1.22    1.36
 -11 -19   1    1.85    1.39
 -11 -19   2    4.55    3.88
 -11 -19  -2    2.78    4.09
 -11 -19   2    0.63    1.97
 -11 -19  -2    0.67    1.22
 -11 -19  -2    0.73    1.27
 -11 -19   2    1.86    1.31
 -11 -19  -3   17.26    1.74
 -11 -19   3   20.38    2.23
 -11 -19  -3   16.69    1.68
 -11 -19   3   14.37    4.74
 -11 -19  -3   22.80    4.91
 -11 -19   4   35.15    2.60
 -11 -19  -4   29.10    2.05
 -11 -19   4   27.86    5.13
 -11 -19  -4   40.20    5.39
 -11 -19  -4   33.17    2.18
 -11 -19   5    4.19    1.30
 -11 -19  -5    1.48    1.17
 -11 -19  -5    4.05    1.11
 -11 -19  -5    2.39    1.18
 -11 -19  -6   44.28    2.42
 -11 -19  -6   40.24    2.33
 -11 -19  -6   38.63    2.43
 -11 -19   6   41.83    2.51
 -11 -19   7    0.67    1.02
 -11 -19   7    2.72    1.43
 -11 -19  -7    1.34    0.89
 -11 -19   8    8.32    1.14
 -11 -19   8   11.78    1.83
 -11 -19  -8    9.28    1.01
 -10 -19   0   -0.07    2.03
 -10 -19   0    0.74    1.31
 -10 -19   1    9.79    1.51
 -10 -19  -1   10.26    1.55
 -10 -19   1   10.56    1.97
 -10 -19   1   10.40    2.29
 -10 -19  -1   12.22    2.31
 -10 -19  -1    9.73    1.55
 -10 -19   1   12.19    1.72
 -10 -19   2   17.89    2.45
 -10 -19  -2   18.60    2.60
 -10 -19   2   14.25    1.64
 -10 -19  -2   16.76    1.79
 -10 -19   2   17.84    1.95
 -10 -19  -2   17.51    1.77
 -10 -19   2   19.00    2.16
 -10 -19   3   21.13    2.23
 -10 -19   3   19.08    3.03
 -10 -19  -3   21.21    3.21
 -10 -19  -3   17.89    1.80
 -10 -19  -4   38.58    4.40
 -10 -19   4   24.70    4.20
 -10 -19  -4   33.64    2.26
 -10 -19   4   32.40    2.59
 -10 -19  -4   31.25    2.20
 -10 -19  -4   32.60    2.26
 -10 -19  -5  109.46    4.99
 -10 -19   5  107.23    5.10
 -10 -19  -5  119.55    5.03
 -10 -19  -5  105.26    5.01
 -10 -19   6    2.50    1.22
 -10 -19  -6    0.05    1.08
 -10 -19  -6    0.13    1.05
 -10 -19   6   -0.43    1.51
 -10 -19  -7    6.51    1.18
 -10 -19   7    8.21    1.50
 -10 -19   7    7.50    1.31
 -10 -19   8    1.09    0.91
 -10 -19   8   -0.14    1.11
 -10 -19  -8    0.63    0.85
 -10 -19  -8    0.40    0.79
  -9 -19   0    1.81    1.78
  -9 -19   0    2.39    1.69
  -9 -19   0    1.59    1.35
  -9 -19   1   -0.19    1.37
  -9 -19  -1    1.80    1.33
  -9 -19   1    0.59    1.76
  -9 -19  -1    1.50    1.79
  -9 -19   1   -0.20    1.63
  -9 -19   1    0.21    1.46
  -9 -19  -1    1.19    1.32
  -9 -19   2   49.90    3.14
  -9 -19   2   41.31    2.77
  -9 -19  -2   46.85    2.87
  -9 -19   2   49.48    3.04
  -9 -19  -2   45.08    2.74
  -9 -19   2   47.29    3.11
  -9 -19  -2   47.12    3.07
  -9 -19   3   15.03    2.12
  -9 -19   3   15.96    2.03
  -9 -19  -3   11.41    2.10
  -9 -19  -3   16.01    1.78
  -9 -19  -3   15.15    1.73
  -9 -19  -4   92.41    4.58
  -9 -19   4  106.49    5.02
  -9 -19   4   88.74    4.63
  -9 -19  -4   98.91    4.59
  -9 -19   4   97.87    4.90
  -9 -19  -4  103.64    5.01
  -9 -19   5    6.50    1.51
  -9 -19   5    4.38    1.84
  -9 -19  -5    5.89    1.42
  -9 -19  -5    5.18    1.35
  -9 -19   6    1.94    1.34
  -9 -19  -6    1.61    1.19
  -9 -19  -6   -0.40    1.16
  -9 -19  -6   -0.57    1.12
  -9 -19  -7    1.46    1.09
  -9 -19   7    1.60    1.23
  -9 -19  -7    5.10    1.14
  -9 -19   7    3.63    1.44
  -9 -19  -8    1.80    0.97
  -9 -19   8    1.61    1.06
  -9 -19  -8    2.97    0.95
  -9 -19   8    0.20    1.17
  -9 -19   9    0.82    0.84
  -9 -19   9    0.44    0.96
 -19   9  -9    0.55    0.85
  -9 -19  -9    1.12    0.74
  -8 -19   0    0.96    1.49
  -8 -19   0   -0.16    1.74
  -8 -19   0    3.20    1.50
  -8 -19   0    1.03    1.55
  -8 -19   1   17.30    2.05
  -8 -19   1   19.12    2.23
  -8 -19  -1   18.64    2.31
  -8 -19   1   20.70    2.22
  -8 -19  -1   16.20    1.96
  -8 -19  -1   21.06    2.06
  -8 -19   1   22.50    2.05
  -8 -19   2    9.63    1.65
  -8 -19   2    8.31    1.79
  -8 -19  -2    9.21    1.86
  -8 -19   2    7.42    1.92
  -8 -19  -2    7.85    1.61
  -8 -19   2   11.13    1.96
  -8 -19   3   61.82    3.71
  -8 -19  -3   56.79    3.32
  -8 -19   3   65.19    3.50
  -8 -19  -3   62.86    3.57
  -8 -19  -3   57.03    3.30
  -8 -19   4   69.27    3.86
  -8 -19  -4   61.15    3.42
  -8 -19   4   63.35    3.45
  -8 -19   4   61.46    3.47
  -8 -19  -4   59.33    3.51
  -8 -19  -4   60.65    3.38
  -8 -19  -5   73.52    3.73
  -8 -19  -5   72.63    3.75
  -8 -19   5   68.07    3.84
  -8 -19   5   82.44    4.22
  -8 -19   5   64.60    3.89
  -8 -19  -5   76.32    3.81
  -8 -19  -6   23.83    1.98
  -8 -19  -6   20.98    1.95
  -8 -19   6   25.75    2.11
  -8 -19  -7    5.91    1.31
  -8 -19   7    7.42    1.46
  -8 -19  -7    8.83    1.37
  -8 -19   7   10.43    1.70
  -8 -19  -8    9.76    1.35
  -8 -19   8   11.99    1.47
  -8 -19  -8   11.37    1.37
  -8 -19   8   11.22    1.58
  -8 -19   9    1.01    0.98
  -8 -19   9    0.39    1.07
 -19   8  -9    0.18    0.97
  -8 -19  -9    1.16    0.84
  -7 -19   0   10.63    2.04
  -7 -19   0    9.05    1.74
  -7 -19   0   13.88    1.98
  -7 -19   0   12.16    1.98
  -7 -19  -1   34.73    2.56
  -7 -19   1   32.74    2.67
  -7 -19   1   39.84    2.87
  -7 -19  -1   35.78    2.84
  -7 -19   1   36.50    2.72
  -7 -19  -1   41.37    2.73
  -7 -19   2   82.14    4.35
  -7 -19  -2   73.79    3.92
  -7 -19   2   77.93    4.27
  -7 -19   2   82.24    4.21
  -7 -19  -2   80.75    4.28
  -7 -19   2   71.62    4.00
  -7 -19  -3  122.04    5.72
  -7 -19   3  128.27    6.02
  -7 -19  -3  120.52    5.62
  -7 -19   3  127.47    5.77
  -7 -19  -3  129.70    5.89
  -7 -19  -3  119.57    5.74
  -7 -19  -4   82.99    4.22
  -7 -19   4   96.96    4.74
  -7 -19  -4   87.14    4.22
  -7 -19   4   73.41    4.23
  -7 -19   4   85.49    4.25
  -7 -19  -4   90.40    4.37
  -7 -19  -4   79.61    4.22
  -7 -19  -5   42.70    2.79
  -7 -19   5   52.10    3.34
  -7 -19  -5   48.12    2.91
  -7 -19   5   45.38    2.96
  -7 -19  -5   47.32    2.88
  -7 -19   5   43.70    2.80
  -7 -19  -6   -1.20    1.39
  -7 -19  -6    1.30    1.27
  -7 -19   6    1.73    1.31
  -7 -19  -7   37.64    2.44
  -7 -19  -7   35.51    2.39
  -7 -19   7   36.38    2.55
  -7 -19   7   42.46    2.77
  -7 -19  -8    9.35    1.45
  -7 -19   8   18.19    1.82
  -7 -19   8   14.14    1.65
  -7 -19  -8   13.37    1.50
  -7 -19   9    0.20    0.98
  -7 -19   9   -0.60    1.10
 -19   7  -9    0.04    1.03
  -7 -19  -9    0.72    0.92
  -6 -19   0    2.08    1.58
  -6 -19   0   -1.43    1.94
  -6 -19   0    1.37    1.65
  -6 -19   1    4.44    1.63
  -6 -19   1    5.10    1.75
  -6 -19   1    5.38    1.91
  -6 -19  -1    4.47    2.01
  -6 -19  -1    6.85    1.70
  -6 -19   2   48.44    3.27
  -6 -19  -2   49.57    3.32
  -6 -19   2   45.91    3.24
  -6 -19   2   55.23    3.44
  -6 -19  -2   45.96    2.94
  -6 -19   2   51.08    3.12
  -6 -19  -2   51.27    3.17
  -6 -19  -3   21.63    2.19
  -6 -19   3   21.16    2.51
  -6 -19   3   25.25    2.30
  -6 -19  -3   25.07    2.34
  -6 -19  -3   23.44    2.19
  -6 -19  -3   25.77    2.09
  -6 -19   4    2.70    1.54
  -6 -19  -4    6.37    1.62
  -6 -19  -4    3.28    1.41
  -6 -19   4    5.55    1.53
  -6 -19   4    4.75    2.04
  -6 -19  -4    5.84    1.55
  -6 -19  -4    4.19    1.50
  -6 -19  -5   19.93    1.95
  -6 -19   5   25.60    2.51
  -6 -19  -5   18.72    2.00
  -6 -19   5   24.58    2.23
  -6 -19  -5   25.13    2.09
  -6 -19   5   19.47    1.91
  -6 -19  -5   23.18    2.02
  -6 -19  -6   11.94    1.70
  -6 -19  -6   13.06    1.68
  -6 -19   6   14.32    1.86
  -6 -19   7   48.95    2.99
  -6 -19  -7   48.84    2.76
  -6 -19   7   35.84    2.71
  -6 -19  -7   36.75    2.54
  -6 -19   8   12.37    1.59
 -19   6  -8   13.39    1.73
  -6 -19   8   15.26    1.76
  -6 -19   9    2.72    1.15
 -19   6  -9    1.79    1.17
  -6 -19   9    4.12    1.28
  -6 -19  -9    3.66    0.98
  -6 -19  10   -0.59    0.88
 -19   6 -10    0.38    0.77
  -6 -19  10    0.67    0.82
  -5 -19   0    7.54    2.08
  -5 -19   0   11.12    2.06
  -5 -19   0    6.35    1.84
  -5 -19   1    7.37    1.87
  -5 -19  -1    5.59    1.85
  -5 -19   1    7.62    1.77
  -5 -19  -1    4.74    1.67
  -5 -19   1    6.84    1.80
  -5 -19  -2   21.32    2.20
  -5 -19   2   20.99    2.37
  -5 -19  -2   21.01    2.36
  -5 -19   2   22.07    2.24
  -5 -19  -2   18.46    2.05
  -5 -19  -3   37.77    2.50
  -5 -19   3   31.09    2.79
  -5 -19  -3   30.94    2.48
  -5 -19   3   32.05    2.55
  -5 -19  -3   33.89    2.69
  -5 -19  -3   31.65    2.56
  -5 -19  -4   34.50    2.41
  -5 -19  -4   27.95    2.34
  -5 -19   4   27.89    2.31
  -5 -19  -4   29.51    2.46
  -5 -19   4   36.15    2.81
  -5 -19  -4   29.52    2.39
  -5 -19   4   25.26    2.25
  -5 -19   5    0.56    1.42
  -5 -19  -5    0.45    1.35
  -5 -19  -5    0.81    1.35
  -5 -19   5    1.08    1.29
  -5 -19  -5    1.09    1.37
  -5 -19   5   -1.24    1.95
  -5 -19  -6    2.93    1.41
  -5 -19  -6    3.92    1.35
  -5 -19   6    2.76    1.51
  -5 -19  -7    3.41    1.26
  -5 -19   7    5.37    1.47
  -5 -19  -7    2.73    1.40
  -5 -19   7    4.63    1.74
  -5 -19   8    7.12    1.47
 -19   5  -8   10.28    1.68
  -5 -19   8   11.34    1.72
  -5 -19  -8    9.29    1.31
  -5 -19   9    0.96    1.11
 -19   5  -9    0.75    1.13
  -5 -19   9    0.71    1.24
  -5 -19  -9    1.58    0.92
 -19   5 -10    1.41    0.87
  -5 -19  10    2.79    0.98
  -5 -19  10    0.71    0.97
  -4 -19   0    0.60    1.70
  -4 -19   0    0.50    1.61
  -4 -19   1   48.80    3.10
  -4 -19  -1   46.48    3.01
  -4 -19   1   43.39    3.18
  -4 -19  -1   46.35    3.30
  -4 -19   1   50.77    3.27
  -4 -19  -1   51.59    3.19
  -4 -19   2    8.64    1.85
  -4 -19  -2   12.87    2.12
  -4 -19  -2    9.66    1.81
  -4 -19  -2    8.89    1.71
  -4 -19   2    4.93    1.86
  -4 -19  -3   70.51    3.75
  -4 -19   3   71.85    4.18
  -4 -19  -3   71.32    3.96
  -4 -19   3   68.47    3.91
  -4 -19  -3   80.59    4.17
  -4 -19  -3   76.34    4.03
  -4 -19  -4   23.07    2.01
  -4 -19  -4   20.68    2.06
  -4 -19   4   20.35    2.41
  -4 -19   4   19.08    2.01
  -4 -19   4   21.93    2.12
  -4 -19  -4   22.99    2.20
  -4 -19  -4   23.04    2.16
  -4 -19  -5   20.66    2.06
  -4 -19   5   21.54    2.12
  -4 -19  -5   22.16    2.04
  -4 -19   5   23.93    2.49
  -4 -19   5   20.31    1.95
  -4 -19  -5   25.44    2.13
  -4 -19  -6    1.36    1.33
  -4 -19  -6    3.19    1.27
  -4 -19   6    0.75    1.40
  -4 -19   7    6.21    1.48
  -4 -19  -7    4.87    1.42
 -19   4  -7    9.38    1.88
  -4 -19   7    5.90    1.77
  -4 -19  -7    4.13    1.24
 -19   4  -8   -0.12    1.40
  -4 -19   8    1.56    1.24
  -4 -19   8   -0.80    1.42
  -4 -19  -8    0.89    1.05
 -19   4  -9    4.24    1.31
  -4 -19   9    4.28    1.25
  -4 -19   9    4.40    1.40
  -4 -19  -9    4.90    1.11
  -4 -19  10    0.34    0.95
  -4 -19  10    2.28    1.00
 -19   4 -10    1.00    0.89
  -3 -19   0  231.74    9.92
 -19   3  -1    1.85    1.56
  -3 -19   1    0.93    1.62
  -3 -19   1    2.49    1.88
  -3 -19  -1    2.70    1.84
  -3 -19  -1    3.40    1.75
  -3 -19   1    1.63    1.84
  -3 -19  -1    0.17    1.88
  -3 -19  -2   56.45    3.52
  -3 -19  -2   54.99    3.33
  -3 -19   2   62.12    3.62
  -3 -19   2   59.07    3.48
  -3 -19  -2   61.91    3.71
  -3 -19  -2   51.03    3.18
  -3 -19  -3   93.57    4.75
  -3 -19   3   95.46    4.80
  -3 -19  -3  102.43    5.06
  -3 -19   3   94.35    4.99
  -3 -19  -3  100.05    4.96
  -3 -19  -3   94.84    4.63
  -3 -19   4    2.29    1.34
  -3 -19  -4    3.01    1.44
  -3 -19   4    4.91    1.63
  -3 -19  -4    4.28    1.68
  -3 -19  -4    3.64    1.53
  -3 -19   4    5.14    1.91
  -3 -19   5    0.35    1.36
  -3 -19  -5   -0.84    1.33
  -3 -19   5   -0.72    1.27
  -3 -19  -5    1.03    1.43
  -3 -19  -5    1.25    1.29
  -3 -19   5   -0.70    1.87
  -3 -19   6    0.07    1.68
  -3 -19  -6    0.57    1.22
  -3 -19   6    0.07    1.32
  -3 -19  -6   -1.11    1.30
 -19   3  -7   -0.30    1.62
  -3 -19   7    0.63    1.27
  -3 -19  -7    0.39    1.12
  -3 -19   8    2.49    1.25
 -19   3  -8   -0.26    1.47
  -3 -19   8    1.86    1.48
  -3 -19  -8   -0.30    1.06
  -3 -19   9   -0.49    1.16
  -3 -19  -9   -0.42    0.94
  -3 -19   9   -1.02    1.28
 -19   3  -9    0.57    1.20
  -3 -19  10    2.48    1.11
  -3 -19  10    2.10    1.03
 -19   3 -10    0.91    0.93
  -2 -19   0    2.01    1.92
  -2 -19   0    1.88    1.97
  -2 -19   1   72.74    4.10
  -2 -19   1   81.70    4.40
  -2 -19  -1   83.96    4.52
 -19   2  -1   78.14    4.15
  -2 -19  -1   83.85    4.43
  -2 -19  -2    1.13    1.38
 -19   2  -2    1.78    1.48
  -2 -19  -2    1.74    1.59
  -2 -19   2   -0.94    1.73
  -2 -19  -2    1.61    1.79
  -2 -19   2    0.15    1.62
  -2 -19  -3   26.34    2.28
  -2 -19  -3   23.70    2.10
  -2 -19   3   22.12    2.46
 -19   2  -3   25.67    2.44
  -2 -19   3   27.45    2.31
  -2 -19  -3   23.88    2.43
 -19   2  -4    1.26    1.78
  -2 -19  -4    0.84    1.41
  -2 -19  -4    0.97    1.58
  -2 -19   4   -0.35    1.49
  -2 -19  -4    1.62    1.34
  -2 -19   4    0.66    1.31
  -2 -19  -4    2.89    1.47
  -2 -19   4    0.71    1.79
 -19   2  -5   25.08    2.71
  -2 -19  -5   25.86    2.09
  -2 -19   5   20.01    2.08
  -2 -19   5   27.76    2.51
  -2 -19   5   21.32    2.05
  -2 -19  -5   26.39    2.25
  -2 -19  -5   21.46    2.05
  -2 -19   6    1.07    1.63
  -2 -19   6    0.80    1.29
  -2 -19  -6    0.25    1.17
  -2 -19  -6   -0.18    1.24
 -19   2  -7   -0.23    1.67
  -2 -19  -7   -1.22    1.15
  -2 -19   7   -0.57    1.30
  -2 -19   8    3.36    1.35
 -19   2  -8    4.16    1.57
  -2 -19  -8    3.22    1.10
  -2 -19   8    4.99    1.57
 -19   2  -9    6.66    1.39
  -2 -19   9    3.42    1.31
  -2 -19   9    3.20    1.41
  -2 -19  10    3.82    1.13
 -19   2 -10    1.25    0.94
 -19   2 -10    1.82    1.10
  -2 -19  10    2.88    1.02
 -19   2 -11    1.21    0.79
  -1 -19   0   41.23    3.13
  -1 -19   0   40.16    2.99
  -1 -19   1   83.80    4.51
  -1 -19  -1   88.47    4.64
  -1 -19   1   75.41    4.18
  -1 -19   1   85.31    4.42
 -19   1  -1   82.51    4.34
  -1 -19  -1   90.72    4.47
  -1 -19   2    4.91    1.78
  -1 -19  -2    7.08    1.87
 -19   1  -2    6.31    1.75
  -1 -19   2    8.31    1.77
  -1 -19   2    7.45    1.82
  -1 -19  -2    8.37    1.77
  -1 -19  -2    8.33    1.82
  -1 -19   3    7.35    1.73
  -1 -19  -3    5.39    1.76
  -1 -19  -3    1.44    1.52
 -19   1  -3    5.04    1.68
  -1 -19   3    3.13    1.82
  -1 -19   3    2.85    1.61
  -1 -19  -3    3.22    1.53
  -1 -19  -4   59.36    3.19
  -1 -19  -4   51.42    3.24
  -1 -19   4   57.57    3.33
  -1 -19  -4   56.80    3.41
  -1 -19   4   55.38    3.50
  -1 -19   4   59.03    3.55
 -19   1  -4   53.69    3.70
  -1 -19   5    2.26    1.67
  -1 -19  -5    5.12    1.42
  -1 -19  -5    2.20    1.40
  -1 -19   5    6.42    1.50
  -1 -19   5    5.10    1.46
  -1 -19  -5    3.31    1.48
 -19   1  -5    1.96    1.95
  -1 -19  -5    2.91    1.32
  -1 -19   5    4.92    1.75
  -1 -19  -6    9.77    1.56
  -1 -19  -6    8.54    1.47
  -1 -19   6   13.84    1.93
  -1 -19   6    9.84    1.69
 -19   1  -7   -0.16    1.64
  -1 -19   7    0.06    1.28
  -1 -19   8   10.24    1.76
  -1 -19   8    7.54    1.50
 -19   1  -8    9.57    1.73
 -19   1  -8    8.23    1.85
  -1 -19   9   -0.60    1.16
 -19   1  -9    1.29    1.21
  -1 -19   9    2.18    1.37
  -1 -19  10    4.63    1.21
 -19   1 -10    3.62    1.11
 -19   1 -10    3.25    1.23
  -1 -19  10    2.68    1.09
 -19   1 -11    0.92    0.78
  -1 -19  11    0.03    0.78
   0 -19   0   -0.58    1.72
   0 -19   1   27.37    2.53
   0 -19  -1   25.66    2.47
   0 -19   1   20.36    2.16
 -19   0  -1   24.40    2.14
   0 -19  -2    0.63    1.58
   0 -19   2    1.13    1.58
   0 -19   2   -1.48    1.56
 -19   0  -2   -0.32    1.59
   0 -19  -2    0.83    1.60
   0 -19   2   -0.15    1.67
   0 -19  -2   -0.88    1.46
   0 -19   3    3.93    1.65
   0 -19  -3    2.56    1.59
   0 -19   3    2.73    1.69
   0 -19  -3    5.01    1.69
   0 -19   3    4.19    1.63
 -19   0  -3    3.19    1.79
 -19   0  -3    1.15    1.47
   0 -19  -3    4.90    1.46
   0 -19  -4    1.44    1.49
   0 -19   4    3.88    1.74
   0 -19   4    4.97    1.63
 -19   0  -4    5.70    1.76
   0 -19   4    4.03    1.59
   0 -19  -4    3.10    1.61
   0 -19  -4    2.63    1.36
   0 -19  -5   68.53    3.75
 -19   0  -5   74.22    4.47
   0 -19  -5   68.70    3.96
   0 -19   5   82.26    4.21
   0 -19   5   75.06    4.11
   0 -19   5   73.20    3.87
   0 -19  -5   78.84    3.95
   0 -19  -6    9.29    1.60
   0 -19   6    9.58    1.92
 -19   0  -7   15.17    2.17
 -19   0  -7   12.38    2.08
   0 -19   8    1.35    1.24
 -19   0  -8    2.66    1.55
 -19   0  -8    0.20    1.41
   0 -19   8    1.70    1.47
   0 -19   9    7.53    1.35
   0 -19   9    8.91    1.55
 -19   0  -9    7.91    1.47
   0 -19  10   -0.25    1.02
 -19   0 -10    0.83    1.12
   0 -19  10    1.38    1.12
 -19   0 -10    1.05    0.99
 -19   0 -11    3.07    0.95
   0 -19  11    3.97    0.88
   1 -19   0   21.07    1.97
   1 -19   0   22.81    2.29
 -19  -1   0   20.44    1.96
 -19  -1  -1    0.37    1.40
   1 -19  -1    0.91    1.73
   1 -19   1    0.94    1.65
   1 -19   1    0.88    1.36
   1 -19   2    3.20    1.53
   1 -19  -2    3.64    1.70
 -19  -1  -2    4.28    1.71
   1 -19   2    5.80    1.57
   1 -19   2    4.75    1.71
   1 -19  -2    5.12    1.66
 -19  -1  -3   21.36    2.18
 -19  -1  -3   25.97    2.43
   1 -19   3   22.09    2.29
   1 -19  -3   23.22    2.30
   1 -19   3   20.12    2.22
   1 -19   3   23.04    2.25
   1 -19  -3   25.85    2.26
   1 -19   4    0.84    1.48
   1 -19   4    1.03    1.46
   1 -19  -4    3.20    1.54
   1 -19  -4   -0.52    1.56
 -19  -1  -4   -0.08    1.46
 -19  -1  -4    1.12    1.80
   1 -19   4    2.02    1.60
   1 -19   5    3.47    1.65
   1 -19  -5    0.78    1.45
 -19  -1  -5    1.30    1.76
   1 -19   5    0.19    1.26
 -19  -1  -5    0.81    1.66
   1 -19   5    0.57    1.53
   1 -19   5    1.38    1.35
   1 -19  -5    1.37    1.35
   1 -19   6   12.19    1.65
 -19  -1  -6   12.28    2.13
   1 -19   6   13.63    1.95
   1 -19  -6   11.74    1.77
 -19  -1  -6   12.75    2.15
 -19  -1  -7    2.49    1.63
   1 -19   7    1.81    1.25
 -19  -1  -7    0.53    1.67
   1 -19   8    7.92    1.63
 -19  -1  -8    6.72    1.76
 -19  -1  -8    8.35    1.74
   1 -19   9    1.96    1.31
   1 -19   9    1.08    1.15
 -19  -1  -9   -0.43    1.24
   1 -19  10    3.19    1.20
 -19  -1 -10    4.96    1.09
   1 -19  10    2.19    1.08
 -19  -1 -10    4.45    1.33
   1 -19  11    2.47    0.87
 -19  -1 -11    3.27    0.92
   2 -19   0   -0.72    1.74
   2 -19   0    0.47    1.29
 -19  -2   0   -0.20    1.32
   2 -19   1    0.85    1.55
   2 -19  -1    2.35    1.62
   2 -19   1    0.93    1.36
 -19  -2  -1    2.69    1.41
   2 -19  -2    5.47    1.80
 -19  -2  -2    1.92    1.54
   2 -19   2    4.38    1.45
   2 -19   2    5.37    1.66
   2 -19  -2    3.43    1.72
   2 -19   2    3.80    1.53
   2 -19  -3    4.87    1.77
 -19  -2  -3    5.58    1.73
   2 -19   3    4.82    1.53
 -19  -2  -3    5.22    1.44
   2 -19   3    5.59    1.65
   2 -19   3    4.29    1.53
   2 -19  -3    8.46    1.80
   2 -19  -4    7.23    1.75
   2 -19   4    7.08    1.68
 -19  -2  -4    8.34    1.76
   2 -19   4    8.62    1.66
   2 -19   4    7.01    1.55
   2 -19  -4    7.60    1.66
 -19  -2  -4    6.46    1.85
   2 -19   5    3.54    1.40
   2 -19  -5    4.87    1.49
   2 -19   5    1.93    1.35
   2 -19  -5    4.76    1.62
 -19  -2  -5    4.30    1.75
   2 -19   5    2.63    1.65
   2 -19   5    4.20    1.62
   2 -19   6    2.04    1.57
 -19  -2  -6    0.40    1.60
   2 -19  -6   -1.08    1.44
 -19  -2  -6    0.16    1.72
   2 -19   6    2.16    1.59
   2 -19   6    0.68    1.20
 -19  -2  -7    4.91    1.79
   2 -19   7    2.66    1.34
 -19  -2  -7    4.34    1.72
   2 -19   7    1.85    1.62
   2 -19   8    0.16    1.19
 -19  -2  -8   -0.69    1.53
   2 -19   8    0.40    1.42
 -19  -2  -8   -0.39    1.34
   2 -19   9    1.87    1.31
 -19  -2  -9    5.11    1.32
   2 -19  10    4.21    1.11
 -19  -2 -10    4.53    1.10
   2 -19  10    5.84    1.30
 -19  -2 -10    6.98    1.33
 -19  -2 -11    2.99    0.90
 -19  -3   0   17.58    1.83
   3 -19   0   15.88    2.04
   3 -19   0   12.05    1.66
   3 -19   1   21.66    2.00
   3 -19   1   21.93    2.14
   3 -19  -1   22.25    2.24
 -19  -3  -1   25.21    2.18
   3 -19  -2   23.10    2.23
 -19  -3  -2   18.57    1.98
   3 -19   2   19.23    2.01
   3 -19   2   18.90    2.01
   3 -19  -2   18.55    2.20
   3 -19   2   14.39    1.82
   3 -19  -3    0.24    1.64
 -19  -3  -3    0.56    1.55
   3 -19   3   -0.07    1.42
 -19  -3  -3    0.07    1.34
   3 -19  -3    1.19    1.52
   3 -19   3    0.21    1.39
 -19  -3  -4   21.66    2.23
   3 -19  -4   20.42    2.16
 -19  -3  -4   21.17    2.33
   3 -19   4   24.43    2.16
   3 -19   4   25.27    2.10
   3 -19  -4   22.91    2.15
   3 -19   5    3.74    1.29
 -19  -3  -5    4.21    1.72
   3 -19  -5    4.86    1.37
   3 -19   5    5.09    1.38
   3 -19  -5    3.64    1.57
   3 -19   6   10.94    1.90
 -19  -3  -6   14.20    2.10
   3 -19   6   12.61    1.61
   3 -19  -6    9.90    1.78
 -19  -3  -6   10.10    2.04
   3 -19   6   13.30    1.92
 -19  -3  -7   17.35    2.27
   3 -19   7   16.51    2.01
 -19  -3  -7   17.93    2.20
   3 -19   8    3.09    1.50
 -19  -3  -8    3.45    1.65
 -19  -3  -8    2.02    1.46
   3 -19   8    3.01    1.27
   3 -19   9    1.06    1.25
   3 -19   9    2.82    1.12
 -19  -3  -9    2.53    1.23
   3 -19  10    5.77    1.20
   3 -19  10    5.52    1.08
 -19  -3 -10    3.57    1.25
 -19  -3 -10    4.13    1.02
 -19  -4   0    0.07    1.32
   4 -19   0    0.52    1.28
   4 -19   0   -0.86    1.64
 -19  -4  -1    8.43    1.61
   4 -19   1    7.90    1.76
   4 -19  -1    8.64    1.86
   4 -19   1    9.96    1.61
 -19  -4  -2   23.45    2.21
   4 -19   2   23.16    2.20
   4 -19  -2   23.06    2.27
   4 -19   2   20.18    2.01
   4 -19  -2   23.86    2.41
 -19  -4  -3   41.51    2.79
   4 -19  -3   47.36    3.00
   4 -19   3   41.42    2.78
   4 -19   3   42.89    2.82
   4 -19  -3   39.23    2.81
   4 -19   3   41.99    2.77
 -19  -4  -3   43.45    2.95
   4 -19   4    4.02    1.53
   4 -19   4    1.73    1.54
   4 -19   4    1.06    1.40
   4 -19  -4    1.01    1.44
 -19  -4  -4    4.15    1.54
   4 -19  -4    2.73    1.66
 -19  -4  -4    1.85    1.68
 -19  -4  -5    7.27    1.80
   4 -19  -5    7.22    1.68
   4 -19   5    4.39    1.42
   4 -19  -5    4.78    1.42
   4 -19   5    6.08    1.63
 -19  -4  -6   36.08    2.92
   4 -19  -6   33.43    2.71
   4 -19   6   37.68    2.69
   4 -19   6   29.71    2.38
   4 -19   6   41.40    2.80
 -19  -4  -6   40.63    2.93
   4 -19   7    0.65    1.46
 -19  -4  -7    3.35    1.54
 -19  -4  -7    0.49    1.48
   4 -19   7   -1.60    1.43
   4 -19   7   -0.33    1.20
 -19  -4  -8    1.37    1.43
 -19  -4  -8   -0.48    1.40
   4 -19   8    1.13    1.34
   4 -19   9    0.40    1.05
   4 -19   9    1.25    1.23
 -19  -4  -9    1.73    1.13
   4 -19  10    1.86    0.91
   4 -19  10    1.32    1.01
 -19  -4 -10    1.37    0.86
 -19  -4 -10    1.08    1.03
   5 -19   0   21.42    1.92
 -19  -5   0   24.08    2.02
   5 -19   0   20.32    2.24
   5 -19   1   14.26    1.90
   5 -19  -1   14.94    1.92
 -19  -5  -1   14.74    1.76
   5 -19   1   13.77    1.73
   5 -19   2   65.38    3.63
   5 -19   2   70.95    3.87
   5 -19  -2   77.19    3.99
   5 -19   2   72.50    3.79
 -19  -5  -2   74.19    3.94
   5 -19   3   13.43    1.78
   5 -19   3   12.33    1.74
   5 -19  -3   15.34    1.92
 -19  -5  -3    9.31    1.64
   5 -19  -3    9.11    1.98
   5 -19   3   12.18    1.73
 -19  -5  -3   12.31    1.83
   5 -19   4    2.88    1.50
   5 -19   4    3.85    1.40
   5 -19  -4    5.32    1.53
 -19  -5  -4    4.60    1.53
   5 -19  -4    3.71    1.62
   5 -19   4    5.07    1.59
 -19  -5  -4    2.82    1.55
 -19  -5  -5    6.08    1.66
   5 -19  -5    6.85    1.71
   5 -19   5    5.90    1.59
   5 -19   5    6.46    1.41
   5 -19  -5    6.32    1.43
   5 -19  -6   13.78    1.91
   5 -19   6   14.50    1.82
   5 -19   6   15.23    1.89
 -19  -5  -6   12.83    1.97
 -19  -5  -6   12.46    2.04
   5 -19   7    0.53    1.11
 -19  -5  -7    0.83    1.49
   5 -19   7    0.83    1.34
 -19  -5  -7   -0.40    1.48
   5 -19   8    4.94    1.26
 -19  -5  -8    5.39    1.50
 -19  -5  -8   10.12    1.67
   5 -19   8    6.47    1.48
   5 -19   9   -1.75    1.20
   5 -19   9    1.71    1.03
 -19  -5  -9   -0.13    1.05
   5 -19  10    3.59    1.08
 -19  -5 -10    0.39    1.02
 -19  -6   0   -0.13    1.24
   6 -19   0   -0.46    1.65
   6 -19   0    0.95    1.23
   6 -19   1   30.95    2.55
   6 -19  -1   33.50    2.63
   6 -19  -1   35.85    2.75
 -19  -6  -1   36.24    2.54
   6 -19   1   33.37    2.38
   6 -19   2    2.26    1.36
   6 -19  -2    1.07    1.68
 -19  -6  -2    0.29    1.43
   6 -19   2    0.80    1.29
   6 -19   2   -0.21    1.48
   6 -19  -2   -0.07    1.51
   6 -19   3    3.34    1.49
   6 -19  -3    4.64    1.52
 -19  -6  -3    6.41    1.53
 -19  -6  -3    5.58    1.39
   6 -19   3    4.67    1.47
   6 -19   3    4.35    1.50
   6 -19   4   11.82    1.69
   6 -19  -4   10.66    1.63
 -19  -6  -4    9.27    1.71
 -19  -6  -4   11.54    1.85
   6 -19   4    7.94    1.68
   6 -19   4    9.43    1.68
   6 -19  -5   46.24    3.03
   6 -19   5   45.64    2.91
   6 -19   5   41.63    2.72
 -19  -6  -5   47.81    3.02
   6 -19   6    5.25    1.53
 -19  -6  -6    7.83    1.68
   6 -19   6    5.67    1.57
 -19  -6  -6    5.96    1.66
   6 -19  -6    4.11    1.61
   6 -19   7    2.12    1.39
 -19  -6  -7    1.05    1.45
 -19  -6  -7    4.51    1.50
   6 -19   7    2.86    1.40
 -19  -6  -8    2.22    1.41
 -19  -6  -8    4.55    1.34
   6 -19   8    4.98    1.33
   6 -19   8    3.05    1.14
   6 -19   9    1.40    1.16
 -19  -6  -9    3.53    1.09
   6 -19  10    0.43    0.93
 -19  -6 -10    0.42    0.90
   6 -19  10   -0.15    0.79
   7 -19   0   15.92    2.04
 -19  -7   0   17.40    1.78
   7 -19  -1    7.56    1.89
   7 -19   1    5.05    1.56
   7 -19  -1    6.61    1.64
 -19  -7   1    3.16    1.30
 -19  -7  -1    5.85    1.46
   7 -19  -2    5.91    1.78
   7 -19   2    4.50    1.56
   7 -19  -2    2.79    1.56
 -19  -7  -2    4.59    1.55
 -19  -7  -3   36.04    2.47
   7 -19   3   32.21    2.39
   7 -19   3   37.43    2.55
   7 -19  -3   33.59    2.49
 -19  -7  -3   37.24    2.63
   7 -19   3   34.19    2.53
   7 -19  -3   39.32    2.79
 -19  -7  -4   47.00    3.04
   7 -19  -4   54.39    3.29
   7 -19   4   47.23    3.01
 -19  -7  -4   57.23    3.33
   7 -19   4   54.20    3.12
   7 -19   4   52.67    3.07
   7 -19  -4   50.47    3.03
   7 -19   5   11.08    1.71
   7 -19   5   10.35    1.48
 -19  -7  -5   13.89    1.81
   7 -19   6    1.51    1.38
 -19  -7  -6    1.94    1.36
   7 -19   6    1.50    1.38
 -19  -7  -6    0.72    1.39
   7 -19   7    1.70    1.33
 -19  -7  -7    0.19    1.37
   7 -19   7    2.87    1.30
 -19  -7  -7   -0.24    1.25
 -19  -7  -8   20.35    1.90
 -19  -7  -8   17.80    1.75
   7 -19   8   14.77    1.70
   7 -19   9    9.81    1.32
 -19  -7  -9    7.39    1.20
 -19  -7 -10    2.01    0.86
   7 -19  10    1.09    0.83
 -19  -8   0    0.19    1.36
   8 -19   0    1.31    1.58
   8 -19   0   -0.17    1.65
 -19  -8   1   73.83    3.75
 -19  -8  -1   77.06    3.88
   8 -19   1   68.40    3.95
   8 -19  -1   70.65    3.95
   8 -19  -1   84.60    4.22
 -19  -8  -2   17.91    1.90
   8 -19  -2   23.47    2.25
   8 -19   2   22.78    2.12
   8 -19  -2   20.98    2.04
 -19  -8  -3    8.35    1.70
 -19  -8  -3    8.37    1.42
   8 -19   3    6.08    1.42
   8 -19   3    6.54    1.59
   8 -19  -3    7.90    1.55
   8 -19  -3    8.99    1.86
 -19  -8  -4   26.96    2.15
   8 -19  -4   26.74    2.35
   8 -19   4   25.99    2.15
 -19  -8  -4   24.35    2.36
   8 -19   4   27.31    2.21
   8 -19   4   25.12    2.15
   8 -19  -4   26.27    2.10
   8 -19  -5    1.07    1.47
 -19  -8  -5    2.45    1.36
   8 -19   5    1.16    1.35
 -19  -8  -5    1.15    1.53
   8 -19   5    1.35    1.19
   8 -19   6   15.69    1.79
   8 -19  -6   15.24    1.83
 -19  -8  -6   19.73    1.98
 -19  -8  -6   15.50    1.84
   8 -19   6   15.07    1.85
   8 -19   7   26.41    2.10
 -19  -8  -7   32.37    2.24
 -19  -8  -7   26.19    2.23
   8 -19   7   28.09    2.19
 -19  -8  -8    8.65    1.37
 -19  -8  -8    7.34    1.44
   8 -19   8   11.81    1.40
 -19  -8  -9    4.51    1.02
   8 -19   9    4.31    1.13
   9 -19   0  110.40    5.16
 -19  -9   0  101.65    4.71
   9 -19   1    0.90    1.48
   9 -19  -1    0.84    1.48
 -19  -9  -1    2.37    1.39
   9 -19   1    1.70    1.82
   9 -19  -1    1.90    1.76
   9 -19   2    1.33    1.49
   9 -19  -2    1.75    1.51
 -19  -9  -2    2.95    1.45
   9 -19  -2    2.52    1.66
 -19  -9  -3    3.79    1.32
   9 -19  -3    4.02    1.60
   9 -19   3    5.55    1.54
   9 -19  -3    4.31    1.50
 -19  -9  -3    2.72    1.47
 -19  -9  -4    0.87    1.24
   9 -19  -4    0.90    1.52
   9 -19   4    0.90    1.27
   9 -19   4    1.48    1.35
   9 -19  -4    0.93    1.26
   9 -19   4    1.13    1.43
   9 -19  -5   10.39    1.72
 -19  -9  -5    9.47    1.59
   9 -19   5    9.47    1.56
 -19  -9  -5   10.07    1.73
   9 -19   5    9.39    1.65
   9 -19   6   35.52    2.45
 -19  -9  -6   39.27    2.64
   9 -19   6   41.57    2.55
 -19  -9  -6   34.92    2.54
   9 -19   7    1.79    1.25
 -19  -9  -7    2.68    1.21
 -19  -9  -7    2.39    1.31
   9 -19   7    3.32    1.26
 -19  -9  -8    6.22    1.17
   9 -19   8    5.25    1.18
 -19  -9  -8    6.08    1.29
   9 -19   9    1.65    0.98
 -19 -10   0   -0.12    1.24
  10 -19   0    1.42    1.43
  10 -19   0    0.57    1.70
 -19 -10  -1    0.79    1.26
  10 -19   1   -0.20    1.53
  10 -19  -1   -1.48    1.43
  10 -19   1   -0.56    1.67
  10 -19  -1    0.40    1.55
 -19 -10  -2    8.38    1.50
  10 -19   2    8.03    1.55
  10 -19  -2    5.84    1.52
  10 -19   2    9.26    1.71
  10 -19  -2    7.64    1.83
 -19 -10  -3    0.31    1.38
  10 -19  -3    1.82    1.64
  10 -19   3    2.32    1.35
  10 -19  -3    1.77    1.37
  10 -19   4   41.53    2.70
  10 -19   4   48.25    2.80
  10 -19  -4   48.51    2.86
  10 -19  -4   55.86    3.11
 -19 -10  -4   48.99    2.82
  10 -19  -5   54.93    3.13
 -19 -10  -5   53.75    3.08
  10 -19   5   58.85    3.06
 -19 -10  -5   52.01    2.96
 -19 -10  -6   15.92    1.73
  10 -19   6   16.27    1.65
 -19 -10  -6   14.15    1.62
  10 -19   6   15.58    1.70
 -19 -10  -7    3.23    1.14
  10 -19   7    3.21    1.17
  10 -19   7    4.41    1.17
 -19 -10  -7    3.34    1.21
 -19 -10  -8    0.60    0.85
 -19 -10  -8    0.15    1.01
  10 -19   8    1.12    1.02
  10 -19   8    0.79    0.93
  11 -19   0   20.46    1.96
 -19 -11   0   19.38    1.78
 -19 -11  -1    2.10    1.20
  11 -19   1    0.29    1.45
  11 -19  -1   -0.23    1.60
  11 -19   1    2.07    1.41
  11 -19  -1    1.90    1.41
 -19 -11  -2    5.43    1.36
  11 -19   2    6.67    1.39
  11 -19  -2    5.79    1.49
  11 -19   2    6.35    1.50
  11 -19  -2    8.21    1.79
  11 -19   3   23.62    1.98
  11 -19  -3   22.97    2.01
 -19 -11  -3   22.65    2.02
  11 -19   3   22.63    1.94
  11 -19  -3   25.56    2.25
 -19 -11  -4   58.56    3.01
  11 -19   4   51.79    2.96
  11 -19  -4   60.97    3.14
  11 -19  -4   65.17    3.33
  11 -19   4   49.82    2.93
 -19 -11  -5    3.60    1.26
  11 -19   5    0.84    1.22
 -19 -11  -5    1.65    1.17
  11 -19   5    2.44    1.20
 -19 -11  -6    6.79    1.26
  11 -19   6    5.29    1.27
  11 -19   6    7.45    1.23
 -19 -11  -6    4.50    1.25
 -19 -11  -7    1.49    0.99
  11 -19   7    2.94    1.10
  11 -19   7    3.10    1.06
 -19 -11  -7    2.48    1.05
 -19 -11  -8    2.86    0.81
  11 -19   8    1.87    0.85
 -19 -11  -8    3.49    0.94
 -19 -12   0   -0.45    1.08
  12 -19   0   -2.14    1.52
  12 -19   0   -1.42    1.33
  12 -19   1   36.05    2.61
  12 -19  -1   39.10    2.66
 -19 -12  -1   42.45    2.50
  12 -19   1   49.22    2.74
  12 -19  -1   55.14    2.98
 -19 -12  -2    1.63    1.23
  12 -19   2    4.36    1.31
  12 -19  -2    6.04    1.56
  12 -19   2    4.30    1.37
  12 -19  -2    3.18    1.34
  12 -19  -3   21.03    1.99
  12 -19   3   15.82    1.69
  12 -19  -3   20.01    1.84
 -19 -12  -3   18.33    1.71
  12 -19  -4    2.52    1.37
  12 -19   4   -0.77    1.12
  12 -19  -4   -1.04    1.19
 -19 -12  -5   30.84    2.05
  12 -19   5   30.34    2.06
 -19 -12  -5   26.81    1.91
 -19 -12  -6   12.85    1.41
  12 -19   6   12.01    1.37
  12 -19   6   14.82    1.48
 -19 -12  -6   14.78    1.43
 -19 -12  -7    1.01    0.84
  12 -19   7    1.36    0.93
 -19 -12  -7    0.14    0.88
  12 -19   7    1.39    0.90
 -19 -13   0    8.97    1.22
  13 -19   0    5.45    1.39
  13 -19  -1    5.22    1.38
 -19 -13  -1    3.74    1.13
  13 -19   1    4.08    1.34
  13 -19  -1    3.24    1.30
 -19 -13  -2   53.89    2.86
  13 -19   2   47.70    2.92
  13 -19  -2   50.59    2.95
  13 -19   3    2.35    1.15
  13 -19  -3    1.26    1.22
 -19 -13  -3    0.84    1.11
  13 -19  -3    0.61    1.30
  13 -19  -4   22.60    1.74
 -19 -13  -5    1.05    0.99
 -19 -13  -5    2.45    0.94
  13 -19   5    1.68    1.09
 -19 -13  -6    7.94    1.14
  13 -19   6    9.86    1.21
 -19 -13  -6    9.51    1.11
 -19 -13  -7    0.80    0.76
  14 -19   0   -0.10    1.09
 -19 -14  -1   10.20    1.21
  14 -19   1    7.58    1.28
  14 -19  -1    8.16    1.32
 -19 -14  -2    7.19    1.16
  14 -19   2    5.44    1.24
  14 -19  -2    8.58    1.34
  14 -19   3   16.21    1.55
  14 -19  -3   20.75    1.69
 -19 -14  -3   20.31    1.56
  14 -19   5    1.64    0.96
 -19 -14  -5    1.58    0.88
  14 -19   6    1.50    0.87
 -19 -14  -6   -0.35    0.69
  15 -19   0    7.04    1.20
  15 -19   1    0.82    0.98
  15 -19  -1    0.17    1.03
 -19 -15  -1    1.16    0.84
  15 -19   2    0.55    1.00
  15 -19  -2    3.01    1.08
 -19 -15  -2    2.19    0.90
  15 -19   3    0.15    0.92
 -19 -15  -3    0.34    0.86
  15 -19   5    0.12    0.77
 -19 -15  -5    0.32    0.74
 -19 -16  -1    1.06    0.77
 -19 -16  -2    1.10    0.75
  16 -19   3   -0.80    0.82
 -19 -16  -3    0.35    0.72
 -15 -20  -1    3.68    0.83
 -15 -20  -3    3.14    0.74
 -14 -20   0   17.05    1.38
 -14 -20  -2    6.83    1.04
 -14 -20  -3    1.28    0.81
 -14 -20  -3    1.59    0.79
 -14 -20  -4   18.25    1.26
 -14 -20  -4   17.94    1.23
 -13 -20   0   -0.48    5.03
 -13 -20   0    0.37    1.04
 -13 -20   1   41.53    5.05
 -13 -20  -1   38.23    5.36
 -13 -20  -1   36.71    2.05
 -13 -20   1   39.44    2.18
 -13 -20   2   10.36    4.99
 -13 -20   2    3.80    3.84
 -13 -20  -2    4.66    1.03
 -13 -20  -2    5.61    1.12
 -13 -20  -3   14.32    1.27
 -13 -20  -3   13.10    1.29
 -13 -20  -4    7.87    1.08
 -13 -20  -4    9.65    1.08
 -13 -20   4   11.43    4.15
 -13 -20  -5   13.97    1.11
 -12 -20   0   43.40    5.91
 -12 -20   0   43.17    2.35
 -12 -20   0   36.18    2.20
 -12 -20   1    2.07    5.22
 -12 -20  -1    1.39    5.48
 -12 -20  -1    1.11    1.03
 -12 -20   1    3.58    1.17
 -12 -20   2    7.84    4.38
 -12 -20   2    5.70    5.14
 -12 -20  -2   10.56    5.29
 -12 -20  -2    7.69    1.23
 -12 -20  -2    7.19    1.19
 -12 -20  -3   11.28    1.32
 -12 -20   3   11.58    4.33
 -12 -20   3    5.53    3.62
 -12 -20  -3   11.80    1.32
 -12 -20  -4   55.96    2.75
 -12 -20   4   55.38    4.02
 -12 -20  -5   -0.31    0.88
 -12 -20  -5    0.31    0.83
 -12 -20  -6   24.71    1.53
 -11 -20   0    2.95    4.19
 -11 -20   0    1.47    1.14
 -11 -20   1   35.04    4.66
 -11 -20  -1   34.06    4.80
 -11 -20  -1   28.60    2.00
 -11 -20   1   32.67    2.14
 -11 -20  -1   30.48    2.07
 -11 -20  -2    1.16    4.63
 -11 -20   2   -1.37    4.25
 -11 -20   2    3.57    2.69
 -11 -20  -2    1.40    1.15
 -11 -20  -2    1.52    1.14
 -11 -20   3   29.14    2.61
 -11 -20   3   35.69    5.01
 -11 -20  -3   38.39    5.21
 -11 -20  -3   29.10    1.98
 -11 -20  -3   28.17    1.90
 -11 -20   4    0.10    1.76
 -11 -20  -4    2.33    1.07
 -11 -20  -4    4.74    4.38
 -11 -20  -5   46.42    2.55
 -11 -20  -5   51.72    2.63
 -11 -20  -6    3.22    0.93
 -11 -20   7    8.45    1.94
 -11 -20  -7    9.62    0.99
 -20  11  -7   12.59    1.25
 -10 -20   0   36.65    3.15
 -10 -20   0   33.39    2.21
 -10 -20   1    6.47    2.48
 -10 -20  -1   10.94    2.59
 -10 -20   1    8.10    1.37
 -10 -20  -1    6.94    1.39
 -10 -20   1    9.26    1.50
 -10 -20  -1    9.10    1.44
 -10 -20   2   32.38    2.49
 -10 -20  -2   30.16    2.13
 -10 -20   2   34.64    3.37
 -10 -20  -2   35.12    3.52
 -10 -20  -2   30.46    2.16
 -10 -20   3    3.86    1.64
 -10 -20  -3    4.98    1.26
 -10 -20   3    1.23    3.45
 -10 -20  -3    9.61    3.78
 -10 -20   4   53.57    3.03
 -10 -20   4   39.40    4.73
 -10 -20  -4   45.19    4.97
 -10 -20  -4   52.55    2.73
 -10 -20  -4   47.00    2.65
 -10 -20  -5    0.44    1.09
 -10 -20   5    2.15    1.45
 -10 -20  -5   -0.24    1.05
 -10 -20  -6    4.52    1.05
 -10 -20  -7    9.57    1.08
 -10 -20   7   11.88    1.42
 -20  10  -8    8.60    1.11
  -9 -20   0   -0.14    1.71
  -9 -20   0    1.58    1.31
  -9 -20   1   14.05    1.64
  -9 -20  -1   19.56    1.83
  -9 -20  -1   17.59    2.11
  -9 -20   1   14.60    1.93
  -9 -20   1   18.99    2.14
  -9 -20  -1   18.62    1.85
  -9 -20   1   13.94    1.87
  -9 -20   2   32.02    2.44
  -9 -20   2   31.14    2.62
  -9 -20  -2   32.55    2.72
  -9 -20  -2   32.75    2.24
  -9 -20  -2   30.01    2.18
  -9 -20   3   93.30    4.45
  -9 -20   3   86.98    4.51
  -9 -20  -3   87.72    4.56
  -9 -20  -3   82.89    4.08
  -9 -20  -4   -2.23    3.11
  -9 -20  -4   -0.93    1.22
  -9 -20   4    0.73    1.55
  -9 -20  -4    1.00    1.15
  -9 -20  -5   12.92    1.50
  -9 -20   5   15.39    1.81
  -9 -20  -5   13.54    1.43
  -9 -20  -6    6.89    1.22
  -9 -20  -6    5.55    1.20
  -9 -20   7    3.66    1.24
  -9 -20   7    2.31    0.95
  -9 -20  -7    2.93    0.94
  -9 -20   8    2.88    0.81
 -20   9  -8    3.60    0.99
  -9 -20   8    3.16    1.03
  -8 -20   0    4.38    1.49
  -8 -20   0    6.02    1.81
  -8 -20   0    7.77    1.62
  -8 -20   1    8.53    1.59
  -8 -20  -1    8.25    1.54
  -8 -20   1    6.80    1.59
  -8 -20   1    9.50    1.78
  -8 -20  -1    9.34    1.90
  -8 -20  -1   10.40    1.66
  -8 -20   2   28.17    2.41
  -8 -20  -2   29.62    2.51
  -8 -20   2   28.08    2.39
  -8 -20  -2   28.19    2.19
  -8 -20  -3    6.32    1.40
  -8 -20   3    6.72    1.75
  -8 -20  -3    6.69    1.42
  -8 -20   3    6.56    1.69
  -8 -20  -3    7.99    1.72
  -8 -20  -4   22.82    1.92
  -8 -20  -4   23.11    1.95
  -8 -20   4   21.63    2.27
  -8 -20  -4   25.47    2.39
  -8 -20   4   23.45    2.28
  -8 -20  -5   28.03    2.07
  -8 -20  -5   25.02    2.05
  -8 -20   5   31.40    2.43
  -8 -20  -6   -0.23    1.07
  -8 -20  -6    1.30    1.06
  -8 -20  -7   34.73    2.11
  -8 -20  -7   29.96    2.06
  -8 -20   7   31.88    2.09
  -8 -20   8    3.05    0.99
 -20   8  -8    4.76    1.10
  -8 -20  -8    2.96    0.89
  -8 -20   8    3.03    1.15
  -7 -20   0    0.08    1.62
  -7 -20   0    0.21    1.59
  -7 -20   0    2.26    1.54
  -7 -20  -1   79.33    3.87
  -7 -20   1   67.01    3.71
  -7 -20   1   71.72    3.98
  -7 -20  -1   74.29    4.04
  -7 -20   1   73.82    3.81
  -7 -20  -1   66.97    3.76
  -7 -20   2   24.26    2.28
  -7 -20   2   25.92    2.28
  -7 -20  -2   27.34    2.33
  -7 -20  -2   25.11    2.08
  -7 -20  -3   18.19    1.86
  -7 -20  -3   19.19    2.08
  -7 -20  -3   16.23    1.76
  -7 -20   3   19.61    2.13
  -7 -20   3   18.82    1.96
  -7 -20   4   62.99    3.53
  -7 -20  -4   60.21    3.21
  -7 -20   4   59.10    3.25
  -7 -20  -4   57.70    3.34
  -7 -20  -4   54.49    3.15
  -7 -20   5    7.28    1.85
  -7 -20  -5    6.41    1.39
  -7 -20  -5    6.43    1.35
  -7 -20  -5    7.34    1.40
  -7 -20  -6   22.13    1.82
  -7 -20  -6   23.02    1.81
  -7 -20   6   18.49    1.79
  -7 -20  -7   -0.55    1.09
  -7 -20   7   -0.72    1.35
  -7 -20  -7    0.26    1.00
  -7 -20   7    1.69    1.11
 -20   7  -8    4.29    1.13
  -7 -20   8    1.92    1.00
  -7 -20   8    3.17    1.18
  -7 -20  -8    2.47    0.93
  -7 -20   9    1.04    0.79
 -20   7  -9    1.22    0.84
  -7 -20   9    0.87    0.92
 -20   7  -9    3.25    0.89
  -6 -20   0   25.06    2.51
  -6 -20   0   28.25    2.46
  -6 -20   0   29.47    2.38
  -6 -20   1    9.92    1.82
  -6 -20   1    6.63    1.64
  -6 -20   1    9.65    1.86
  -6 -20  -1    8.80    1.90
  -6 -20  -1    8.74    1.60
  -6 -20   2   43.66    2.93
  -6 -20  -2   42.87    2.83
  -6 -20  -2   45.01    2.93
  -6 -20   2   45.80    3.00
  -6 -20  -2   52.76    3.17
  -6 -20   3   75.13    4.13
  -6 -20  -3   77.62    3.92
  -6 -20  -3   76.09    3.87
  -6 -20   3   76.24    4.01
  -6 -20  -3   80.89    4.14
  -6 -20   4    2.80    1.75
  -6 -20   4    1.61    1.41
  -6 -20  -4    2.21    1.47
  -6 -20  -4    1.18    1.34
  -6 -20  -4    0.72    1.30
  -6 -20   5    5.25    1.76
  -6 -20  -5    5.21    1.37
  -6 -20  -5    5.47    1.42
  -6 -20  -6   15.52    1.62
  -6 -20  -6   14.57    1.70
  -6 -20   6   12.36    1.62
  -6 -20  -7    6.42    1.26
  -6 -20   7    8.13    1.38
  -6 -20  -7    9.58    1.34
  -6 -20   8    2.60    1.04
  -6 -20  -8    2.86    0.95
 -20   6  -8    0.55    1.16
  -6 -20   8    3.71    1.25
  -6 -20   9   -0.12    0.97
 -20   6  -9    1.10    0.88
 -20   6  -9    0.83    0.91
  -6 -20   9    0.09    0.80
  -5 -20   0   -0.81    1.76
  -5 -20   0    2.00    1.59
  -5 -20   1   18.05    2.10
  -5 -20   1   12.77    1.85
  -5 -20   1   17.91    2.09
  -5 -20  -1   17.75    2.18
  -5 -20  -1   17.07    1.96
 -20   5  -1   17.36    1.78
  -5 -20   2   37.72    2.78
  -5 -20  -2   39.37    2.71
  -5 -20  -2   39.77    2.60
 -20   5  -2   38.14    2.70
  -5 -20   2   43.89    2.86
  -5 -20  -2   43.27    2.99
  -5 -20   3    0.58    1.68
  -5 -20   3    1.07    1.50
  -5 -20  -3    2.45    1.65
  -5 -20  -3    1.60    1.44
  -5 -20  -3    0.50    1.39
  -5 -20   4    2.43    1.76
  -5 -20   4    1.44    1.36
  -5 -20  -4   -0.06    1.43
  -5 -20  -4    3.71    1.48
  -5 -20  -4    1.61    1.42
  -5 -20  -5    8.02    1.45
  -5 -20  -5    6.07    1.39
  -5 -20   5    3.30    1.76
  -5 -20   5    5.88    1.40
  -5 -20  -6    1.98    1.22
  -5 -20  -6    0.32    1.14
  -5 -20   6    2.53    1.21
  -5 -20   6    0.24    1.52
 -20   5  -6    0.47    1.47
  -5 -20  -7    7.00    1.22
  -5 -20  -7    8.23    1.30
  -5 -20   7    7.11    1.34
 -20   5  -8    1.89    1.14
  -5 -20   8   -0.94    1.00
  -5 -20   8    0.58    1.19
  -5 -20   9    0.45    1.02
  -5 -20   9    1.40    0.87
 -20   5  -9    1.52    0.97
 -20   5  -9    1.36    1.00
  -4 -20   0   49.29    3.31
  -4 -20  -1    5.55    1.84
 -20   4  -1    1.25    1.42
  -4 -20   1    4.40    1.72
  -4 -20  -1    4.28    1.85
  -4 -20   1    3.03    1.53
  -4 -20   2   72.03    4.09
 -20   4  -2   81.46    4.17
  -4 -20   2   88.61    4.28
  -4 -20  -2   76.90    4.31
  -4 -20  -2   76.64    4.14
  -4 -20   3    8.94    1.73
  -4 -20  -3    8.54    1.90
 -20   4  -3    7.78    1.78
  -4 -20   3    7.94    1.88
  -4 -20  -3    8.62    1.71
  -4 -20   4   -0.80    1.39
  -4 -20  -4    0.33    1.49
  -4 -20   4    0.51    1.62
 -20   4  -4    0.39    1.57
  -4 -20  -4    0.44    1.35
  -4 -20  -5    1.84    1.18
  -4 -20  -5   -0.12    1.25
  -4 -20   5    1.05    1.18
  -4 -20   5    0.96    1.60
 -20   4  -5    0.38    1.65
  -4 -20  -6    4.71    1.32
  -4 -20   6    5.04    1.31
  -4 -20  -6    5.41    1.29
 -20   4  -6    2.76    1.69
  -4 -20   6    5.09    1.60
  -4 -20  -7    0.24    1.03
 -20   4  -7   -0.99    1.43
  -4 -20   7    0.26    1.18
  -4 -20   8    9.46    1.35
  -4 -20   8   12.78    1.57
 -20   4  -8   11.24    1.55
  -4 -20   9   -0.78    1.08
 -20   4  -9   -0.31    0.93
 -20   4  -9    2.32    1.01
  -4 -20   9    1.56    0.91
  -3 -20   0    4.90    2.04
  -3 -20  -1  115.43    5.48
  -3 -20   1  115.68    5.52
  -3 -20  -1  131.34    5.85
 -20   3  -1  121.52    5.58
  -3 -20   1  125.37    5.89
  -3 -20  -1  129.53    5.99
  -3 -20   2    1.64    1.63
  -3 -20  -2   -0.16    1.69
  -3 -20  -2    2.37    1.53
  -3 -20   2   -0.14    1.56
 -20   3  -2    0.52    1.42
  -3 -20   3   27.13    2.44
  -3 -20  -3   28.46    2.28
 -20   3  -3   29.00    2.57
  -3 -20   3   28.76    2.42
  -3 -20  -3   30.32    2.48
  -3 -20  -4    3.96    1.46
  -3 -20   4    3.10    1.73
 -20   3  -4    3.31    1.63
  -3 -20   4    3.93    1.47
  -3 -20  -4    2.24    1.46
  -3 -20  -5    2.47    1.37
  -3 -20   5    5.08    1.33
  -3 -20   5    6.85    1.75
 -20   3  -5    4.58    1.80
  -3 -20  -6    0.33    1.26
  -3 -20   6    3.33    1.22
  -3 -20   6    1.51    1.51
 -20   3  -7    6.63    1.64
  -3 -20   7    4.62    1.31
  -3 -20   8   -0.63    1.24
  -3 -20   8    0.77    1.05
 -20   3  -8   -0.85    1.26
 -20   3  -8    0.48    1.25
  -3 -20   9    5.52    1.26
  -3 -20   9    4.63    1.05
 -20   3  -9    5.05    1.18
 -20   3  -9    6.50    1.26
  -3 -20  10    1.24    0.72
  -2 -20   0  309.32   12.69
  -2 -20  -1   96.03    4.75
  -2 -20   1   90.59    4.72
  -2 -20  -1   95.17    4.79
 -20   2  -1   86.51    4.44
  -2 -20  -1   87.16    4.41
  -2 -20  -2   19.14    1.93
  -2 -20   2   17.32    2.02
  -2 -20   2   18.55    2.07
  -2 -20  -2   20.51    2.31
 -20   2  -2   18.89    2.08
  -2 -20  -2   20.77    2.11
  -2 -20   3    8.76    1.77
  -2 -20   3   10.76    1.72
  -2 -20  -3    9.01    1.84
  -2 -20  -3    9.54    1.63
  -2 -20  -3   10.30    1.57
 -20   2  -3    9.73    1.78
 -20   2  -4   77.25    4.29
  -2 -20  -4   68.56    3.71
  -2 -20   4   74.97    4.03
  -2 -20   4   73.13    3.82
  -2 -20  -4   78.10    3.97
  -2 -20   5    0.06    1.23
  -2 -20  -5   -0.35    1.27
  -2 -20   5    1.97    1.57
 -20   2  -5    1.13    1.71
  -2 -20   6   18.51    2.05
  -2 -20   6   16.13    1.72
  -2 -20  -6   16.31    1.74
  -2 -20   7    1.10    1.14
 -20   2  -7    2.56    1.45
 -20   2  -7    2.79    1.55
  -2 -20   8    3.75    1.37
  -2 -20   8    5.16    1.21
 -20   2  -8    5.22    1.45
 -20   2  -8    5.06    1.45
  -2 -20   9    0.68    1.11
  -2 -20   9    2.58    0.96
 -20   2  -9    0.49    1.09
 -20   2  -9    1.61    1.00
  -2 -20  10    0.32    0.78
  -2 -20  10    0.31    0.82
  -1 -20   0    0.16    1.67
  -1 -20   1   65.25    3.82
  -1 -20  -1   70.22    3.91
 -20   1  -1   60.29    3.56
  -1 -20   2   10.76    1.75
  -1 -20   2   10.45    1.79
  -1 -20  -2    8.57    1.92
  -1 -20  -2   11.03    1.72
 -20   1  -2   10.40    1.77
  -1 -20  -2   10.00    1.78
  -1 -20  -3   63.83    3.52
  -1 -20   3   63.04    3.59
  -1 -20   3   66.64    3.57
  -1 -20  -3   64.99    3.71
 -20   1  -3   64.53    3.81
  -1 -20  -3   63.31    3.46
 -20   1  -4    3.21    1.53
  -1 -20   4    3.41    1.62
  -1 -20  -4    0.06    1.34
  -1 -20   4    4.78    1.45
  -1 -20  -4    5.55    1.50
 -20   1  -4    3.05    1.67
  -1 -20  -4    2.41    1.30
 -20   1  -5    5.86    1.72
  -1 -20   5    7.97    1.75
  -1 -20  -5    6.91    1.41
  -1 -20  -5    9.61    1.45
 -20   1  -5    9.42    1.88
  -1 -20   5    7.86    1.43
 -20   1  -6    1.07    1.47
  -1 -20   6    1.31    1.50
  -1 -20   7   16.05    1.78
 -20   1  -7   23.99    2.18
 -20   1  -7   21.16    2.34
  -1 -20   8    0.94    1.32
  -1 -20   8    2.58    1.09
 -20   1  -8    0.34    1.32
 -20   1  -8    1.77    1.34
  -1 -20   9    4.86    1.23
  -1 -20   9    2.95    1.00
 -20   1  -9    3.51    1.14
 -20   1  -9    1.72    1.19
  -1 -20  10    1.25    0.79
  -1 -20  10    0.87    0.85
   0 -20   0   19.04    2.10
   0 -20   1   22.83    2.29
   0 -20  -1   25.80    2.40
   0 -20   1   21.76    2.11
 -20   0  -1   19.94    1.98
   0 -20   2   94.43    4.90
 -20   0  -2  114.41    5.20
   0 -20   2  110.29    5.07
   0 -20  -2  106.31    5.20
   0 -20   2  100.59    5.05
   0 -20  -2  105.12    5.06
   0 -20  -3    4.52    1.64
   0 -20   3    4.46    1.61
   0 -20   3    5.14    1.66
 -20   0  -3    6.28    1.71
   0 -20   3    7.63    1.55
   0 -20  -3    7.16    1.73
   0 -20  -4   13.59    1.81
   0 -20   4   11.76    1.88
 -20   0  -4   12.91    1.79
   0 -20   4   13.23    1.91
   0 -20   4   15.28    1.80
   0 -20  -4   14.04    1.79
 -20   0  -4   17.55    2.16
   0 -20   5    2.56    1.27
   0 -20   5    2.43    1.50
 -20   0  -5    2.84    1.52
 -20   0  -5    0.24    1.62
   0 -20  -5    2.42    1.32
   0 -20  -6   24.22    2.12
 -20   0  -6   29.46    2.53
   0 -20   6   31.90    2.42
   0 -20   7    0.51    1.12
 -20   0  -7   -1.49    1.53
 -20   0  -7    1.87    1.52
   0 -20   8   21.60    1.88
 -20   0  -8   18.73    1.94
 -20   0  -8   22.48    2.01
   0 -20   9    1.53    1.15
 -20   0  -9    0.44    1.05
   0 -20   9    0.43    0.92
 -20   0  -9    2.08    1.15
   0 -20  10    1.10    0.88
   0 -20  10    0.21    0.75
   1 -20   0   -0.62    1.67
 -20  -1  -1    4.73    1.54
   1 -20   1    3.68    1.61
   1 -20  -1    4.17    1.66
   1 -20   1    2.58    1.40
   1 -20  -2   26.41    2.45
   1 -20   2   27.58    2.35
   1 -20  -2   23.97    2.39
   1 -20   2   22.28    2.12
 -20  -1  -2   26.20    2.26
   1 -20   2   24.26    2.22
   1 -20  -3   62.53    3.53
   1 -20   3   52.28    3.32
   1 -20   3   63.58    3.48
   1 -20  -3   58.71    3.51
   1 -20   3   58.67    3.46
 -20  -1  -3   64.16    3.68
   1 -20   4    9.63    1.65
   1 -20  -4   12.57    1.74
 -20  -1  -4   10.27    1.74
   1 -20   4    8.20    1.63
   1 -20  -4    5.35    1.63
   1 -20   4    8.08    1.72
 -20  -1  -4   11.81    2.05
 -20  -1  -5   20.04    2.19
 -20  -1  -5   22.09    2.40
   1 -20  -5   21.07    2.05
   1 -20   5   19.60    2.06
   1 -20   5   21.05    2.10
   1 -20   5   18.21    1.86
 -20  -1  -6    3.88    1.64
   1 -20   6    2.96    1.56
   1 -20  -6    1.16    1.29
   1 -20   7   10.16    1.71
 -20  -1  -7   15.08    1.96
 -20  -1  -7   12.72    1.81
 -20  -1  -8    1.76    1.34
 -20  -1  -8    2.57    1.37
   1 -20   8    2.33    1.07
   1 -20   9    0.70    1.11
 -20  -1  -9    0.96    1.02
   1 -20   9   -0.08    0.92
 -20  -1  -9   -0.76    1.19
   1 -20  10    0.99    0.75
   1 -20  10    0.83    0.91
 -20  -2   0    1.40    1.24
   2 -20   0   -0.69    1.60
   2 -20   1   -0.34    1.37
   2 -20   1    0.15    1.45
   2 -20  -1    1.77    1.59
 -20  -2  -1    1.60    1.40
   2 -20   2    7.98    1.55
 -20  -2  -2    9.87    1.74
   2 -20   2    8.15    1.60
   2 -20  -2   10.69    1.92
   2 -20   2   11.26    1.80
   2 -20  -2    8.72    1.86
 -20  -2  -3   29.06    2.56
   2 -20   3   31.46    2.43
   2 -20  -3   31.15    2.50
   2 -20   3   28.31    2.34
   2 -20   3   30.89    2.39
   2 -20  -3   34.63    2.54
   2 -20  -4    4.22    1.62
 -20  -2  -4    3.42    1.65
 -20  -2  -4    0.90    1.41
   2 -20   4    2.17    1.50
   2 -20   4    3.01    1.48
   2 -20   4    4.25    1.40
   2 -20  -4    3.72    1.43
   2 -20  -5    3.57    1.46
 -20  -2  -5    4.81    1.63
   2 -20   5    5.29    1.57
 -20  -2  -5    5.09    1.64
   2 -20   5    5.00    1.59
   2 -20   5    6.42    1.38
 -20  -2  -6    3.34    1.58
   2 -20   6    3.71    1.49
   2 -20  -6    0.97    1.32
 -20  -2  -7    1.92    1.48
   2 -20   7    1.68    1.37
 -20  -2  -7    0.40    1.49
   2 -20   8    1.96    1.04
 -20  -2  -8    1.33    1.36
 -20  -2  -8    2.85    1.35
   2 -20   9   -0.26    0.86
 -20  -2  -9   -0.47    1.11
   2 -20   9    0.72    1.10
 -20  -2  -9   -0.85    1.01
   2 -20  10   -0.59    0.77
   2 -20  10    1.77    0.87
   3 -20   0    0.07    1.61
 -20  -3   0   -1.02    1.29
   3 -20   0    0.55    1.22
   3 -20  -1    3.56    1.86
 -20  -3  -1    0.41    1.31
   3 -20   1    2.10    1.30
   3 -20   1    1.09    1.53
   3 -20  -1   -0.23    1.52
   3 -20   2    0.75    1.29
   3 -20  -2   -0.82    1.68
 -20  -3  -2    0.36    1.43
   3 -20   2    2.65    1.51
   3 -20  -2    0.44    1.55
   3 -20   2    0.14    1.32
 -20  -3  -3    1.90    1.55
   3 -20   3    1.64    1.34
   3 -20   3   -0.14    1.35
   3 -20   3    1.26    1.42
   3 -20  -3    0.28    1.43
   3 -20  -3    0.86    1.54
   3 -20   4    3.95    1.47
 -20  -3  -4    5.41    1.48
   3 -20  -4    1.85    1.52
   3 -20   4    3.42    1.46
   3 -20   4    2.12    1.39
   3 -20  -4    2.41    1.37
 -20  -3  -4    2.26    1.69
   3 -20   5    1.01    1.48
   3 -20   5    3.11    1.27
 -20  -3  -5    2.94    1.57
   3 -20  -5    2.26    1.42
   3 -20   5    2.35    1.48
 -20  -3  -5    2.93    1.70
   3 -20  -6    1.48    1.36
 -20  -3  -6    1.74    1.46
   3 -20   6    0.74    1.32
 -20  -3  -6    4.29    1.66
   3 -20   7   -0.18    1.31
   3 -20   7    1.58    1.31
 -20  -3  -7    0.39    1.40
 -20  -3  -7   -0.26    1.43
 -20  -3  -8    0.05    1.26
 -20  -3  -8    0.73    1.28
   3 -20   9    2.79    1.15
 -20  -3  -9    3.76    1.07
 -20  -3  -9    1.81    1.21
   3 -20   9    1.05    0.89
   3 -20  10    0.45    0.86
   4 -20   0    0.90    1.16
 -20  -4   0   -0.64    1.29
   4 -20   0   -0.44    1.47
   4 -20  -1    2.43    1.83
   4 -20   1   -0.06    1.27
 -20  -4  -1    0.89    1.39
   4 -20   1    0.50    1.45
   4 -20  -1    1.69    1.52
   4 -20  -2    2.97    1.68
   4 -20   2    2.13    1.35
   4 -20  -2    3.21    1.53
   4 -20   2    1.18    1.37
 -20  -4  -2    2.43    1.50
   4 -20  -3    9.40    1.84
   4 -20   3    8.61    1.51
   4 -20  -3    5.90    1.59
   4 -20   3    3.90    1.44
   4 -20   3    4.25    1.50
 -20  -4  -3    4.90    1.62
   4 -20  -4   11.56    1.82
 -20  -4  -4   12.80    1.75
   4 -20   4   12.53    1.61
   4 -20  -4   11.75    1.62
   4 -20   4   12.07    1.71
   4 -20   4   10.89    1.67
 -20  -4  -4    8.86    1.88
 -20  -4  -5    2.44    1.44
   4 -20   5    1.57    1.18
   4 -20   5    3.03    1.41
   4 -20   5    3.28    1.41
   4 -20  -5    3.44    1.47
   4 -20  -6    2.04    1.37
 -20  -4  -6    3.76    1.51
   4 -20   6    2.91    1.42
 -20  -4  -6    1.34    1.58
   4 -20   6    0.51    1.43
 -20  -4  -7    1.37    1.37
 -20  -4  -7   -2.06    1.54
   4 -20   7    0.45    1.27
   4 -20   7   -0.59    1.34
 -20  -4  -8   -0.22    1.25
 -20  -4  -8   -0.47    1.27
 -20  -4  -9    2.67    1.17
   4 -20   9    4.25    1.13
 -20  -4  -9    2.99    1.04
   5 -20   0    0.53    1.11
 -20  -5   0    1.57    1.22
   5 -20   0   -0.50    1.41
   5 -20   1    1.99    1.19
 -20  -5  -1    1.54    1.34
   5 -20  -1    4.46    1.52
   5 -20   1    0.85    1.46
   5 -20   2   -0.06    1.30
   5 -20   2    0.47    1.38
   5 -20  -2   -0.69    1.45
 -20  -5  -2    1.33    1.41
   5 -20  -3    1.94    1.64
   5 -20   3    2.65    1.31
   5 -20   3    1.78    1.32
   5 -20   3   -0.19    1.33
   5 -20  -3    2.01    1.43
 -20  -5  -3    0.36    1.46
   5 -20  -4   16.70    1.94
 -20  -5  -4   16.19    1.79
   5 -20   4   13.29    1.79
 -20  -5  -4   13.18    1.96
   5 -20   4   17.85    1.76
   5 -20  -4   15.54    1.75
   5 -20   5   11.55    1.68
   5 -20  -5   12.11    1.82
   5 -20   5   11.70    1.49
 -20  -5  -5   14.46    1.82
   5 -20  -6    0.61    1.35
 -20  -5  -6    0.13    1.37
   5 -20   6    1.22    1.35
 -20  -5  -6    0.81    1.42
   5 -20   6   -0.05    1.32
 -20  -5  -7    0.77    1.38
   5 -20   7    4.20    1.36
 -20  -5  -7    3.51    1.37
   5 -20   7    1.93    1.28
 -20  -5  -8    8.60    1.45
 -20  -5  -8    7.58    1.43
   5 -20   9    2.33    1.07
 -20  -5  -9    2.74    1.01
 -20  -6   0   27.78    2.14
   6 -20   0   28.31    2.37
   6 -20   0   24.64    1.94
   6 -20   0   31.00    2.60
   6 -20   1   -0.55    1.51
   6 -20  -1    1.05    1.47
   6 -20  -1    0.17    1.77
   6 -20   1    3.69    1.23
 -20  -6  -1    1.56    1.33
 -20  -6  -2    1.49    1.42
   6 -20   2    1.50    1.27
   6 -20   2    1.19    1.46
   6 -20  -2   -0.20    1.33
 -20  -6  -3    1.46    1.46
   6 -20   3    1.12    1.36
   6 -20  -3    1.38    1.34
   6 -20   3    0.13    1.28
 -20  -6  -4   19.57    1.90
 -20  -6  -4   23.71    2.16
   6 -20   4   17.09    1.78
   6 -20  -4   21.04    1.83
   6 -20   4   19.95    1.94
   6 -20  -5    5.85    1.60
 -20  -6  -5    4.44    1.46
   6 -20  -6    7.61    1.51
 -20  -6  -6    7.07    1.55
 -20  -6  -6    8.23    1.65
   6 -20   6    8.01    1.50
 -20  -6  -7    2.96    1.35
 -20  -6  -7    1.56    1.26
   6 -20   7   -0.42    1.19
   6 -20   7   -0.64    1.24
 -20  -6  -8    2.19    1.24
 -20  -6  -8    2.97    1.21
   6 -20   9    1.16    0.98
 -20  -6  -9    1.06    0.86
   7 -20   0    1.27    1.13
   7 -20   0    2.66    1.55
 -20  -7   0    1.37    1.25
   7 -20   0    1.97    1.75
   7 -20   1    7.36    1.40
   7 -20   1    7.83    1.66
   7 -20  -1    8.32    1.65
 -20  -7  -1    8.26    1.44
   7 -20  -1    8.38    1.87
   7 -20   2    3.99    1.32
 -20  -7  -2    5.99    1.50
   7 -20  -2    2.50    1.68
   7 -20   2    2.88    1.50
   7 -20  -2    4.73    1.46
   7 -20  -3   15.34    1.75
   7 -20   3   18.29    1.78
 -20  -7  -3   15.19    1.89
   7 -20   3   17.09    1.72
   7 -20  -3   19.31    2.08
 -20  -7  -4    1.34    1.43
 -20  -7  -4    1.08    1.25
   7 -20   4    1.68    1.24
   7 -20   4    0.42    1.31
   7 -20   4    2.85    1.22
   7 -20  -4    0.82    1.21
 -20  -7  -5   35.78    2.41
   7 -20   5   31.22    2.27
 -20  -7  -6   15.45    1.75
 -20  -7  -6   15.23    1.69
   7 -20   6   13.32    1.67
 -20  -7  -7    1.60    1.26
   7 -20   7    1.66    1.14
   7 -20   7    2.37    1.19
 -20  -7  -7    3.45    1.25
   7 -20   8    1.95    1.07
 -20  -7  -8    0.49    1.01
   7 -20   8    1.81    1.02
 -20  -7  -8   -1.00    1.06
 -20  -8   0   51.24    2.85
   8 -20   0   54.30    3.36
   8 -20   0   49.12    2.96
   8 -20   0   46.00    2.70
   8 -20   1    3.93    1.46
   8 -20  -1    5.13    1.45
   8 -20   1    8.94    1.93
   8 -20  -1    6.28    1.84
 -20  -8  -1    4.83    1.41
   8 -20   1    7.44    1.35
 -20  -8  -2   42.86    2.80
   8 -20   2   43.10    2.64
   8 -20  -2   53.27    3.08
   8 -20   2   46.60    2.82
   8 -20  -2   43.66    2.79
   8 -20  -3   -0.07    1.57
   8 -20   3    2.19    1.31
   8 -20  -3    0.29    1.29
 -20  -8  -3    1.58    1.36
   8 -20   3    0.35    1.24
   8 -20   4   26.86    2.01
   8 -20   4   24.94    2.01
   8 -20  -4   30.15    2.12
 -20  -8  -4   31.53    2.35
   8 -20   4   30.80    2.15
   8 -20  -4   31.59    2.38
   8 -20  -5   18.39    1.86
 -20  -8  -5   21.43    1.82
 -20  -8  -6    0.10    1.19
   8 -20   6    1.53    1.23
 -20  -8  -6    2.97    1.34
   8 -20   6    0.82    1.10
 -20  -8  -7    3.33    1.19
 -20  -8  -7    2.94    1.17
   8 -20   7    5.00    1.24
   8 -20   7    2.27    1.15
 -20  -8  -8   11.68    1.34
   8 -20   8   13.32    1.39
 -20  -8  -8   12.07    1.41
   8 -20   8   10.62    1.31
 -20  -9   0    0.22    1.19
   9 -20   0   -0.56    1.34
   9 -20   0    3.33    1.65
   9 -20   1   35.53    2.43
   9 -20  -1   32.30    2.36
   9 -20   1   33.94    2.27
   9 -20   1   43.38    2.81
   9 -20  -1   41.97    2.82
 -20  -9  -1   35.48    2.36
   9 -20   2    8.76    1.46
 -20  -9  -2    9.44    1.46
   9 -20   2    8.62    1.77
   9 -20  -2   12.21    1.80
   9 -20   2    8.78    1.53
   9 -20  -2    6.83    1.54
   9 -20   3   28.27    2.11
   9 -20  -3   27.77    2.12
 -20  -9  -3   31.16    2.29
   9 -20  -3   33.05    2.40
   9 -20   3   31.33    2.16
   9 -20   4   69.95    3.57
   9 -20  -4   67.67    3.61
   9 -20  -4   76.17    3.88
   9 -20   4   78.32    3.72
 -20  -9  -4   76.54    3.88
   9 -20   5    5.05    1.24
 -20  -9  -5    7.32    1.33
   9 -20  -5    6.54    1.43
 -20  -9  -6   47.00    2.66
   9 -20   6   37.50    2.36
   9 -20   6   43.29    2.55
 -20  -9  -6   44.16    2.54
 -20  -9  -7   31.99    2.03
   9 -20   7   26.51    1.90
 -20  -9  -7   28.35    2.00
   9 -20   7   31.83    2.01
 -20  -9  -8    1.03    0.88
 -20  -9  -8    2.18    0.93
   9 -20   8    1.84    0.94
   9 -20   8    3.59    0.93
  10 -20   0    1.58    1.23
  10 -20   0    4.90    1.67
  10 -20   1    1.51    1.42
  10 -20  -1   -0.22    1.56
 -20 -10  -1   -0.48    1.11
  10 -20   1    0.71    1.09
  10 -20   1    0.92    1.29
  10 -20  -1    1.68    1.27
  10 -20   2   21.55    1.87
  10 -20  -2   18.98    1.85
  10 -20   2   22.40    2.00
  10 -20  -2   24.34    2.17
 -20 -10  -2   17.90    1.78
  10 -20   2   16.30    1.69
  10 -20   3   27.51    2.04
  10 -20  -3   26.72    2.02
  10 -20   3   27.44    2.08
  10 -20  -3   33.46    2.39
  10 -20   3   23.84    1.97
 -20 -10  -3   28.20    2.13
  10 -20   4    5.91    1.23
  10 -20  -4    6.38    1.45
  10 -20   4    7.79    1.37
 -20 -10  -4    7.27    1.49
  10 -20   4    8.50    1.27
  10 -20  -4    8.21    1.31
  10 -20   5   13.34    1.34
 -20 -10  -6   42.53    2.43
  10 -20   6   44.83    2.40
 -20 -10  -6   42.05    2.33
 -20 -10  -7   -0.18    0.92
  10 -20   7    2.54    0.98
 -20 -10  -7    1.30    0.94
  10 -20   7    1.44    0.92
  11 -20   0    0.33    1.23
  11 -20   0    1.15    1.37
  11 -20  -1   11.65    1.59
  11 -20   1   15.43    1.63
  11 -20   1   13.82    1.42
  11 -20   1   14.57    1.74
  11 -20  -1   17.74    1.85
 -20 -11  -1   14.24    1.45
  11 -20   2    3.40    1.23
  11 -20  -2    1.10    1.19
  11 -20   2    2.65    1.22
  11 -20  -2    2.11    1.42
  11 -20   2    2.89    1.17
 -20 -11  -2    4.71    1.24
  11 -20   3   -0.61    1.09
  11 -20  -3   -0.25    1.16
 -20 -11  -3    0.45    1.13
  11 -20  -3   -0.60    1.28
  11 -20   3    2.09    1.04
  11 -20   3    0.19    1.08
  11 -20  -4   32.75    2.21
  11 -20   4   40.39    2.31
 -20 -11  -4   35.14    2.31
  11 -20  -4   43.48    2.50
 -20 -11  -5   26.54    1.93
 -20 -11  -6    1.46    0.99
 -20 -11  -6    0.50    0.94
  11 -20   6   -0.23    0.99
 -20 -11  -7    1.94    0.84
  11 -20   7    2.95    0.95
 -20 -11  -7    3.24    0.94
  11 -20   7    3.33    0.89
  12 -20   0   48.10    2.61
  12 -20   0   37.70    2.44
  12 -20   1    5.76    1.25
  12 -20  -1    5.76    1.29
  12 -20   1    5.54    1.23
  12 -20  -1    3.43    1.35
  12 -20   1    3.02    1.07
 -20 -12  -1    3.48    1.09
  12 -20   2    1.38    1.07
  12 -20  -2    0.86    1.16
 -20 -12  -2    0.71    1.05
  12 -20  -2    0.45    1.30
  12 -20   2    1.75    1.06
  12 -20   3   14.45    1.46
  12 -20  -3   17.31    1.59
  12 -20  -3   20.79    1.78
  12 -20   3   16.58    1.53
 -20 -12  -3   18.58    1.56
  12 -20   4   22.41    1.72
 -20 -12  -5   11.86    1.28
  12 -20   5    9.77    1.28
  12 -20   6    3.19    0.98
 -20 -12  -6    1.50    0.90
  13 -20   0   -0.09    1.07
 -20 -13  -1   11.80    1.17
  13 -20   1    9.57    1.31
  13 -20  -1   10.63    1.33
  13 -20  -1   10.90    1.29
  13 -20   1    7.78    1.11
  13 -20   2    1.19    0.98
  13 -20  -2   -0.39    1.04
  13 -20  -2    1.19    1.03
  13 -20   2    1.16    0.94
 -20 -13  -2    2.41    0.94
  13 -20   3    4.71    1.08
  13 -20  -3    7.02    1.15
 -20 -13  -3    5.65    1.06
  13 -20   3    6.60    1.13
 -20 -13  -5   22.49    1.49
  13 -20   5   19.91    1.53
  14 -20   0    4.91    1.05
  14 -20   1    1.04    0.91
  14 -20  -1   -0.19    0.97
  14 -20   2    4.63    0.90
 -20 -14  -2    2.72    0.87
  14 -20   3    1.85    0.87
 -20 -14  -3    1.06    0.85
  15 -20   2    4.29    0.77
 -20 -15  -2    3.32    0.77
 -13 -21  -2   26.65    1.52
 -13 -21  -3    1.67    0.71
 -12 -21   0    3.40    4.69
 -12 -21  -1   23.00    1.52
 -12 -21   1   23.06    4.62
 -12 -21  -1   30.56    4.87
 -12 -21  -2   -0.50    0.89
 -12 -21   2    3.59    3.87
 -12 -21  -2    1.60    4.21
 -12 -21  -2    1.00    0.96
 -12 -21  -3   30.03    1.77
 -12 -21  -3   30.00    1.74
 -12 -21   3   28.92    4.09
 -12 -21   4    3.48    3.50
 -12 -21  -5    4.75    0.77
 -12 -21   5   -0.23    2.90
 -11 -21   0   22.97    4.74
 -11 -21  -1    6.23    1.11
 -11 -21  -1    5.05    1.15
 -11 -21   1    3.37    4.41
 -11 -21  -1    8.64    4.62
 -11 -21  -2   28.46    1.83
 -11 -21   2   31.72    4.77
 -11 -21  -2   33.13    5.03
 -11 -21  -2   33.18    1.94
 -11 -21   3    4.99    2.88
 -11 -21  -3    1.58    0.98
 -11 -21   3    9.90    4.03
 -11 -21  -3    3.66    4.38
 -11 -21  -3    2.56    0.98
 -11 -21  -4    4.23    0.96
 -11 -21   4    6.30    2.41
 -11 -21  -5    1.80    0.84
 -11 -21   5    3.66    2.22
 -10 -21   0   -4.49    3.21
 -10 -21   0    0.13    1.08
 -10 -21   1   47.33    3.87
 -10 -21  -1   43.42    4.04
 -10 -21  -1   39.25    2.33
 -10 -21  -1   42.08    2.42
 -10 -21  -2    0.57    1.08
 -10 -21   2    0.05    3.52
 -10 -21  -2   -1.37    3.89
 -10 -21  -2    1.38    1.10
 -10 -21   3    7.97    1.87
 -10 -21  -3   10.45    1.28
 -10 -21   3    4.92    3.93
 -10 -21  -3   10.80    4.31
 -10 -21   4    6.28    1.61
 -10 -21  -4    6.11    1.12
 -10 -21  -4    9.31    1.17
 -10 -21  -4   10.23    4.02
 -10 -21  -5    2.58    0.95
 -10 -21   5    4.15    1.41
 -21  10  -5    3.85    1.06
 -21  10  -6   12.70    1.23
 -10 -21  -6   10.42    1.06
  -9 -21   0   -0.24    1.89
  -9 -21   0    1.52    1.19
  -9 -21   1   -2.64    2.02
  -9 -21  -1    1.52    2.04
  -9 -21  -1   -0.05    1.21
  -9 -21  -1    1.24    1.15
  -9 -21  -2   26.17    1.92
  -9 -21   2   23.46    2.54
  -9 -21  -2   25.64    2.68
  -9 -21  -2   26.79    1.88
  -9 -21  -3   11.59    1.36
  -9 -21   3    7.95    1.64
  -9 -21   3    8.41    2.76
  -9 -21  -3    8.74    2.96
  -9 -21  -4    0.73    1.03
  -9 -21   4   -0.61    1.36
 -21   9  -4    1.58    1.07
  -9 -21  -4    2.67    3.70
  -9 -21   5    1.66    1.28
  -9 -21  -5    2.30    0.98
 -21   9  -5    3.80    1.13
  -9 -21  -6    2.26    0.86
 -21   9  -6    1.90    0.97
  -9 -21   7    7.04    1.20
 -21   9  -7    6.04    1.08
  -8 -21   0    0.97    1.25
  -8 -21   0   -0.76    1.61
  -8 -21   1    1.63    1.57
  -8 -21  -1    0.82    1.57
  -8 -21  -1    0.43    1.21
  -8 -21  -1   -0.88    1.34
  -8 -21  -2   -0.10    1.22
  -8 -21   2   -0.72    1.43
  -8 -21  -2    1.67    1.57
  -8 -21   3    9.97    1.84
  -8 -21  -3   11.10    2.00
  -8 -21   3   11.21    1.65
  -8 -21  -3   12.47    1.46
  -8 -21  -3   11.02    1.45
  -8 -21   4   16.75    1.81
  -8 -21  -4   13.79    1.49
 -21   8  -4   15.62    1.63
  -8 -21   4   13.22    2.46
  -8 -21  -4   19.94    2.65
 -21   8  -5    8.66    1.43
  -8 -21   5   10.17    1.54
  -8 -21  -5   10.64    1.27
 -21   8  -6    9.75    1.35
  -8 -21   6    9.52    1.37
  -8 -21  -6    8.48    1.13
  -8 -21  -7    7.16    0.98
  -7 -21   0   60.85    3.47
  -7 -21   0   60.27    3.26
  -7 -21  -1    9.26    1.52
  -7 -21   1    6.00    1.58
  -7 -21  -1    6.41    1.60
  -7 -21   2    9.43    1.61
  -7 -21   2   12.02    1.71
  -7 -21  -2   14.50    1.89
  -7 -21  -3    0.90    1.23
  -7 -21   3    1.98    1.45
 -21   7  -3    1.08    1.23
  -7 -21   3   -0.05    1.36
  -7 -21  -3    1.84    1.45
  -7 -21  -4    4.62    1.25
  -7 -21   4    6.22    1.53
 -21   7  -4    5.19    1.40
  -7 -21   4    5.32    1.50
  -7 -21  -4    4.55    1.56
 -21   7  -5   11.66    1.57
  -7 -21  -5   14.76    1.48
  -7 -21   5   15.30    1.73
  -7 -21  -6   21.25    1.61
 -21   7  -6   19.19    1.81
  -7 -21   6   21.08    1.82
  -7 -21  -7   35.49    2.07
 -21   7  -8   14.18    1.31
  -7 -21   8   13.48    1.28
  -6 -21   0    0.21    1.55
  -6 -21   0    2.09    1.45
  -6 -21   1  146.31    6.68
  -6 -21  -1  156.18    6.80
  -6 -21  -2   16.08    2.01
  -6 -21  -2   19.62    1.80
  -6 -21   2   18.05    1.86
  -6 -21   2   14.79    1.77
  -6 -21   3   14.79    1.77
  -6 -21  -3   12.62    1.58
 -21   6  -3   14.90    1.67
  -6 -21   3   13.89    1.70
  -6 -21  -3   11.23    1.81
  -6 -21   4    5.38    1.35
  -6 -21  -4    2.61    1.37
  -6 -21  -4    2.53    1.27
 -21   6  -4    4.25    1.45
  -6 -21   4    5.50    1.58
  -6 -21   5   24.20    2.12
  -6 -21  -5   24.99    1.89
 -21   6  -5   25.81    2.12
  -6 -21   6   25.26    1.97
  -6 -21  -6   22.44    1.74
 -21   6  -6   22.18    1.97
  -6 -21  -7   16.10    1.46
  -6 -21   8    6.42    1.11
 -21   6  -8    6.31    1.02
 -21   6  -8    6.56    1.12
  -5 -21   0  126.66    5.92
  -5 -21   1   11.91    1.89
  -5 -21  -1    9.90    1.86
  -5 -21   2    8.62    1.62
  -5 -21  -2   11.15    1.70
  -5 -21   2   13.97    1.71
  -5 -21  -2   11.56    1.84
  -5 -21  -3    4.82    1.41
  -5 -21   3    5.55    1.43
  -5 -21  -3    5.12    1.56
  -5 -21   3    4.77    1.57
 -21   5  -3    2.86    1.40
  -5 -21   4   49.74    3.03
 -21   5  -4   50.52    3.02
  -5 -21   4   48.16    2.83
  -5 -21  -4   44.29    2.84
  -5 -21  -4   50.97    2.80
  -5 -21   5   24.48    2.06
 -21   5  -5   21.34    1.99
  -5 -21  -6    1.94    1.08
  -5 -21   6   -0.05    1.32
 -21   5  -6    1.71    1.27
 -21   5  -7    5.27    1.20
 -21   5  -8    0.11    0.92
  -5 -21   8    1.02    1.04
 -21   5  -8   -0.34    0.98
  -4 -21   0    1.84    1.63
  -4 -21   1   20.79    2.16
  -4 -21  -1   24.60    2.28
  -4 -21  -1   26.82    2.26
  -4 -21  -2    5.55    1.52
  -4 -21   2    4.41    1.54
  -4 -21  -2    6.70    1.73
 -21   4  -2    5.06    1.40
  -4 -21   2    4.89    1.51
  -4 -21   3   30.32    2.39
 -21   4  -3   29.93    2.35
  -4 -21  -3   32.81    2.28
  -4 -21   3   35.00    2.37
  -4 -21  -3   31.47    2.48
  -4 -21   4    1.39    1.27
  -4 -21  -4    4.83    1.34
  -4 -21  -4    2.30    1.26
  -4 -21   4    4.08    1.55
 -21   4  -4    4.32    1.52
  -4 -21  -5    5.50    1.25
  -4 -21   5    3.81    1.47
 -21   4  -5    4.22    1.54
  -4 -21  -6    2.99    1.15
 -21   4  -6   -0.70    1.34
  -4 -21   6    1.44    1.32
 -21   4  -7    4.15    1.19
  -4 -21   8    0.47    1.00
 -21   4  -8   -0.28    1.02
 -21   4  -8    0.95    0.95
 -21   4  -9   -0.30    0.75
  -4 -21   9    0.58    0.79
  -3 -21   0   71.21    3.93
  -3 -21   1    3.06    1.57
  -3 -21  -1    3.60    1.71
  -3 -21   2   38.01    2.57
 -21   3  -2   39.73    2.66
  -3 -21   2   39.63    2.74
  -3 -21  -2   44.05    2.82
  -3 -21  -2   44.31    2.77
  -3 -21   3   -0.74    1.42
  -3 -21  -3    0.06    1.36
 -21   3  -3   -0.07    1.42
  -3 -21   3    2.35    1.39
  -3 -21  -3    3.15    1.49
  -3 -21   4    7.36    1.65
  -3 -21  -4    6.34    1.39
 -21   3  -4    7.14    1.67
  -3 -21   4    7.52    1.39
  -3 -21  -4    6.45    1.46
 -21   3  -5   -0.07    1.47
  -3 -21   5    1.33    1.39
  -3 -21  -5    1.22    1.14
  -3 -21   6    3.14    1.40
 -21   3  -6    4.75    1.50
 -21   3  -7    0.92    1.16
  -3 -21   8    7.54    1.25
 -21   3  -8    4.73    1.21
 -21   3  -8    5.74    1.17
  -3 -21   9    0.85    0.88
 -21   3  -9    0.06    0.78
 -21   3  -9    0.94    0.79
  -2 -21   0    1.04    1.62
  -2 -21   1   61.82    3.50
  -2 -21  -1   63.32    3.58
  -2 -21  -1   57.01    3.24
  -2 -21   2   12.05    1.82
  -2 -21  -2   10.33    1.91
  -2 -21  -2    6.29    1.45
  -2 -21   2    7.10    1.54
 -21   2  -2    9.18    1.64
  -2 -21   3    7.62    1.64
  -2 -21   3    7.27    1.59
  -2 -21  -3    9.18    1.64
 -21   2  -3    7.91    1.73
  -2 -21   4    2.08    1.49
 -21   2  -4    3.21    1.55
  -2 -21   4    2.09    1.27
  -2 -21  -4    2.21    1.35
  -2 -21   5   19.10    1.92
 -21   2  -5   17.60    2.10
 -21   2  -6    1.68    1.25
  -2 -21   6   -1.32    1.33
 -21   2  -6    0.44    1.47
 -21   2  -7    7.32    1.40
  -2 -21   7    7.02    1.43
 -21   2  -7    5.21    1.49
 -21   2  -8    2.04    1.07
  -2 -21   8    0.98    1.11
 -21   2  -8    3.61    1.16
 -21   2  -9    1.06    0.88
  -2 -21   9    1.92    0.95
 -21   2  -9    1.95    0.85
  -1 -21   0   40.57    2.87
  -1 -21  -1   31.16    2.32
  -1 -21   1   31.47    2.48
  -1 -21  -1   28.99    2.52
 -21   1  -2   27.05    2.31
  -1 -21   2   31.46    2.38
  -1 -21  -2   31.10    2.47
  -1 -21  -2   28.21    2.19
  -1 -21   3    2.89    1.46
  -1 -21  -3    2.49    1.40
  -1 -21  -3    2.66    1.38
 -21   1  -3    3.78    1.50
  -1 -21   3    2.11    1.41
  -1 -21   4   10.37    1.74
 -21   1  -4   13.20    1.90
  -1 -21   4   12.64    1.63
  -1 -21  -4   14.48    1.71
  -1 -21   5   -0.98    1.43
 -21   1  -5    0.07    1.44
 -21   1  -6   13.21    1.70
  -1 -21   6   14.88    1.72
 -21   1  -7    0.05    1.23
  -1 -21   7    0.84    1.19
 -21   1  -7    0.06    1.28
 -21   1  -8    1.27    1.05
 -21   1  -8    1.92    1.13
 -21   1  -9    1.20    0.90
  -1 -21   9    0.98    0.86
 -21   1  -9    0.96    0.81
   0 -21   0    0.73    1.49
   0 -21   1    7.34    1.80
   0 -21  -1    8.77    1.85
 -21   0  -1    8.36    1.53
   0 -21  -1   11.00    1.73
 -21   0  -2   32.33    2.42
   0 -21   2   31.44    2.42
   0 -21  -2   31.04    2.47
   0 -21  -2   35.53    2.53
   0 -21   3   15.29    1.73
   0 -21  -3   13.05    1.86
   0 -21  -3   15.19    1.80
 -21   0  -3   13.16    1.86
   0 -21   3   12.26    1.72
   0 -21   4   10.03    1.53
   0 -21  -4    7.96    1.53
   0 -21   4    6.67    1.54
 -21   0  -4    6.49    1.70
   0 -21  -4    5.45    1.46
 -21   0  -5   11.79    1.91
   0 -21   5   13.33    1.69
   0 -21   6    1.94    1.34
 -21   0  -6    3.93    1.41
 -21   0  -7    4.58    1.45
   0 -21   7    6.30    1.40
 -21   0  -7    5.60    1.47
 -21   0  -8    0.41    1.06
 -21   0  -8    0.18    1.06
 -21   0  -9   -0.90    0.84
 -21   0  -9    1.02    0.87
   0 -21   9   -0.34    0.89
   1 -21   0    5.04    1.71
   1 -21  -1   45.38    2.93
   1 -21   1   44.12    2.87
   1 -21  -1   40.03    2.87
   1 -21   1   43.04    2.68
 -21  -1  -1   41.66    2.66
   1 -21  -2   48.56    3.05
 -21  -1  -2   48.57    2.97
   1 -21   2   46.70    2.88
   1 -21   2   48.90    2.99
   1 -21  -2   50.72    3.11
   1 -21   3    4.30    1.44
   1 -21  -3    8.25    1.53
   1 -21  -3    6.84    1.63
   1 -21   3    5.29    1.44
   1 -21   3    4.87    1.51
 -21  -1  -3    7.99    1.63
   1 -21   4    0.29    1.21
   1 -21  -4    1.46    1.22
   1 -21   4    1.73    1.33
   1 -21  -4    0.38    1.29
   1 -21   4    0.71    1.34
 -21  -1  -4    1.46    1.55
 -21  -1  -5   -0.57    1.46
   1 -21   5    0.06    1.31
   1 -21  -5   -0.85    1.27
   1 -21   6   13.41    1.61
 -21  -1  -6   11.40    1.72
   1 -21   7    0.92    1.17
 -21  -1  -7    0.51    1.29
 -21  -1  -7   -0.05    1.23
 -21  -1  -8   -1.59    1.14
 -21  -1  -8    3.32    1.12
   1 -21   9    2.77    0.93
 -21  -1  -9    3.35    0.91
 -21  -1  -9    1.46    0.91
   2 -21   0    0.21    1.50
 -21  -2  -1    0.63    1.26
   2 -21  -1   -1.12    1.65
   2 -21   1    0.68    1.46
   2 -21  -1    1.48    1.51
   2 -21   1    0.49    1.24
   2 -21  -2   33.57    2.62
 -21  -2  -2   32.04    2.40
   2 -21   2   33.68    2.28
   2 -21   2   28.06    2.34
   2 -21  -2   31.45    2.37
   2 -21   3    8.35    1.52
   2 -21  -3    8.93    1.61
   2 -21   3    8.06    1.52
   2 -21   3    8.40    1.52
   2 -21  -3    6.69    1.64
 -21  -2  -3    6.98    1.65
   2 -21   4    4.61    1.37
   2 -21  -4    6.17    1.47
   2 -21   4    6.79    1.46
 -21  -2  -4    7.56    1.75
   2 -21  -4    6.39    1.58
   2 -21   4    6.26    1.45
   2 -21   5    9.54    1.57
   2 -21   5    6.52    1.52
 -21  -2  -5    8.69    1.81
   2 -21  -5    6.50    1.49
   2 -21  -6    3.73    1.21
 -21  -2  -6    7.01    1.47
   2 -21   6    7.72    1.41
 -21  -2  -7    6.10    1.38
 -21  -2  -7    5.47    1.38
   2 -21   7    3.46    1.27
 -21  -2  -8    2.50    1.16
 -21  -2  -8    2.48    1.16
 -21  -2  -9    0.60    0.85
 -21  -2  -9    1.05    0.82
   2 -21   9    0.99    0.86
   3 -21   0    2.54    1.47
 -21  -3  -1   -0.31    1.24
   3 -21   1   -0.67    1.47
   3 -21  -1    0.62    1.42
   3 -21  -1   -0.98    1.63
   3 -21   1    0.77    1.16
 -21  -3  -2    4.78    1.49
   3 -21   2    3.63    1.46
   3 -21  -2    4.50    1.50
   3 -21  -2    5.89    1.78
   3 -21   2    3.88    1.34
 -21  -3  -3    1.80    1.49
   3 -21   3    1.68    1.27
   3 -21   3    0.48    1.32
   3 -21  -3    2.35    1.36
   3 -21  -3    0.80    1.48
   3 -21   4    0.88    1.24
   3 -21  -4    0.39    1.19
   3 -21   4    1.12    1.22
 -21  -3  -4    0.07    1.52
   3 -21  -4    2.02    1.44
   3 -21   4    3.31    1.33
   3 -21   5    0.83    1.26
   3 -21   5   -0.12    1.28
 -21  -3  -5    0.14    1.51
   3 -21  -5    1.21    1.31
   3 -21  -6   -0.05    1.11
   3 -21   6    1.02    1.24
 -21  -3  -6    2.23    1.32
 -21  -3  -7    1.29    1.19
   3 -21   7   -0.22    1.16
 -21  -3  -7    0.87    1.28
 -21  -3  -8    3.01    1.12
 -21  -3  -8    3.15    1.13
 -21  -3  -9    1.14    0.88
   3 -21   9    2.12    0.90
 -21  -3  -9    0.96    0.83
   4 -21   0    1.03    1.84
   4 -21   0    0.07    1.33
 -21  -4  -1    6.00    1.38
   4 -21   1    5.16    1.51
   4 -21  -1    5.00    1.51
   4 -21  -1    6.68    1.82
   4 -21   1    3.21    1.27
 -21  -4  -2    2.66    1.39
   4 -21   2    3.24    1.33
   4 -21  -2    2.88    1.43
   4 -21  -2    3.52    1.70
   4 -21   2    2.21    1.29
 -21  -4  -3    1.41    1.43
   4 -21   3    2.34    1.25
   4 -21   3    3.63    1.35
   4 -21  -3    2.26    1.33
   4 -21  -3    3.81    1.59
   4 -21   4    0.80    1.16
   4 -21  -4    0.43    1.16
   4 -21   4    3.11    1.25
   4 -21  -4   -1.36    1.45
   4 -21   4    1.37    1.25
 -21  -4  -4    0.68    1.44
   4 -21   5    3.87    1.30
 -21  -4  -5    4.99    1.63
   4 -21  -5    3.85    1.47
   4 -21   5    5.48    1.35
   4 -21   6    1.76    1.21
   4 -21  -6    1.17    1.22
 -21  -4  -6    1.81    1.26
 -21  -4  -7   -0.79    1.19
 -21  -4  -7    1.15    1.20
   4 -21   7    0.99    1.13
 -21  -4  -8    1.80    1.05
 -21  -4  -8    3.15    1.06
   4 -21   8    0.49    1.07
   4 -21   9    0.05    0.79
 -21  -4  -9    0.65    0.79
   5 -21   0    2.47    1.41
   5 -21   1    4.20    1.32
   5 -21  -1    3.68    1.42
   5 -21   1    3.65    1.18
 -21  -5  -1    3.28    1.30
   5 -21   2    1.84    1.21
   5 -21  -2    0.62    1.67
   5 -21   2    2.06    1.32
   5 -21  -2    1.05    1.34
 -21  -5  -2    2.83    1.33
   5 -21  -3   27.04    2.37
 -21  -5  -3   27.05    2.18
   5 -21   3   24.64    2.03
   5 -21   3   28.29    2.08
   5 -21  -3   24.00    1.98
 -21  -5  -4    4.53    1.49
   5 -21  -4    2.87    1.49
   5 -21   4    4.46    1.37
   5 -21   4    3.60    1.25
   5 -21  -4    1.39    1.17
   5 -21   4    3.32    1.21
   5 -21   5    1.45    1.15
   5 -21  -5    2.83    1.35
   5 -21   5    2.21    1.24
 -21  -5  -5    0.95    1.41
 -21  -5  -6    2.29    1.25
   5 -21   6    2.76    1.17
 -21  -5  -7    4.91    1.23
   5 -21   7    1.92    1.11
 -21  -5  -7    3.70    1.28
 -21  -5  -8   -0.04    0.98
   5 -21   8   -0.69    0.97
 -21  -5  -8    1.33    0.98
   6 -21   0   -0.31    1.35
   6 -21   0    1.48    1.72
 -21  -6  -1   18.82    1.69
   6 -21   1   12.22    1.54
   6 -21   1   13.84    1.75
   6 -21  -1   15.98    1.72
   6 -21  -1   19.74    2.19
   6 -21   2    4.63    1.36
   6 -21  -2    4.57    1.42
 -21  -6  -2    4.29    1.44
   6 -21   2    5.40    1.30
   6 -21  -3   -1.21    1.24
   6 -21   3    2.29    1.20
 -21  -6  -3    1.93    1.32
   6 -21   3    0.50    1.13
   6 -21  -4    9.42    1.64
   6 -21   4    6.56    1.41
   6 -21   4    9.07    1.33
   6 -21  -4    7.42    1.33
 -21  -6  -4    9.11    1.65
   6 -21   5    0.35    1.07
   6 -21   5   -0.42    1.20
   6 -21  -5    1.34    1.31
 -21  -6  -5   -0.72    1.42
 -21  -6  -6    4.03    1.22
   6 -21   6    1.18    1.11
 -21  -6  -6    0.33    1.30
 -21  -6  -7    3.46    1.10
   6 -21   7    1.44    1.10
   6 -21   7    0.72    1.03
 -21  -6  -7    3.61    1.19
 -21  -6  -8    3.36    0.97
 -21  -6  -8    2.02    0.90
   6 -21   8    1.78    0.92
   7 -21   0    9.21    1.56
   7 -21   0   13.42    1.99
   7 -21   1    0.41    1.28
   7 -21  -1    2.74    1.35
   7 -21   1   -0.31    1.68
   7 -21  -1    1.07    1.67
   7 -21   1    0.25    1.07
 -21  -7  -1    0.44    1.14
   7 -21   2    3.14    1.36
   7 -21  -2    4.20    1.29
   7 -21  -2    6.34    1.64
   7 -21   2    2.20    1.18
 -21  -7  -2    4.14    1.29
   7 -21   3    1.40    1.09
   7 -21  -3    2.68    1.25
   7 -21  -3    1.91    1.53
 -21  -7  -3    1.47    1.28
   7 -21   3    1.00    1.16
 -21  -7  -4   12.45    1.70
   7 -21   4   11.23    1.47
   7 -21   4   11.19    1.39
   7 -21  -4   10.07    1.36
   7 -21   5    0.50    1.13
   7 -21   6    2.34    1.15
 -21  -7  -6    0.76    1.19
   7 -21   6    4.14    1.09
 -21  -7  -7    2.42    1.03
 -21  -7  -7   -0.62    1.03
   7 -21   7    2.68    0.96
   7 -21   7   -1.24    1.08
 -21  -7  -8    8.95    1.13
   7 -21   8    9.86    1.15
 -21  -7  -8   11.71    1.15
   8 -21   0    1.03    1.25
   8 -21   0    0.44    1.56
   8 -21   1    2.09    1.58
   8 -21  -1    0.73    1.55
   8 -21   1    1.96    1.05
   8 -21   1    2.07    1.26
   8 -21  -1    1.41    1.20
 -21  -8  -1    0.62    1.15
   8 -21   2    1.28    1.40
   8 -21  -2    0.76    1.42
 -21  -8  -2   -0.59    1.21
   8 -21   2    1.73    1.09
   8 -21   2    3.09    1.26
   8 -21  -2    0.97    1.19
   8 -21   3   23.01    1.83
   8 -21  -3   23.35    1.85
   8 -21  -3   28.39    2.21
   8 -21   3   24.13    1.83
 -21  -8  -3   24.90    2.03
   8 -21   4    0.92    1.13
 -21  -8  -4    0.11    1.25
   8 -21  -4    0.65    1.28
   8 -21   4    2.63    1.04
   8 -21  -4    0.93    1.06
   8 -21  -5   28.07    2.09
 -21  -8  -6    9.65    1.42
   8 -21   6    7.49    1.12
   8 -21   6    8.54    1.26
 -21  -8  -7    0.33    0.95
 -21  -8  -7    2.80    0.92
   8 -21   7    1.21    0.86
   8 -21   7    1.05    0.98
   9 -21   0   28.75    2.27
   9 -21   0   22.80    1.92
   9 -21   1    0.71    1.39
   9 -21  -1    2.50    1.49
   9 -21   1   -0.05    1.18
   9 -21  -1    0.42    1.13
 -21  -9  -1    0.38    1.06
   9 -21   2    6.81    1.27
   9 -21  -2    4.96    1.29
   9 -21   2    6.16    1.39
   9 -21  -2    7.10    1.50
   9 -21   2    6.00    1.17
 -21  -9  -2    4.90    1.21
   9 -21   3    4.19    1.17
   9 -21  -3    4.84    1.19
 -21  -9  -3    7.06    1.31
   9 -21   3    3.96    1.24
   9 -21  -3    8.37    1.48
   9 -21   3    3.28    1.14
   9 -21  -4   23.55    1.85
   9 -21   4   26.56    1.90
   9 -21  -4   32.63    2.17
   9 -21   4   26.18    1.87
 -21  -9  -4   32.26    2.10
   9 -21   5    3.77    0.95
 -21  -9  -6    6.41    1.24
   9 -21   6    6.08    1.19
 -21  -9  -7    0.91    0.89
   9 -21   7    0.45    0.85
 -21  -9  -7    2.03    0.84
  10 -21   0   -1.69    1.31
  10 -21   0    1.23    1.11
  10 -21   1   14.79    1.63
  10 -21  -1   16.94    1.77
  10 -21   1   14.86    1.55
  10 -21  -1   15.19    1.56
 -21 -10  -2    4.67    1.19
  10 -21   2    4.58    1.21
  10 -21  -2    5.78    1.23
  10 -21   2    5.45    1.27
  10 -21  -2    7.15    1.45
  10 -21   2    6.05    1.09
 -21 -10  -3    0.97    1.10
  10 -21   3    0.79    1.01
  10 -21  -3    1.14    1.07
  10 -21  -3    1.05    1.28
  10 -21   3    1.26    1.01
  10 -21   3   -0.64    0.97
 -21 -10  -4   10.72    1.39
  10 -21  -4    6.40    1.17
  10 -21   4    8.53    1.12
  10 -21  -4   11.60    1.48
  10 -21   4    9.18    1.23
 -21 -10  -6    2.20    0.95
  10 -21   6    0.31    0.90
  11 -21   0    4.83    1.18
  11 -21   0    8.90    1.38
  11 -21   1    1.23    1.08
  11 -21  -1    2.27    1.04
  11 -21   1    1.02    1.11
  11 -21  -1    2.80    1.21
 -21 -11  -2    7.99    1.19
  11 -21   2    8.33    1.22
  11 -21  -2   10.73    1.26
  11 -21   2   10.01    1.14
  11 -21  -2    9.77    1.44
  11 -21   2    7.48    1.15
 -21 -11  -3    0.41    0.97
  11 -21   3    0.82    0.95
  11 -21  -3    0.24    1.00
  11 -21   3    0.72    0.91
  11 -21  -3    0.15    1.12
 -21 -11  -4    4.47    1.08
  11 -21   4    3.66    1.04
 -21 -11  -6    2.61    0.86
  11 -21   6    2.57    0.85
  12 -21   0    0.28    0.97
  12 -21  -1    2.14    1.05
  12 -21   1    3.84    0.98
  12 -21  -1    2.88    1.00
  12 -21   2    5.10    1.03
  12 -21  -2    5.08    1.07
 -21 -12  -2    4.39    1.00
  12 -21   2    5.08    0.97
 -21 -12  -3    0.45    0.86
  12 -21   3    0.03    0.83
  12 -21   4   14.90    1.29
 -21 -12  -4   19.74    1.38
 -21 -13  -2    2.51    0.80
  13 -21   2    3.16    0.76
 -21 -13  -3    0.58    0.76
  13 -21   3    0.31    0.72
 -11 -22   0   -1.51    4.19
 -11 -22   1   30.84    4.35
 -11 -22  -1   33.57    4.54
 -11 -22  -3    1.80    0.78
 -10 -22   0   16.32    3.99
 -10 -22   1    6.42    3.75
 -10 -22  -1    2.94    3.96
 -10 -22   2    6.44    3.84
 -10 -22  -2    9.99    4.14
 -10 -22  -2    5.59    1.03
 -10 -22  -4    8.12    0.98
 -10 -22   4    6.93    2.27
 -10 -22  -5    0.80    0.70
  -9 -22   0   -2.61    2.39
  -9 -22   1   13.38    2.62
  -9 -22  -1    7.37    2.66
  -9 -22   2   18.26    2.96
  -9 -22  -2   16.33    3.12
  -9 -22  -2   10.06    1.24
  -9 -22   3    5.00    3.30
  -9 -22  -3    3.75    3.52
  -9 -22  -4   -0.56    0.87
  -9 -22   4    2.44    1.26
  -9 -22  -5    1.41    0.79
  -9 -22   5    0.53    1.17
  -8 -22   0   31.53    2.38
  -8 -22   1    0.20    1.57
  -8 -22  -1   -0.15    1.66
  -8 -22   2    4.31    1.76
  -8 -22  -2    1.99    1.86
  -8 -22   3    0.63    2.15
  -8 -22  -3    0.55    2.32
  -8 -22  -3    3.69    1.07
  -8 -22  -4    5.95    1.07
  -8 -22   4    8.01    1.27
 -22   8  -5    0.46    0.91
  -8 -22  -5    0.03    0.83
  -8 -22   5    1.29    1.02
 -22   8  -6    2.54    0.88
  -8 -22   6    3.90    0.99
  -7 -22   0   -0.61    1.39
  -7 -22  -1   19.59    1.87
  -7 -22   1   16.08    1.81
  -7 -22  -2   10.81    1.46
  -7 -22   2   12.73    1.57
  -7 -22  -2   14.78    1.72
  -7 -22   3   25.88    2.04
  -7 -22  -3   26.91    2.14
  -7 -22  -3   26.53    1.84
  -7 -22  -4    7.80    2.07
  -7 -22  -4    5.13    1.11
  -7 -22   4    5.40    1.27
  -7 -22  -5    6.46    1.03
 -22   7  -5    5.83    1.16
  -7 -22   5    4.99    1.20
 -22   7  -6    6.95    1.13
  -7 -22   6    7.50    1.18
 -22   7  -7   13.96    1.20
  -6 -22   0   50.92    2.96
  -6 -22   1    7.86    1.46
  -6 -22  -1    7.62    1.50
  -6 -22  -2   52.36    2.81
  -6 -22   2   53.94    2.93
  -6 -22  -2   50.31    2.98
  -6 -22   3   -1.61    1.30
  -6 -22  -3    2.08    1.32
  -6 -22  -3    1.70    1.14
  -6 -22   4   33.76    2.14
 -22   6  -4   32.33    2.10
  -6 -22  -4   33.43    2.01
  -6 -22  -4   29.29    2.17
  -6 -22   5    1.80    1.16
 -22   6  -5    1.83    1.09
  -6 -22  -5    0.22    0.97
 -22   6  -6   21.92    1.65
  -6 -22   6   20.69    1.61
 -22   6  -7   10.37    1.19
  -5 -22   0   -0.30    1.39
  -5 -22   1   14.26    1.67
  -5 -22  -1   16.39    1.85
  -5 -22   2    3.71    1.31
  -5 -22  -2    4.24    1.38
  -5 -22  -3   65.89    3.28
  -5 -22   3   64.11    3.28
  -5 -22  -3   64.47    3.40
  -5 -22   4   24.17    1.82
  -5 -22  -4   19.01    1.68
  -5 -22   4   19.39    1.66
  -5 -22  -4   18.66    1.73
 -22   5  -4   22.68    1.82
  -5 -22   5   32.81    2.13
 -22   5  -5   30.56    2.17
  -5 -22   6    3.24    1.11
 -22   5  -6    1.19    1.07
  -5 -22   7    3.77    1.03
  -4 -22   0    1.63    1.47
  -4 -22   1    0.30    1.40
  -4 -22  -1    0.50    1.44
  -4 -22   2   44.68    2.69
  -4 -22  -2   47.02    2.82
 -22   4  -3    1.83    1.18
  -4 -22   3    4.24    1.34
  -4 -22  -3    2.55    1.37
 -22   4  -4   10.66    1.48
  -4 -22   4    9.98    1.38
  -4 -22  -4   10.60    1.39
  -4 -22   4    8.45    1.46
  -4 -22   5   20.51    1.86
 -22   4  -5   25.44    1.97
 -22   4  -6    0.72    1.12
  -4 -22   6    1.31    1.13
  -4 -22   7    2.18    0.99
 -22   4  -8    3.47    0.86
  -3 -22   0    2.31    1.51
  -3 -22   1   45.61    2.77
  -3 -22  -1   45.61    2.83
  -3 -22   2   12.02    1.66
  -3 -22  -2   13.93    1.76
  -3 -22   3    2.55    1.22
  -3 -22  -3    1.84    1.32
 -22   3  -3    0.88    1.22
  -3 -22   4    1.27    1.14
  -3 -22  -4    3.60    1.18
 -22   3  -4    1.67    1.31
  -3 -22   4    1.57    1.26
 -22   3  -5   11.31    1.61
  -3 -22   5   11.56    1.51
 -22   3  -6   12.57    1.55
  -3 -22   6   11.00    1.44
  -3 -22   7    3.50    1.04
 -22   3  -8   -0.21    0.78
  -2 -22   0   48.50    2.90
  -2 -22   0   42.70    2.57
  -2 -22   1    2.86    1.42
  -2 -22  -1    5.86    1.51
  -2 -22   2   19.84    1.89
  -2 -22  -2   20.40    2.00
 -22   2  -3    5.54    1.42
  -2 -22   3    6.35    1.35
  -2 -22  -3    4.20    1.39
  -2 -22   4   30.88    2.22
  -2 -22   4   33.92    2.14
  -2 -22  -4   33.14    2.14
 -22   2  -4   33.51    2.37
 -22   2  -5    3.29    1.32
  -2 -22   5    3.97    1.30
 -22   2  -6    2.45    1.24
  -2 -22   6    3.93    1.19
  -2 -22   7    1.42    0.99
 -22   2  -8    2.67    0.89
  -1 -22   0    1.13    1.31
  -1 -22   0   -1.49    1.51
  -1 -22  -1   19.05    1.80
  -1 -22   1   22.06    2.03
  -1 -22  -1   19.70    2.04
  -1 -22   2    4.57    1.40
  -1 -22  -2    5.93    1.47
  -1 -22  -2    4.41    1.34
  -1 -22   3   98.28    4.61
  -1 -22  -3  101.64    4.73
 -22   1  -3  102.71    4.77
 -22   1  -4    1.44    1.40
  -1 -22   4    3.13    1.30
  -1 -22   4    0.33    1.13
  -1 -22  -4    1.52    1.17
 -22   1  -5   12.91    1.70
  -1 -22   5   13.38    1.57
 -22   1  -6    4.03    1.31
  -1 -22   6    4.03    1.22
  -1 -22   7    2.65    1.08
 -22   1  -8    0.62    0.81
   0 -22   0  138.42    6.11
   0 -22   0  136.42    6.13
   0 -22  -1    1.12    1.36
   0 -22   1    0.31    1.37
   0 -22  -1    1.03    1.42
   0 -22  -2   53.24    3.01
   0 -22   2   54.57    3.04
   0 -22  -2   51.56    3.05
 -22   0  -3   18.81    1.85
   0 -22   3   16.78    1.76
   0 -22  -3   18.34    1.76
   0 -22  -3   19.45    1.77
 -22   0  -4   12.43    1.73
   0 -22   4   12.42    1.52
   0 -22   4   11.91    1.46
   0 -22  -4   10.31    1.43
 -22   0  -5    2.23    1.39
   0 -22   5    3.18    1.25
   0 -22   6   17.01    1.60
 -22   0  -6   18.11    1.82
   0 -22   7    3.98    1.12
 -22   0  -8    0.20    0.87
   1 -22   0    3.47    1.64
   1 -22   0    2.16    1.49
   1 -22   1  112.18    5.33
   1 -22  -1  115.08    5.35
   1 -22  -1  124.90    5.47
 -22  -1  -2   10.41    1.50
   1 -22   2   12.67    1.64
   1 -22  -2   11.39    1.66
   1 -22  -2    8.95    1.67
 -22  -1  -3    3.96    1.41
   1 -22   3    4.24    1.32
   1 -22  -3    4.22    1.34
   1 -22  -3    5.01    1.40
 -22  -1  -4    1.91    1.36
   1 -22  -4    0.11    1.18
   1 -22   4   -0.62    1.14
   1 -22  -4    0.24    1.11
 -22  -1  -5    2.42    1.42
   1 -22   5    2.93    1.24
 -22  -1  -6   -0.16    1.22
   1 -22   6    0.49    1.07
 -22  -1  -7    6.99    1.31
   1 -22   7    8.81    1.20
 -22  -1  -8    8.85    1.11
 -22  -1  -8    7.12    1.05
   2 -22   0   45.46    2.91
   2 -22   0   52.35    3.16
   2 -22  -1    8.69    1.71
   2 -22   1    7.87    1.54
   2 -22  -1    6.96    1.59
 -22  -2  -2   45.05    2.65
   2 -22  -2   45.78    2.89
   2 -22   2   41.72    2.67
   2 -22  -2   41.13    2.64
   2 -22  -3   12.24    1.72
   2 -22   3   11.46    1.48
   2 -22  -3   11.95    1.59
 -22  -2  -3   12.26    1.66
   2 -22  -4    5.77    1.39
   2 -22   4    4.57    1.19
   2 -22  -4    2.26    1.17
 -22  -2  -4    5.38    1.42
   2 -22  -5    0.39    1.10
 -22  -2  -5   -0.70    1.41
   2 -22   5    0.22    1.10
   2 -22   6   -1.04    1.09
 -22  -2  -7    0.82    1.04
   2 -22   7    2.63    0.97
 -22  -2  -8    0.10    0.81
   2 -22   8    1.08    0.83
   3 -22   0    1.21    1.63
   3 -22   0    1.03    1.35
   3 -22  -1    1.97    1.54
   3 -22   1    1.36    1.27
   3 -22  -1    3.80    1.34
   3 -22   2   -0.58    1.14
   3 -22   2    1.34    1.26
   3 -22  -2    1.21    1.32
   3 -22  -2    1.87    1.52
 -22  -3  -2    0.80    1.23
   3 -22   3    2.63    1.21
   3 -22   3    4.98    1.24
   3 -22  -3    4.11    1.31
   3 -22  -3    3.66    1.47
 -22  -3  -3    2.33    1.37
   3 -22   4    0.95    1.19
   3 -22  -4   -1.10    1.34
   3 -22   4   -1.65    1.14
   3 -22  -4    0.37    1.03
 -22  -3  -4   -0.24    1.37
   3 -22   5    5.72    1.20
   3 -22  -5    2.27    1.18
 -22  -3  -5    2.87    1.39
   3 -22   6    1.45    1.05
 -22  -3  -7    0.88    1.04
   3 -22   7    2.15    0.94
 -22  -3  -8    2.55    0.85
   3 -22   8    1.34    0.83
   4 -22   0    1.17    1.32
   4 -22   0    1.68    1.69
   4 -22   1    0.80    1.26
   4 -22  -1    1.40    1.32
   4 -22  -1    0.67    1.53
   4 -22   2    2.97    1.14
   4 -22   2    2.12    1.29
   4 -22  -2    2.72    1.26
   4 -22  -2    3.93    1.53
 -22  -4  -2    1.72    1.24
   4 -22   3    4.03    1.22
   4 -22   3    5.18    1.26
   4 -22  -3    6.39    1.30
   4 -22  -3    5.91    1.54
 -22  -4  -3    5.09    1.47
   4 -22   4    1.47    1.14
   4 -22   4    0.40    1.00
   4 -22  -4    2.17    1.00
 -22  -4  -4    0.23    1.29
   4 -22  -4    0.29    1.26
 -22  -4  -5    0.66    1.33
   4 -22   5    1.26    1.13
   4 -22  -5    0.20    1.14
   4 -22   6    4.47    1.07
   4 -22   7    1.21    0.90
 -22  -4  -7    0.08    1.00
   5 -22   0   -0.68    1.22
   5 -22   1    4.74    1.30
   5 -22  -1    4.18    1.27
   5 -22   2   -0.88    1.09
   5 -22   2   -0.31    1.20
   5 -22  -2    0.26    1.17
   5 -22  -2    1.53    1.52
 -22  -5  -2    0.32    1.17
   5 -22   3    2.32    1.12
   5 -22   3    1.40    1.10
   5 -22  -3    1.65    1.12
   5 -22  -3    3.42    1.40
 -22  -5  -3    1.88    1.23
   5 -22   4    1.01    1.14
   5 -22   4    2.71    1.08
   5 -22  -4    3.82    1.08
 -22  -5  -4    3.60    1.36
   5 -22  -4    4.31    1.42
 -22  -5  -5    3.26    1.35
   5 -22   5    1.15    1.07
   5 -22  -5    0.76    1.17
   5 -22   6   -0.97    0.97
 -22  -5  -7    5.40    1.09
   5 -22   7    5.05    1.01
   6 -22   0   -0.11    1.24
   6 -22   0    1.59    1.69
   6 -22   1    3.00    1.19
   6 -22  -1    1.91    1.15
   6 -22   1    3.41    1.52
   6 -22   2    0.51    1.01
   6 -22   2    2.69    1.20
   6 -22  -2    1.31    1.13
 -22  -6  -2    1.52    1.12
   6 -22   2   -0.07    1.45
   6 -22   3    0.78    1.08
   6 -22  -3    1.52    1.08
 -22  -6  -3    2.94    1.24
   6 -22   3    1.73    1.07
 -22  -6  -4    0.05    1.17
   6 -22   4    0.18    1.07
   6 -22  -4   -0.62    1.20
   6 -22  -4    0.24    1.00
 -22  -6  -5   13.80    1.64
   6 -22  -5   13.55    1.62
   6 -22   5   12.69    1.44
 -22  -6  -7    1.45    0.90
   6 -22   7    0.41    0.80
   7 -22   0   -1.12    1.17
   7 -22   0    1.02    1.47
   7 -22   1    1.54    1.16
   7 -22  -1    1.00    1.16
   7 -22   1    2.23    1.48
   7 -22  -1    1.55    1.50
   7 -22   2    0.26    1.01
   7 -22   2    0.56    1.08
   7 -22  -2    2.19    1.11
 -22  -7  -2    1.19    1.11
   7 -22   2    1.03    1.36
   7 -22  -2    0.45    1.44
   7 -22   3    3.23    1.07
   7 -22   3    1.58    1.03
   7 -22  -3    2.88    1.07
   7 -22   3    4.96    1.31
 -22  -7  -3    2.50    1.22
   7 -22   4    2.00    1.00
   7 -22  -4    2.81    0.97
 -22  -7  -4    2.09    1.19
   7 -22   5    0.24    0.96
 -22  -7  -5    2.18    1.10
 -22  -7  -7   12.61    1.20
   8 -22   0    2.37    1.39
   8 -22   0    0.38    1.08
   8 -22   1    3.14    1.42
   8 -22  -1    4.00    1.49
   8 -22   1    3.53    1.09
   8 -22  -1    3.79    1.12
 -22  -8  -2    6.06    1.20
   8 -22   2    6.69    1.39
   8 -22  -2    8.52    1.49
   8 -22   2    4.81    1.17
   8 -22  -2    5.70    1.13
 -22  -8  -3    9.55    1.28
   8 -22   3    5.30    1.12
   8 -22  -3    6.73    1.16
   8 -22   3    6.11    1.22
   8 -22  -3   10.34    1.49
   8 -22   3    6.58    1.12
 -22  -8  -4    4.74    1.15
   8 -22   4    4.49    1.08
   8 -22  -4    4.69    1.27
   8 -22   4    6.20    1.08
 -22  -8  -5    1.96    1.05
   8 -22   5    0.37    0.92
   9 -22   0    1.10    1.23
   9 -22   0    0.22    0.99
   9 -22   1    6.20    1.31
   9 -22  -1    5.32    1.42
   9 -22   1    4.05    1.12
   9 -22  -1    2.54    1.02
   9 -22   2   13.82    1.42
   9 -22  -2   14.31    1.58
   9 -22  -2   10.60    1.25
 -22  -9  -3   12.06    1.33
   9 -22   3   12.12    1.26
   9 -22  -3   15.31    1.32
   9 -22  -3   13.68    1.56
   9 -22   3   11.04    1.28
   9 -22   3   13.75    1.26
   9 -22   4    0.64    0.88
 -22  -9  -4    2.21    0.99
   9 -22  -4    1.94    1.08
   9 -22   5   18.38    1.45
 -22  -9  -5   25.13    1.65
  10 -22   0    5.97    1.24
  10 -22   0    7.44    1.11
  10 -22   1    5.82    1.14
  10 -22  -1    5.46    1.27
  10 -22   1    4.88    1.09
  10 -22  -1    4.95    1.08
  10 -22   2    4.55    1.03
  10 -22  -2    4.58    1.07
  10 -22   2    4.72    1.00
  10 -22   3    1.92    0.85
 -22 -10  -3    1.95    0.91
  10 -22  -3    2.16    1.07
 -22 -10  -4   20.23    1.45
  10 -22   4   16.33    1.32
  10 -22   5    9.51    1.03
  11 -22   0    1.29    0.86
  11 -22   1   12.62    1.18
  11 -22  -1   11.98    1.18
  11 -22   3    4.94    0.85
 -22 -11  -3    6.28    0.92
  11 -22   4    3.01    0.81
 -22 -11  -4    3.30    0.84
  -9 -23   0   22.73    3.26
  -8 -23   0    2.76    2.03
  -8 -23   1   28.77    2.55
  -8 -23  -1   28.44    2.64
  -8 -23   2   10.79    2.44
  -8 -23  -2   13.80    2.68
  -7 -23   0   19.76    1.83
  -7 -23   1    7.68    1.46
  -7 -23  -1    6.43    1.51
  -7 -23   2    7.40    1.54
  -7 -23  -2    8.95    1.68
  -6 -23   0   -1.57    1.27
  -6 -23   1   11.17    1.45
  -6 -23  -1   11.97    1.52
  -6 -23   2    0.48    1.14
  -6 -23  -2    1.72    1.21
  -6 -23   3   11.98    1.45
  -6 -23  -3    7.97    1.49
  -6 -23   5   15.43    1.25
  -5 -23   0    3.57    1.28
  -5 -23   1    6.80    1.35
  -5 -23  -1    7.26    1.41
  -5 -23   2   53.32    2.78
  -5 -23  -2   52.99    2.88
  -5 -23   3    4.99    1.13
  -5 -23  -3    6.09    1.21
  -5 -23   5   -0.33    0.90
 -23   5  -5    0.84    0.86
  -5 -23   6    9.00    0.99
 -23   5  -6    8.59    1.05
  -4 -23   0    0.46    1.22
  -4 -23   1   24.05    1.79
  -4 -23  -1   22.10    1.83
  -4 -23   2    0.58    1.16
  -4 -23  -2   -0.29    1.19
  -4 -23   3    8.05    1.26
  -4 -23  -3    9.10    1.28
  -4 -23   5    4.69    1.02
 -23   4  -5    3.11    1.01
  -4 -23   6    8.51    1.09
 -23   4  -6   11.17    1.11
  -3 -23   0   23.53    1.92
  -3 -23   1    5.46    1.35
  -3 -23  -1    7.47    1.40
  -3 -23   2   35.06    2.20
  -3 -23  -2   36.15    2.30
  -3 -23   3    1.73    1.05
  -3 -23  -3    1.13    1.06
  -3 -23  -4    3.81    1.00
  -3 -23   5    4.04    1.06
 -23   3  -5    4.64    1.07
  -3 -23   6    6.96    1.03
 -23   3  -6    6.19    1.06
  -2 -23   0    1.18    1.19
  -2 -23   1   26.43    1.97
  -2 -23  -1   26.89    1.98
  -2 -23   2    4.08    1.20
  -2 -23  -2    2.71    1.26
  -2 -23   3   33.49    2.05
  -2 -23  -3   32.42    2.08
  -2 -23  -4   15.26    1.42
 -23   2  -4   19.08    1.59
 -23   2  -5    7.40    1.24
  -2 -23   6    0.75    0.86
 -23   2  -6   -0.87    0.94
  -1 -23   0   11.85    1.55
  -1 -23   0    9.30    1.33
  -1 -23   1    0.16    1.20
  -1 -23  -1    0.75    1.27
  -1 -23   1    0.38    1.08
  -1 -23  -2   11.71    1.48
  -1 -23   2   12.94    1.44
  -1 -23   3   20.42    1.67
  -1 -23  -3   18.99    1.65
  -1 -23  -4   43.16    2.35
 -23   1  -4   45.77    2.58
 -23   1  -5    1.21    1.07
  -1 -23   6    3.63    0.97
 -23   1  -6    6.64    1.09
   0 -23   0   -0.59    1.25
   0 -23   0    0.36    1.15
   0 -23   1    2.23    1.25
   0 -23  -1    2.09    1.26
   0 -23   1    3.66    1.25
   0 -23  -1    1.71    1.20
   0 -23   2   31.04    2.09
   0 -23  -2   29.35    2.06
   0 -23   3   50.91    2.62
   0 -23  -3   44.38    2.57
   0 -23  -4   21.02    1.59
 -23   0  -4   24.33    1.84
 -23   0  -5    3.79    1.18
   0 -23   6    0.75    0.90
 -23   0  -6    0.74    0.97
   1 -23   0    0.21    1.23
   1 -23   0    2.02    1.26
   1 -23   1   -0.10    1.18
   1 -23  -1    1.05    1.27
   1 -23   1   -0.45    1.37
   1 -23  -1    1.64    1.27
   1 -23   2   45.85    2.53
   1 -23  -2   43.87    2.56
   1 -23  -2   43.60    2.57
   1 -23   3   15.71    1.53
   1 -23  -3   20.77    1.61
   1 -23  -3   17.75    1.59
   1 -23  -4    1.74    0.96
 -23  -1  -4    0.57    1.15
 -23  -1  -5    0.95    1.07
   1 -23   6    6.93    1.00
 -23  -1  -6    7.70    1.23
   2 -23   0   -0.48    1.34
   2 -23   0    0.21    1.19
   2 -23   1   37.91    2.37
   2 -23  -1   36.94    2.37
   2 -23   1   39.83    2.55
   2 -23  -1   43.22    2.57
   2 -23  -2   13.96    1.60
   2 -23   2   13.30    1.47
   2 -23  -2   10.80    1.47
   2 -23  -3    2.70    1.23
   2 -23   3    3.99    1.11
   2 -23  -3    3.95    1.13
   2 -23  -4    1.73    1.04
   2 -23  -4    2.00    0.92
 -23  -2  -4    2.68    1.19
 -23  -2  -5    1.07    1.10
 -23  -2  -6    0.08    0.96
   3 -23   0   48.76    2.75
   3 -23   0   53.04    2.98
   3 -23   1    0.92    1.30
   3 -23  -1    1.15    1.39
   3 -23   1    0.64    1.12
   3 -23  -1    0.15    1.14
   3 -23   2    4.11    1.36
   3 -23  -2    2.29    1.34
   3 -23   2    0.79    1.08
   3 -23  -2    2.12    1.11
   3 -23  -3    1.83    1.23
   3 -23   3    1.63    1.04
   3 -23  -3    1.14    1.03
 -23  -3  -3    2.29    1.17
   3 -23  -4    0.37    1.06
   3 -23  -4    2.05    0.89
 -23  -3  -4    1.64    1.16
 -23  -3  -5    3.28    1.10
 -23  -3  -6    1.53    0.96
   4 -23   0    1.32    1.32
   4 -23   0   -2.16    1.27
   4 -23   1   -0.31    1.34
   4 -23  -1    0.62    1.39
   4 -23   1    1.00    1.15
   4 -23  -1    1.40    1.14
   4 -23   2   13.69    1.42
   4 -23  -2   13.64    1.67
   4 -23  -2   12.69    1.41
   4 -23  -3    2.51    1.24
   4 -23   3    3.70    1.04
   4 -23  -3    5.15    1.10
 -23  -4  -3    3.81    1.21
   4 -23  -4    1.36    1.14
 -23  -4  -4    1.22    1.07
 -23  -4  -5    0.04    1.01
 -23  -4  -6    2.16    0.97
   5 -23   0    1.31    1.11
   5 -23   1   22.86    1.79
   5 -23  -1   23.56    1.80
   5 -23  -2    2.32    1.37
   5 -23   2    1.07    1.04
   5 -23  -2    2.03    1.04
   5 -23   3    1.08    1.18
   5 -23  -3    2.56    1.29
   5 -23   3    2.41    0.99
   5 -23  -3    3.06    0.97
 -23  -5  -3    2.11    1.10
   5 -23  -4    4.67    1.21
 -23  -5  -4    4.66    1.16
 -23  -5  -5   -0.24    1.01
   6 -23   0    0.88    1.03
   6 -23   1    4.05    1.38
   6 -23   1    1.46    1.04
   6 -23  -1    2.08    1.05
   6 -23   2    1.03    1.15
   6 -23   2   -0.08    0.99
   6 -23  -2    0.29    0.98
   6 -23   3    0.18    1.01
   6 -23  -3   -0.46    1.27
   6 -23   3    0.43    0.89
   6 -23  -3    0.80    0.93
   6 -23   4    0.89    0.91
   6 -23  -4    1.27    1.10
 -23  -6  -4    3.29    1.06
 -23  -6  -5    7.85    1.15
   7 -23   0    9.10    1.48
   7 -23   0    7.16    1.18
   7 -23   1    0.31    1.15
   7 -23  -1    0.11    1.30
   7 -23   1    1.12    1.01
   7 -23  -1    0.84    1.02
   7 -23   2   13.92    1.46
   7 -23   2   14.68    1.31
   7 -23  -2   12.29    1.33
   7 -23   3   12.17    1.29
   7 -23   4    1.80    0.85
 -23  -7  -4    2.56    0.93
 -23  -7  -5    1.03    0.90
   8 -23   0    0.29    1.14
   8 -23   0    0.22    0.90
   8 -23   1   13.58    1.40
   8 -23  -1   13.00    1.50
   8 -23   1    8.95    1.13
   8 -23  -1    9.64    1.18
   8 -23   2   -0.73    0.99
   8 -23  -2   -0.85    1.15
   8 -23   2    2.44    0.91
   8 -23  -2    1.35    0.91
   8 -23   4   -0.03    0.76
 -23  -8  -4    0.44    0.84
  -5 -24   0    0.44    1.03
  -5 -24   1    0.76    1.01
  -5 -24  -1    0.68    1.03
  -4 -24   0    2.89    1.02
  -4 -24   1   -0.44    0.93
  -4 -24  -1    0.30    0.97
  -4 -24   2    0.17    0.92
  -4 -24  -2    1.74    0.97
  -3 -24   0   -0.52    1.00
  -3 -24   1    0.81    0.99
  -3 -24  -1    2.66    1.07
  -3 -24   2   -0.14    0.90
  -3 -24  -2    2.63    0.97
  -2 -24   0    8.96    1.21
  -2 -24   1    1.34    1.00
  -2 -24  -1   -0.41    0.98
  -2 -24   2    0.83    0.93
  -2 -24  -2    1.58    0.97
  -1 -24   0    0.21    1.04
  -1 -24   1    1.53    1.05
  -1 -24  -1    3.06    1.07
  -1 -24   2    1.26    0.95
  -1 -24  -2    1.83    0.98
   0 -24   0    3.51    1.08
   0 -24   1   -0.35    0.95
   0 -24   1    0.65    1.04
   0 -24  -1    0.92    1.06
   0 -24   2    0.45    0.92
   0 -24   2    2.32    0.94
   0 -24  -2    1.42    0.96
 -24   0  -5    2.49    0.84
   1 -24   0   -0.38    0.97
   1 -24   0    2.82    1.02
   1 -24   1    7.48    1.16
   1 -24  -1    7.05    1.12
   1 -24   1    5.96    1.11
   1 -24  -1    4.98    1.12
   1 -24   2   -0.20    0.96
   1 -24   2    0.75    0.90
   1 -24  -2    0.68    0.96
   1 -24   3   18.79    1.45
 -24  -1  -5    8.13    0.99
   2 -24   0   70.00    3.30
   2 -24   0   68.51    3.33
   2 -24   1    5.75    1.22
   2 -24  -1    6.78    1.23
   2 -24   1    6.62    1.18
   2 -24  -1    6.74    1.14
   2 -24   2   53.85    2.83
   2 -24  -2   58.20    2.86
   2 -24   2   60.91    2.96
   2 -24  -2   64.90    2.94
   2 -24   3    1.06    0.91
 -24  -2  -5    0.12    0.77
   3 -24   0    0.52    1.02
   3 -24   0    1.16    1.14
   3 -24   1   51.78    2.71
   3 -24  -1   54.48    2.73
   3 -24   1   54.89    2.83
   3 -24  -1   57.64    2.85
   3 -24   2    1.53    0.96
   3 -24  -2   -0.07    0.94
   3 -24   2    0.80    1.01
   3 -24  -2    0.13    1.07
   3 -24   3    2.54    1.01
   4 -24   0    6.28    1.10
   4 -24   0    6.72    1.32
   4 -24   1   15.19    1.38
   4 -24  -1   16.87    1.41
   4 -24   1   20.62    1.59
   4 -24  -1   17.75    1.60
   4 -24   2   11.34    1.18
   4 -24  -2   11.13    1.19
   4 -24   2   11.49    1.33
   4 -24  -2   12.22    1.38
   5 -24   0   -0.32    0.95
   5 -24   0    1.41    1.10
   5 -24   1    8.39    1.14
   5 -24  -1    9.08    1.13
   5 -24  -1   12.03    1.38
   0   0   0    0.00    0.00



TITL hh-cc-100k_a in P4(2)/n
REM P4(2)/n (#86 in standard setting)
CELL 1.54184  20.475069  20.475069  13.459319  90.0000  90.0000  90.0000
ZERR    2.00   0.000349   0.000349   0.001046   0.0000   0.0000   0.0000
LATT  1
SYMM -x+1/2,-y+1/2, z
SYMM -y, x+1/2, z+1/2
SYMM  y+1/2,-x, z+1/2
SFAC C H N O Ni
UNIT 280.00 232.00 8.00 16.00 2.00
TREF
HKLF 4
END
_computing_structure_solution     'SHELXT 2014/5 (Sheldrick, 2014)'
_computing_structure_solution     'SHELXT 2014/5 (Sheldrick, 2014)'
;
_shelx_hkl_checksum              67383
_shelx_fab_file
;
-24 -5 -1 -0.1792 -0.6550
-24 -4 -2 0.1533 0.7167
-24 -4 -1 -0.4401 -0.1402
-24 -3 -3 -0.1686 -0.4729
-24 -3 -2 0.3534 0.1533
-24 -3 -1 -0.1778 -0.6036
-24 -2 -5 -0.0096 -0.2340
-24 -2 -3 0.1028 0.0423
-24 -2 -2 0.1291 0.6308
-24 -2 -1 0.2047 0.0562
-24 -1 -5 -0.3473 -0.2775
-24 -1 -3 -0.2654 -0.5615
-24 -1 -2 -0.6158 -0.3683
-24 -1 -1 -0.0281 -0.4017
-23 -8 -4 -0.1775 -0.1152
-23 -8 -2 -0.6477 -0.0573
-23 -8 -1 -0.6373 -0.4114
-23 -7 -5 -0.0215 0.1276
-23 -7 -4 -0.0461 -0.0608
-23 -7 -3 0.2585 0.0977
-23 -7 -2 0.1538 0.5435
-23 -7 -1 0.8488 0.0546
-23 -6 -5 -0.0359 0.0087
-23 -6 -4 0.3557 -0.0628
-23 -6 -3 0.0361 -0.3940
-23 -6 -2 -0.0451 0.0009
-23 -6 -1 -0.2842 -0.6837
-23 -5 -5 -0.3755 0.0100
-23 -5 -4 -0.0285 0.1378
-23 -5 -3 -0.8181 -0.1330
-23 -5 -2 0.0552 0.7921
-23 -5 -1 -0.3021 -0.1462
-23 -4 -6 0.0691 0.1844
-23 -4 -5 -0.0138 -0.2092
-23 -4 -4 0.8251 0.2042
-23 -4 -3 0.0131 -0.4581
-23 -4 -2 0.9159 0.3938
-23 -4 -1 -0.1239 -0.7339
-23 -3 -6 0.0217 0.4499
-23 -3 -5 -0.2531 -0.3809
-23 -3 -4 0.0909 0.2824
-23 -3 -3 -0.7077 -0.3639
-23 -3 -2 0.0419 0.7422
-23 -3 -1 -0.4915 -0.2610
-23 -2 -6 -0.1977 0.5186
-23 -2 -5 -0.1573 -0.3056
-23 -2 -4 0.0421 0.2983
-23 -2 -3 -0.2073 -0.5709
-23 -2 -2 0.0480 0.1416
-23 -2 -1 0.0504 -0.6105
-23 -1 -6 -0.0354 0.0537
-23 -1 -5 0.3067 -0.3455
-23 -1 -4 0.3562 0.4653
-23 -1 -3 0.4377 0.0920
-23 -1 -2 0.1405 0.6386
-23 -1 -1 0.5863 0.1262
-22 -11 -4 0.1166 0.0481
-22 -11 -3 -0.0209 0.0329
-22 -11 -1 -0.1065 -0.2092
-22 -10 -5 0.0153 0.0092
-22 -10 -4 0.0333 -0.1499
-22 -10 -3 -0.0039 -0.0026
-22 -10 -2 0.1876 0.1056
-22 -10 -1 -0.5337 0.0158
-22 -9 -5 -0.2369 0.2683
-22 -9 -4 -0.3030 -0.1542
-22 -9 -3 0.0265 0.1331
-22 -9 -2 -0.3497 -0.1224
-22 -9 -1 -0.7708 -0.2715
-22 -8 -5 0.1492 0.2430
-22 -8 -4 0.0196 -0.3064
-22 -8 -3 0.6923 0.2585
-22 -8 -2 0.2865 0.2465
-22 -8 -1 0.8286 0.1719
-22 -7 -7 -0.0484 0.0678
-22 -7 -5 -0.2152 0.2678
-22 -7 -4 -0.1639 -0.2505
-22 -7 -3 0.0311 -0.1086
-22 -7 -2 -0.7679 -0.2973
-22 -7 -1 -0.5828 -0.4902
-22 -6 -7 0.2751 0.3288
-22 -6 -5 -0.2148 0.2216
-22 -6 -4 -0.0285 -0.1070
-22 -6 -3 -0.1885 0.1970
-22 -6 -2 0.0853 0.5426
-22 -6 -1 0.4633 0.1186
-22 -5 -7 0.0605 -0.2094
-22 -5 -6 0.1247 -0.2046
-22 -5 -5 0.0595 0.1079
-22 -5 -4 0.7716 -0.0579
-22 -5 -3 0.1765 -0.1772
-22 -5 -2 0.5835 0.1073
-22 -5 -1 -0.1802 -0.5967
-22 -4 -7 -0.0493 -0.0101
-22 -4 -6 -0.0798 0.3007
-22 -4 -5 -0.5597 -0.0981
-22 -4 -4 -0.2137 -0.0993
-22 -4 -3 -1.0605 -0.3142
-22 -4 -2 -0.1137 0.4789
-22 -4 -1 -0.6272 -0.2672
-22 -3 -8 -0.0028 0.1141
-22 -3 -7 0.1507 -0.4937
-22 -3 -6 0.1068 0.3341
-22 -3 -5 0.1141 -0.0844
-22 -3 -4 0.6554 0.3707
-22 -3 -3 0.0772 -0.1557
-22 -3 -2 0.7551 0.4511
-22 -3 -1 0.0866 -0.5111
-22 -2 -8 -0.2612 0.0574
-22 -2 -7 0.2371 -0.2531
-22 -2 -6 -0.2059 0.1077
-22 -2 -5 0.0460 -0.4256
-22 -2 -4 0.1494 0.0742
-22 -2 -3 -0.3190 -0.3039
-22 -2 -2 0.0819 0.4220
-22 -2 -1 -0.1170 -0.1719
-22 -1 -8 -0.4315 -0.0482
-22 -1 -7 0.3557 0.2287
-22 -1 -6 -0.4541 0.3359
-22 -1 -5 -0.1038 -0.0104
-22 -1 -4 -0.2001 0.1910
-22 -1 -3 -0.3555 -0.2994
-22 -1 -2 -0.2459 0.0172
-22 -1 -1 -0.1669 -0.2469
-21 -13 -3 -0.0833 -0.0835
-21 -13 -2 0.0053 0.2191
-21 -12 -4 -0.0893 0.0706
-21 -12 -3 -0.0182 -0.0420
-21 -12 -2 0.5180 0.2264
-21 -12 -1 0.2121 -0.3202
-21 -11 -6 -0.0171 0.1569
-21 -11 -4 -0.0443 -0.0447
-21 -11 -3 -0.1737 -0.2360
-21 -11 -2 -0.0475 0.1879
-21 -11 -1 -1.1168 -0.1296
-21 -10 -6 -0.2733 0.1838
-21 -10 -4 -0.3850 0.1572
-21 -10 -3 0.1210 0.1032
-21 -10 -2 0.3796 0.1341
-21 -10 -1 -0.4433 -0.2778
-21 -9 -7 0.1263 -0.1138
-21 -9 -6 0.3187 -0.2175
-21 -9 -5 0.4762 -0.0168
-21 -9 -4 -0.0973 -0.3484
-21 -9 -3 0.6009 0.0098
-21 -9 -2 0.2139 0.1214
-21 -9 -1 -0.2043 0.0622
-21 -8 -7 -0.2296 0.1500
-21 -8 -6 -0.3169 -0.0639
-21 -8 -4 -0.6650 -0.1020
-21 -8 -3 0.0832 0.0487
-21 -8 -2 -0.7014 -0.2686
-21 -8 -1 -0.7124 -0.3542
-21 -7 -8 -0.2000 -0.0900
-21 -7 -7 0.4277 0.2170
-21 -7 -6 0.2746 -0.2787
-21 -7 -5 0.2449 0.1356
-21 -7 -4 0.0423 -0.1868
-21 -7 -3 0.4457 0.3279
-21 -7 -2 0.1688 0.3494
-21 -7 -1 0.5999 0.3062
-21 -6 -8 -0.4432 -0.3219
-21 -6 -7 0.0288 0.0701
-21 -6 -6 -0.1289 -0.3236
-21 -6 -5 -0.0856 0.2759
-21 -6 -4 0.2330 -0.2566
-21 -6 -3 0.1409 -0.0608
-21 -6 -2 0.0158 -0.3518
-21 -6 -1 -0.3423 -0.4436
-21 -5 -8 -0.0617 0.2655
-21 -5 -7 0.0155 0.3720
-21 -5 -6 -0.0272 0.0023
-21 -5 -5 -0.4449 0.2665
-21 -5 -4 -0.3055 -0.3079
-21 -5 -3 -0.7267 0.1403
-21 -5 -2 -0.1496 0.2408
-21 -5 -1 -0.2576 0.0591
-21 -4 -9 0.0266 -0.3721
-21 -4 -8 0.1781 -0.1137
-21 -4 -7 0.0722 -0.4954
-21 -4 -6 0.4434 -0.1667
-21 -4 -5 0.2833 0.1813
-21 -4 -4 0.8486 -0.0001
-21 -4 -3 0.3963 0.2197
-21 -4 -2 0.7519 0.1799
-21 -4 -1 0.0777 -0.3156
-21 -3 -9 -0.0425 0.0749
-21 -3 -8 -0.2469 0.3738
-21 -3 -7 -0.3782 0.1008
-21 -3 -6 -0.2468 0.1308
-21 -3 -5 -0.5660 -0.0775
-21 -3 -4 -0.2242 -0.3497
-21 -3 -3 -0.8106 -0.2224
-21 -3 -2 -0.1424 0.0211
-21 -3 -1 -0.3174 -0.1754
-21 -2 -9 0.3765 0.2735
-21 -2 -8 0.0380 -0.3625
-21 -2 -7 0.4097 0.1442
-21 -2 -6 0.2066 -0.0297
-21 -2 -5 0.0905 0.2766
-21 -2 -4 0.4195 0.1152
-21 -2 -3 -0.1630 0.1989
-21 -2 -2 0.3401 0.1521
-21 -2 -1 -0.1112 -0.1250
-21 -1 -9 0.3714 0.4010
-21 -1 -8 -0.3751 -0.5418
-21 -1 -7 0.2188 0.2430
-21 -1 -6 -0.1719 -0.3896
-21 -1 -5 -0.0235 0.0100
-21 -1 -4 0.2811 -0.1506
-21 -1 -3 -0.1311 -0.0289
-21 -1 -2 0.4300 -0.1409
-21 -1 -1 0.2391 -0.0287
-20 -15 -2 0.2829 0.1394
-20 -14 -3 -0.1674 0.0151
-20 -14 -2 0.3845 0.4217
-20 -14 -1 -0.3819 -0.1513
-20 -13 -5 -0.2623 0.0069
-20 -13 -3 -0.3540 -0.1802
-20 -13 -2 0.3961 0.2014
-20 -13 -1 0.0358 -0.4623
-20 -12 -6 -0.0624 0.0865
-20 -12 -5 0.3874 0.0427
-20 -12 -4 0.1747 -0.0331
-20 -12 -3 -0.2193 -0.1820
-20 -12 -2 -0.0028 0.3432
-20 -12 -1 -0.9434 -0.1890
-20 -11 -7 0.1195 -0.1084
-20 -11 -6 -0.4736 0.2325
-20 -11 -5 0.0735 0.1041
-20 -11 -4 -0.3466 0.2513
-20 -11 -3 0.0197 0.0336
-20 -11 -2 0.7455 0.3115
-20 -11 -1 -0.0510 -0.3640
-20 -10 -7 0.1968 -0.2554
-20 -10 -6 -0.0034 -0.1724
-20 -10 -5 0.7053 -0.2764
-20 -10 -4 -0.1702 -0.3577
-20 -10 -3 0.2480 -0.3318
-20 -10 -2 0.0991 0.1271
-20 -10 -1 -1.0788 -0.1367
-20 -9 -8 -0.0126 0.1575
-20 -9 -7 -0.1618 0.1672
-20 -9 -6 -0.5391 0.2295
-20 -9 -5 -0.0217 0.4683
-20 -9 -4 -0.8884 0.3055
-20 -9 -3 0.1561 0.1172
-20 -9 -2 -0.1101 0.1222
-20 -9 -1 -0.5714 -0.3266
-20 -8 -8 -0.0627 -0.1142
-20 -8 -7 0.4765 -0.1082
-20 -8 -6 0.2341 -0.3905
-20 -8 -5 0.7314 -0.2910
-20 -8 -4 -0.0157 -0.1797
-20 -8 -3 0.6386 -0.0860
-20 -8 -2 0.1628 0.3178
-20 -8 -1 -0.0198 0.1445
-20 -7 -8 -0.6325 -0.0929
-20 -7 -7 -0.0046 0.2336
-20 -7 -6 -0.6016 0.0733
-20 -7 -5 -0.1953 0.2220
-20 -7 -4 -0.3320 0.1186
-20 -7 -3 0.0124 -0.2337
-20 -7 -2 -0.0296 -0.2840
-20 -7 -1 -0.4119 -0.4457
-20 -6 -9 0.4364 0.0071
-20 -6 -8 -0.0808 0.0781
-20 -6 -7 0.5437 0.2334
-20 -6 -6 0.0611 -0.1216
-20 -6 -5 0.1448 0.0507
-20 -6 -4 -0.1111 -0.0568
-20 -6 -3 -0.3767 0.1782
-20 -6 -2 -0.0160 0.3736
-20 -6 -1 -0.3502 0.2333
-20 -5 -9 -0.1310 -0.4540
-20 -5 -8 -0.1389 -0.0776
-20 -5 -7 -0.0307 -0.4252
-20 -5 -6 -0.0012 -0.2528
-20 -5 -5 0.2356 0.1332
-20 -5 -4 0.5191 -0.1172
-20 -5 -3 0.3984 0.0383
-20 -5 -2 0.6815 -0.0980
-20 -5 -1 0.0247 -0.3562
-20 -4 -9 -0.1020 -0.2300
-20 -4 -8 0.0086 0.8213
-20 -4 -7 -0.4144 0.1596
-20 -4 -6 -0.1631 0.2779
-20 -4 -5 -0.5621 0.1544
-20 -4 -4 -0.4402 -0.3158
-20 -4 -3 -0.8749 -0.0169
-20 -4 -2 -0.3008 0.0354
-20 -4 -1 -0.3261 -0.0446
-20 -3 -10 -0.0878 0.0307
-20 -3 -9 0.3198 -0.3189
-20 -3 -8 0.5163 -0.2197
-20 -3 -7 0.2255 -0.3502
-20 -3 -6 0.7581 -0.2380
-20 -3 -5 0.2267 0.2490
-20 -3 -4 0.8563 -0.0954
-20 -3 -3 0.1229 0.3394
-20 -3 -2 0.5885 0.0483
-20 -3 -1 0.0483 -0.1347
-20 -2 -10 -0.4379 -0.3789
-20 -2 -9 -0.0911 0.5033
-20 -2 -8 -0.4420 -0.2758
-20 -2 -7 -0.7091 0.5219
-20 -2 -6 -0.2100 -0.3483
-20 -2 -5 -0.7570 0.3150
-20 -2 -4 0.1121 -0.4130
-20 -2 -3 -0.6703 0.1319
-20 -2 -2 0.3002 -0.2280
-20 -2 -1 0.0402 0.0121
-20 -1 -10 -0.3050 -0.3237
-20 -1 -9 0.3352 0.6312
-20 -1 -8 0.1116 -0.5336
-20 -1 -7 0.1892 0.5789
-20 -1 -6 0.5934 -0.4986
-20 -1 -5 -0.0953 0.2838
-20 -1 -4 0.5734 -0.2474
-20 -1 -3 -0.3837 0.2764
-20 -1 -2 0.0805 -0.0400
-20 -1 -1 -0.5942 0.2386
-19 -16 -3 -0.0777 -0.4443
-19 -16 -2 0.2816 0.2875
-19 -16 -1 -0.2063 -0.3560
-19 -15 -5 -0.1709 0.3580
-19 -15 -3 -0.3725 -0.1798
-19 -15 -2 0.4196 0.6389
-19 -15 -1 -0.3778 -0.2184
-19 -14 -6 0.0317 -0.6067
-19 -14 -5 -0.3890 -0.1748
-19 -14 -3 -0.5130 -0.5281
-19 -14 -2 0.3942 0.2810
-19 -14 -1 -0.2497 -0.6210
-19 -13 -7 0.0607 0.2613
-19 -13 -6 0.1204 0.0456
-19 -13 -5 0.0042 0.4805
-19 -13 -3 -0.3786 -0.0431
-19 -13 -2 0.1524 0.6185
-19 -13 -1 -0.4816 -0.2107
-19 -12 -7 0.1652 -0.1600
-19 -12 -6 -0.2463 -0.1438
-19 -12 -5 -0.1454 0.1183
-19 -12 -4 0.0128 -0.0698
-19 -12 -3 -0.2046 -0.1166
-19 -12 -2 0.6859 0.2288
-19 -12 -1 0.2129 -0.4960
-19 -11 -8 -0.0744 0.3009
-19 -11 -7 0.1251 -0.0650
-19 -11 -6 -0.1102 -0.1520
-19 -11 -5 0.4618 -0.0321
-19 -11 -4 0.0389 -0.4218
-19 -11 -3 -0.1609 -0.1880
-19 -11 -2 0.0261 0.1550
-19 -11 -1 -1.1093 -0.1149
-19 -10 -8 0.1817 -0.0262
-19 -10 -7 0.0060 0.0937
-19 -10 -6 -0.4324 0.0744
-19 -10 -5 0.0748 0.6753
-19 -10 -4 -0.6551 0.2136
-19 -10 -3 0.0877 0.3304
-19 -10 -2 0.3236 0.1552
-19 -10 -1 -0.2872 -0.2595
-19 -9 -9 -0.1503 0.1122
-19 -9 -8 -0.0040 -0.0535
-19 -9 -7 0.1930 -0.0177
-19 -9 -6 0.0820 -0.6429
-19 -9 -5 0.7880 -0.2781
-19 -9 -4 -0.0866 -0.4956
-19 -9 -3 0.5395 -0.2256
-19 -9 -2 0.0943 0.0999
-19 -9 -1 -0.4325 0.0435
-19 -8 -9 0.2395 0.2148
-19 -8 -8 -0.3528 -0.1100
-19 -8 -7 0.0295 0.4986
-19 -8 -6 -0.6441 0.2042
-19 -8 -5 -0.1772 0.4491
-19 -8 -4 -0.5898 0.3799
-19 -8 -3 -0.0331 -0.1169
-19 -8 -2 0.0423 -0.1044
-19 -8 -1 -0.3460 -0.3456
-19 -7 -10 -0.1104 -0.4128
-19 -7 -9 0.4844 0.1305
-19 -7 -8 -0.2416 -0.3141
-19 -7 -7 0.7719 0.1165
-19 -7 -6 0.0769 -0.3802
-19 -7 -5 0.5282 -0.2985
-19 -7 -4 0.1342 0.0934
-19 -7 -3 -0.1995 -0.0579
-19 -7 -2 0.1134 0.4237
-19 -7 -1 -0.6085 0.2367
-19 -6 -10 -0.1658 0.1925
-19 -6 -9 -0.0305 -0.0505
-19 -6 -8 -0.5978 -0.1589
-19 -6 -7 0.0661 -0.0371
-19 -6 -6 -0.6733 -0.0940
-19 -6 -5 0.0563 0.0205
-19 -6 -4 0.1332 0.1591
-19 -6 -3 0.1372 -0.3308
-19 -6 -2 0.8051 -0.1083
-19 -6 -1 -0.0126 -0.4532
-19 -5 -10 0.2055 0.3599
-19 -5 -9 0.1074 -0.3009
-19 -5 -8 0.1286 0.7890
-19 -5 -7 0.3203 0.1469
-19 -5 -6 -0.1132 0.3088
-19 -5 -5 0.0920 0.0266
-19 -5 -4 -0.3579 0.0964
-19 -5 -3 -0.7947 -0.1434
-19 -5 -2 -0.2915 0.3985
-19 -5 -1 -0.6481 -0.0261
-19 -4 -10 -0.0066 0.3728
-19 -4 -9 0.0080 -0.9133
-19 -4 -8 0.2542 0.1111
-19 -4 -7 -0.0331 -0.8367
-19 -4 -6 0.2316 -0.1441
-19 -4 -5 0.2172 -0.0859
-19 -4 -4 0.7118 0.0380
-19 -4 -3 0.2270 -0.0940
-19 -4 -2 0.8306 0.1681
-19 -4 -1 0.2155 -0.4070
-19 -3 -10 -0.3964 0.1708
-19 -3 -9 -0.2756 0.0952
-19 -3 -8 -0.1690 0.5794
-19 -3 -7 -0.7681 0.2516
-19 -3 -6 -0.0429 0.0962
-19 -3 -5 -0.8339 0.2694
-19 -3 -4 0.1048 -0.2145
-19 -3 -3 -1.0688 0.0670
-19 -3 -2 0.1911 0.1449
-19 -3 -1 -0.2162 -0.0348
-19 -2 -11 0.2386 0.2756
-19 -2 -10 0.0222 -0.4535
-19 -2 -9 0.3725 0.1577
-19 -2 -8 0.7223 -0.4422
-19 -2 -7 0.1216 0.1963
-19 -2 -6 1.0633 -0.5304
-19 -2 -5 -0.1495 0.3612
-19 -2 -4 1.0686 -0.4176
-19 -2 -3 -0.5016 0.1631
-19 -2 -2 0.5382 -0.1231
-19 -2 -1 -0.4823 -0.1307
-19 -1 -11 0.0876 0.2675
-19 -1 -10 -0.1555 -0.3135
-19 -1 -9 -0.1085 0.2003
-19 -1 -8 -0.0711 -0.3311
-19 -1 -7 -0.8973 0.4248
-19 -1 -6 0.1018 -0.2814
-19 -1 -5 -1.0765 0.5268
-19 -1 -4 0.2783 -0.0224
-19 -1 -3 -0.6766 0.1793
-19 -1 -2 0.5491 -0.1530
-19 -1 -1 0.2612 -0.0210
-18 -17 -2 0.0594 0.3563
-18 -17 -1 0.1176 -0.1343
-18 -16 -5 -0.4167 0.0284
-18 -16 -4 -0.1090 0.5060
-18 -16 -2 0.0751 0.4457
-18 -16 -1 -0.2313 -0.3104
-18 -15 -6 0.4823 -0.5325
-18 -15 -5 -0.1566 -0.4518
-18 -15 -4 0.6077 0.0645
-18 -15 -3 -0.2409 -0.6949
-18 -15 -2 0.4021 0.6143
-18 -15 -1 -0.2840 -0.5808
-18 -14 -7 -0.4016 0.4049
-18 -14 -6 0.1544 0.1852
-18 -14 -5 -0.5930 0.4300
-18 -14 -4 0.3517 0.4892
-18 -14 -3 -0.5869 -0.4257
-18 -14 -2 0.1295 0.8377
-18 -14 -1 -0.2349 -0.4490
-18 -13 -8 0.2360 -0.0103
-18 -13 -7 0.1081 -0.2611
-18 -13 -6 0.3736 -0.3182
-18 -13 -5 -0.2492 -0.1086
-18 -13 -4 0.5267 0.0342
-18 -13 -3 -0.1512 -0.5011
-18 -13 -2 0.5502 0.5424
-18 -13 -1 0.3917 -0.6850
-18 -12 -8 -0.1551 0.7282
-18 -12 -7 -0.2195 0.0112
-18 -12 -6 -0.0435 0.0632
-18 -12 -5 -0.1640 0.0724
-18 -12 -4 0.1560 -0.1656
-18 -12 -3 -0.5517 -0.2802
-18 -12 -2 -0.2189 0.4229
-18 -12 -1 -0.7119 -0.2207
-18 -11 -9 -0.0876 -1.0174
-18 -11 -8 0.2586 -0.0567
-18 -11 -7 0.0734 -0.3552
-18 -11 -6 0.0019 -0.0761
-18 -11 -5 0.0132 0.5884
-18 -11 -4 -0.0483 0.0570
-18 -11 -3 0.0962 0.2998
-18 -11 -2 0.5457 0.1173
-18 -11 -1 0.2243 -0.3078
-18 -10 -9 -0.2611 0.1892
-18 -10 -8 0.0832 0.5954
-18 -10 -7 -0.1933 0.1753
-18 -10 -6 0.0308 -0.6024
-18 -10 -5 0.3756 0.0378
-18 -10 -4 -0.1313 -0.7824
-18 -10 -3 0.2129 0.0017
-18 -10 -2 -0.1473 -0.1110
-18 -10 -1 -0.4274 0.1086
-18 -9 -10 0.0107 -0.1305
-18 -9 -9 0.1088 -0.3913
-18 -9 -8 0.1277 -0.2332
-18 -9 -7 -0.0555 0.4323
-18 -9 -6 -0.1959 -0.0995
-18 -9 -5 -0.1112 0.8345
-18 -9 -4 -0.4804 0.0644
-18 -9 -3 0.1409 0.3384
-18 -9 -2 -0.0557 -0.2951
-18 -9 -1 -0.0594 -0.1105
-18 -8 -10 -0.3233 -0.2133
-18 -8 -9 0.2510 0.2078
-18 -8 -8 -0.2856 -0.3751
-18 -8 -7 0.3106 0.2729
-18 -8 -6 0.1489 -0.7537
-18 -8 -5 0.3305 -0.1004
-18 -8 -4 0.1592 -0.2741
-18 -8 -3 -0.0164 0.1986
-18 -8 -2 -0.0232 -0.0042
-18 -8 -1 -0.3970 0.4197
-18 -7 -10 -0.2336 0.0014
-18 -7 -9 0.3399 0.3703
-18 -7 -8 -0.5561 -0.3992
-18 -7 -7 0.2050 0.5419
-18 -7 -6 -0.5825 -0.2280
-18 -7 -5 -0.1197 0.2717
-18 -7 -4 0.0342 0.0426
-18 -7 -3 0.0357 -0.0958
-18 -7 -2 0.6579 -0.4531
-18 -7 -1 0.0972 -0.1770
-18 -6 -11 -0.0723 -0.3221
-18 -6 -10 -0.0041 -0.1435
-18 -6 -9 0.2758 0.0324
-18 -6 -8 -0.1791 0.0730
-18 -6 -7 0.7150 0.4876
-18 -6 -6 -0.1799 -0.0973
-18 -6 -5 0.4601 0.0865
-18 -6 -4 -0.2695 0.1583
-18 -6 -3 -0.5671 0.0002
-18 -6 -2 -0.3813 0.2554
-18 -6 -1 -0.7817 0.1885
-18 -5 -11 0.1054 -0.0428
-18 -5 -10 0.0068 0.3906
-18 -5 -9 0.0445 -0.6415
-18 -5 -8 -0.2297 -0.1378
-18 -5 -7 0.0568 -0.5579
-18 -5 -6 -0.5614 -0.3180
-18 -5 -5 0.3273 -0.2294
-18 -5 -4 0.1805 0.1607
-18 -5 -3 0.4684 -0.3542
-18 -5 -2 0.7938 0.1771
-18 -5 -1 0.5389 -0.4529
-18 -4 -11 0.1055 -0.0508
-18 -4 -10 -0.4381 0.3675
-18 -4 -9 -0.0932 -0.0836
-18 -4 -8 -0.0236 0.8832
-18 -4 -7 -0.0638 0.2590
-18 -4 -6 0.0135 0.3971
-18 -4 -5 -0.1561 0.1206
-18 -4 -4 -0.0784 0.2032
-18 -4 -3 -0.9394 -0.2322
-18 -4 -2 -0.1646 0.5221
-18 -4 -1 -0.4527 -0.1451
-18 -3 -11 0.5519 0.2444
-18 -3 -10 0.0172 -0.3922
-18 -3 -9 0.3974 -0.2964
-18 -3 -8 0.5263 -0.3010
-18 -3 -7 -0.1093 -0.2779
-18 -3 -6 0.5966 -0.4022
-18 -3 -5 -0.3036 0.1409
-18 -3 -4 1.0047 -0.2285
-18 -3 -3 -0.5111 -0.2203
-18 -3 -2 0.8850 0.0493
-18 -3 -1 -0.2144 -0.5292
-18 -2 -11 -0.0358 0.6505
-18 -2 -10 -0.3598 -0.2233
-18 -2 -9 -0.4265 0.4003
-18 -2 -8 -0.0571 -0.0098
-18 -2 -7 -0.9226 0.3940
-18 -2 -6 0.2682 -0.3274
-18 -2 -5 -1.0117 0.5678
-18 -2 -4 0.6094 -0.1607
-18 -2 -3 -1.0360 0.2793
-18 -2 -2 0.7286 0.3469
-18 -2 -1 -0.0806 -0.0049
-18 -1 -11 -0.0657 0.0574
-18 -1 -10 0.0912 -0.1298
-18 -1 -9 0.0137 -0.0727
-18 -1 -8 0.6335 0.0995
-18 -1 -7 -0.2124 0.0662
-18 -1 -6 1.0574 -0.3451
-18 -1 -5 -0.2764 0.0409
-18 -1 -4 0.9805 -0.3312
-18 -1 -3 -0.4917 -0.2481
-18 -1 -2 0.2953 0.0745
-18 -1 -1 -0.5430 -0.1858
-17 -18 -2 -0.3257 0.0388
-17 -18 -1 0.2007 0.1733
-17 -17 -5 -0.2607 -0.0575
-17 -17 -4 -0.2377 -0.0450
-17 -17 -2 -0.1361 -0.2177
-17 -17 -1 0.2392 -0.1166
-17 -16 -6 0.6690 -0.3621
-17 -16 -5 0.0214 -0.2035
-17 -16 -4 0.4479 0.0746
-17 -16 -2 0.0937 0.4547
-17 -16 -1 -0.2314 -0.1393
-17 -15 -7 -0.9017 0.3654
-17 -15 -6 0.1425 0.0860
-17 -15 -5 -0.8714 0.3261
-17 -15 -4 0.1319 0.2889
-17 -15 -3 -0.5150 -0.5435
-17 -15 -2 0.1774 0.3860
-17 -15 -1 -0.0917 -0.5055
-17 -14 -8 0.8238 0.0363
-17 -14 -7 -0.0195 -0.0572
-17 -14 -6 0.9997 -0.2802
-17 -14 -5 -0.1603 -0.1101
-17 -14 -4 0.7778 0.2888
-17 -14 -3 -0.0579 -0.4356
-17 -14 -2 0.4320 0.9250
-17 -14 -1 0.1393 -0.5682
-17 -13 -9 -0.4112 -0.1674
-17 -13 -8 -0.0849 0.6419
-17 -13 -7 -0.8748 -0.1275
-17 -13 -6 -0.0208 0.1070
-17 -13 -5 -0.7136 -0.1681
-17 -13 -4 0.0635 0.0358
-17 -13 -3 -0.7505 -0.8132
-17 -13 -2 -0.2903 0.5586
-17 -13 -1 -0.4211 -0.5726
-17 -12 -9 -0.1185 -1.3831
-17 -12 -8 0.5841 0.1870
-17 -12 -7 0.0807 -0.6958
-17 -12 -6 0.5519 0.2074
-17 -12 -5 0.0449 0.2968
-17 -12 -4 0.5180 0.4770
-17 -12 -3 0.1597 0.0320
-17 -12 -2 0.7231 0.6235
-17 -12 -1 0.5226 -0.4690
-17 -11 -10 0.2860 1.4598
-17 -11 -9 -0.2937 0.0674
-17 -11 -8 0.2126 1.4164
-17 -11 -7 -0.5561 -0.0656
-17 -11 -6 -0.0376 -0.1460
-17 -11 -5 -0.1377 -0.1852
-17 -11 -4 -0.1824 -0.6345
-17 -11 -3 -0.3019 -0.3334
-17 -11 -2 -0.3436 0.0482
-17 -11 -1 -0.4678 -0.1245
-17 -10 -10 0.0390 -0.0926
-17 -10 -9 -0.2903 -1.5354
-17 -10 -8 0.4726 -0.0775
-17 -10 -7 -0.2212 -0.2648
-17 -10 -6 0.2377 -0.0554
-17 -10 -5 0.0169 0.7790
-17 -10 -4 -0.1405 0.0806
-17 -10 -3 0.3404 0.4353
-17 -10 -2 0.0408 -0.1315
-17 -10 -1 0.2374 -0.1336
-17 -9 -10 -0.0934 0.8282
-17 -9 -9 -0.0339 -0.0118
-17 -9 -8 0.1072 0.4597
-17 -9 -7 -0.2854 0.1766
-17 -9 -6 0.2906 -0.6343
-17 -9 -5 -0.0516 0.0700
-17 -9 -4 -0.0030 -0.5450
-17 -9 -3 0.0237 0.3504
-17 -9 -2 -0.2770 -0.2553
-17 -9 -1 -0.0805 0.4520
-17 -8 -11 0.1873 0.0726
-17 -8 -10 -0.2250 0.1691
-17 -8 -9 0.2794 -0.2171
-17 -8 -8 -0.1343 -0.1851
-17 -8 -7 -0.0456 0.4552
-17 -8 -6 0.0663 -0.3034
-17 -8 -5 -0.3039 0.5036
-17 -8 -4 0.2257 -0.3092
-17 -8 -3 0.1285 0.3699
-17 -8 -2 0.3883 -0.8732
-17 -8 -1 0.2581 0.1642
-17 -7 -11 -0.0567 -0.3412
-17 -7 -10 -0.1680 -0.0712
-17 -7 -9 0.2423 -0.0278
-17 -7 -8 -0.3112 -0.1516
-17 -7 -7 0.3507 0.5745
-17 -7 -6 -0.0316 -0.4274
-17 -7 -5 0.0901 0.3747
-17 -7 -4 -0.1768 -0.2136
-17 -7 -3 -0.4359 0.6170
-17 -7 -2 -0.5450 -0.4218
-17 -7 -1 -0.6455 0.6325
-17 -6 -11 -0.0215 0.0436
-17 -6 -10 0.0921 0.4490
-17 -6 -9 0.2233 -0.2903
-17 -6 -8 -0.3112 -0.3616
-17 -6 -7 0.2782 -0.0257
-17 -6 -6 -0.6103 -0.6453
-17 -6 -5 0.4728 0.0031
-17 -6 -4 -0.1161 -0.2005
-17 -6 -3 0.8741 0.1402
-17 -6 -2 0.4950 -0.3971
-17 -6 -1 0.9564 0.0246
-17 -5 -11 -0.0701 -0.4057
-17 -5 -10 -0.4050 0.3169
-17 -5 -9 -0.0237 -0.1331
-17 -5 -8 -0.1952 0.5671
-17 -5 -7 0.3871 0.5899
-17 -5 -6 -0.2960 0.2890
-17 -5 -5 0.4818 0.2628
-17 -5 -4 -0.7535 0.2103
-17 -5 -3 -0.2800 -0.1094
-17 -5 -2 -0.9925 0.1458
-17 -5 -1 -0.3726 0.0352
-17 -4 -12 -0.1665 -0.1609
-17 -4 -11 0.7775 0.2257
-17 -4 -10 -0.0220 -0.0743
-17 -4 -9 0.5291 -0.3036
-17 -4 -8 0.1501 -0.3825
-17 -4 -7 -0.0496 -0.3738
-17 -4 -6 -0.0929 -0.4997
-17 -4 -5 0.0895 -0.1528
-17 -4 -4 0.2966 -0.0352
-17 -4 -3 0.3122 -0.3051
-17 -4 -2 0.6284 0.1151
-17 -4 -1 0.5710 -0.4862
-17 -3 -12 -0.3827 -0.4301
-17 -3 -11 0.0890 0.6505
-17 -3 -10 -0.8000 -0.4197
-17 -3 -9 -0.3119 0.5563
-17 -3 -8 -0.1115 0.0018
-17 -3 -7 -0.5157 0.5768
-17 -3 -6 0.3420 -0.1899
-17 -3 -5 -0.4692 0.4923
-17 -3 -4 0.3761 -0.0587
-17 -3 -3 -0.8081 0.1882
-17 -3 -2 0.2564 0.5275
-17 -3 -1 -0.3142 0.0160
-17 -2 -12 -0.0178 -0.4603
-17 -2 -11 0.3078 0.4373
-17 -2 -10 0.2657 -0.6154
-17 -2 -9 0.2903 0.1970
-17 -2 -8 0.7048 -0.3552
-17 -2 -7 -0.2810 0.2468
-17 -2 -6 0.7006 -0.4995
-17 -2 -5 -0.4277 0.3925
-17 -2 -4 0.6411 -0.4822
-17 -2 -3 -0.5509 -0.2245
-17 -2 -2 0.3338 -0.1110
-17 -2 -1 -0.3813 -0.5473
-17 -1 -12 0.1221 -0.0182
-17 -1 -11 -0.1112 0.2457
-17 -1 -10 -0.1666 0.0556
-17 -1 -9 -0.4073 -0.1468
-17 -1 -8 0.1313 0.1711
-17 -1 -7 -0.7214 -0.0924
-17 -1 -6 0.2549 -0.1128
-17 -1 -5 -0.6090 0.2449
-17 -1 -4 0.2297 0.1556
-17 -1 -3 -0.2501 -0.0051
-17 -1 -2 0.2683 0.4908
-17 -1 -1 0.2656 -0.1379
-16 -19 -3 -0.0718 0.3315
-16 -19 -1 0.0644 0.1126
-16 -18 -5 0.2831 -0.0868
-16 -18 -4 -0.0758 -0.3238
-16 -18 -3 0.5823 0.1009
-16 -18 -1 0.7634 0.0954
-16 -17 -6 0.1844 -0.2178
-16 -17 -5 0.0007 0.2012
-16 -17 -4 -0.2077 -0.2527
-16 -17 -3 0.0763 0.4294
-16 -17 -1 -0.0732 0.1915
-16 -16 -7 -0.7436 0.2990
-16 -16 -6 0.2055 -0.2626
-16 -16 -5 -0.4390 0.5494
-16 -16 -4 0.0560 -0.2670
-16 -16 -3 0.0546 0.0948
-16 -16 -2 0.2148 -0.3234
-16 -16 -1 0.3835 -0.1246
-16 -15 -8 1.0251 0.0852
-16 -15 -7 -0.2266 0.4209
-16 -15 -6 0.9650 -0.4487
-16 -15 -5 -0.1361 0.3343
-16 -15 -4 0.4465 -0.1748
-16 -15 -3 -0.1187 0.2281
-16 -15 -2 0.0232 0.4872
-16 -15 -1 -0.3293 -0.1037
-16 -14 -9 -0.7868 -0.3400
-16 -14 -8 0.1424 -0.0831
-16 -14 -7 -1.1938 -0.1270
-16 -14 -6 0.0269 -0.4005
-16 -14 -5 -0.6872 0.0493
-16 -14 -4 0.0189 -0.3582
-16 -14 -3 -0.4826 -0.6357
-16 -14 -2 0.0219 0.1005
-16 -14 -1 -0.0912 -0.5575
-16 -13 -9 -0.2404 -0.7590
-16 -13 -8 0.9839 0.4172
-16 -13 -7 0.0451 -0.2076
-16 -13 -6 0.7522 0.3218
-16 -13 -5 0.1304 0.5191
-16 -13 -4 0.5546 0.5652
-16 -13 -3 0.0460 0.2242
-16 -13 -2 0.6403 0.8716
-16 -13 -1 0.1710 -0.3641
-16 -12 -10 0.3794 1.2244
-16 -12 -9 -0.4466 -0.0801
-16 -12 -8 0.2840 1.2837
-16 -12 -7 -0.7691 -0.4061
-16 -12 -6 -0.2078 -0.1234
-16 -12 -5 -0.2826 -0.4883
-16 -12 -4 -0.1619 -0.6714
-16 -12 -3 -0.6038 -0.7485
-16 -12 -2 -0.0956 0.0910
-16 -12 -1 -0.5459 -0.4270
-16 -11 -10 -0.0009 -0.2282
-16 -11 -9 -0.6437 -1.8604
-16 -11 -8 0.6521 0.1181
-16 -11 -7 -0.1854 -0.6616
-16 -11 -6 0.2765 0.3054
-16 -11 -5 0.2319 0.6784
-16 -11 -4 0.0674 0.4909
-16 -11 -3 0.1944 0.3652
-16 -11 -2 0.3310 0.4309
-16 -11 -1 -0.0108 -0.3145
-16 -10 -10 0.3539 1.4755
-16 -10 -9 -0.2447 -0.0210
-16 -10 -8 0.5797 1.1796
-16 -10 -7 -0.4729 -0.1155
-16 -10 -6 0.1929 -0.3072
-16 -10 -5 -0.0360 -0.2050
-16 -10 -4 -0.1256 -0.5343
-16 -10 -3 -0.0679 -0.1684
-16 -10 -2 -0.0694 -0.0045
-16 -10 -1 0.0002 0.0485
-16 -9 -11 0.1292 -0.5321
-16 -9 -10 -0.1892 0.1767
-16 -9 -9 -0.3002 -1.0702
-16 -9 -8 0.2291 0.1695
-16 -9 -7 -0.4853 -0.0766
-16 -9 -6 0.3512 -0.0409
-16 -9 -5 -0.3809 0.4507
-16 -9 -4 0.3218 -0.1185
-16 -9 -3 -0.0180 0.3167
-16 -9 -2 0.2855 -0.5065
-16 -9 -1 -0.1066 0.0191
-16 -8 -11 0.0939 -0.2732
-16 -8 -10 0.0130 0.5483
-16 -8 -9 0.1120 -0.3709
-16 -8 -8 0.1721 0.3638
-16 -8 -7 -0.1505 0.1650
-16 -8 -6 0.4462 -0.3142
-16 -8 -5 -0.4461 0.3532
-16 -8 -4 0.2211 -0.3735
-16 -8 -3 -0.6119 0.7329
-16 -8 -2 -0.1612 -0.5992
-16 -8 -1 -0.5953 0.6699
-16 -7 -12 0.2660 0.2944
-16 -7 -11 -0.2386 -0.2176
-16 -7 -10 0.1306 0.6260
-16 -7 -9 -0.0147 -0.6181
-16 -7 -8 -0.0972 0.0044
-16 -7 -7 0.0001 -0.0344
-16 -7 -6 -0.0567 -0.5924
-16 -7 -5 0.0691 0.2204
-16 -7 -4 0.2462 -0.5401
-16 -7 -3 0.6075 0.6692
-16 -7 -2 0.5619 -0.8465
-16 -7 -1 0.7067 0.4116
-16 -6 -12 0.2295 0.1655
-16 -6 -11 -0.3785 -0.7003
-16 -6 -10 0.0315 0.6702
-16 -6 -9 -0.1529 -0.5192
-16 -6 -8 -0.1425 0.5778
-16 -6 -7 0.3124 0.5246
-16 -6 -6 -0.3584 0.1182
-16 -6 -5 0.4303 0.4729
-16 -6 -4 -0.9762 -0.1845
-16 -6 -3 -0.0066 0.2970
-16 -6 -2 -1.3311 -0.5912
-16 -6 -1 -0.4380 0.3237
-16 -5 -12 0.1447 0.2342
-16 -5 -11 0.3405 -0.1848
-16 -5 -10 0.2419 0.6362
-16 -5 -9 0.3334 -0.5773
-16 -5 -8 0.0125 -0.0766
-16 -5 -7 0.1496 -0.4127
-16 -5 -6 -0.4208 -0.5528
-16 -5 -5 0.6525 -0.2021
-16 -5 -4 -0.3243 -0.0553
-16 -5 -3 1.2541 0.1288
-16 -5 -2 0.2449 -0.0277
-16 -5 -1 1.3083 -0.0604
-16 -4 -12 -0.3961 -0.3797
-16 -4 -11 -0.0630 0.0407
-16 -4 -10 -0.7863 -0.2437
-16 -4 -9 -0.2280 0.0187
-16 -4 -8 -0.1729 0.1356
-16 -4 -7 -0.1635 0.5051
-16 -4 -6 0.0428 0.0984
-16 -4 -5 0.0808 0.3726
-16 -4 -4 -0.4758 0.0276
-16 -4 -3 -0.2476 0.0659
-16 -4 -2 -0.7354 0.1924
-16 -4 -1 -0.5058 0.0523
-16 -3 -12 0.0733 -0.3878
-16 -3 -11 0.5488 0.7592
-16 -3 -10 0.2900 -0.4111
-16 -3 -9 0.4925 0.4305
-16 -3 -8 0.5748 -0.4338
-16 -3 -7 -0.2473 0.2291
-16 -3 -6 0.3971 -0.5626
-16 -3 -5 -0.1313 0.3042
-16 -3 -4 0.1718 -0.4564
-16 -3 -3 0.1328 -0.0682
-16 -3 -2 0.3411 -0.2309
-16 -3 -1 0.2041 -0.5031
-16 -2 -12 0.1109 -0.3657
-16 -2 -11 -0.3390 0.3093
-16 -2 -10 -0.3838 -0.4035
-16 -2 -9 -0.6447 0.2299
-16 -2 -8 0.0411 -0.1766
-16 -2 -7 -0.7044 0.2464
-16 -2 -6 0.2386 -0.3408
-16 -2 -5 -0.1734 0.4135
-16 -2 -4 -0.0749 -0.1954
-16 -2 -3 0.1774 0.3054
-16 -2 -2 -0.1169 0.4441
-16 -2 -1 0.1629 0.0631
-16 -1 -12 0.1291 0.1478
-16 -1 -11 0.2242 0.1133
-16 -1 -10 0.4512 0.0966
-16 -1 -9 0.1585 -0.1526
-16 -1 -8 0.6213 0.2693
-16 -1 -7 -0.1156 -0.0669
-16 -1 -6 0.3842 0.1252
-16 -1 -5 0.1420 0.0303
-16 -1 -4 -0.3594 0.0816
-16 -1 -3 0.3813 -0.3546
-16 -1 -2 -0.5713 0.1740
-16 -1 -1 0.3680 -0.4041
-15 -20 -3 -0.2490 -0.1678
-15 -20 -1 -0.1738 -0.1776
-15 -19 -5 0.5813 -0.2625
-15 -19 -4 0.1125 0.1439
-15 -19 -3 0.5422 -0.1373
-15 -19 -1 0.5858 -0.0400
-15 -18 -6 -0.4762 0.0123
-15 -18 -5 -0.0114 -0.0399
-15 -18 -4 -0.6459 -0.0393
-15 -18 -3 0.0518 -0.0526
-15 -18 -2 -0.7613 -0.0534
-15 -18 -1 0.0574 -0.0557
-15 -17 -7 0.0252 0.2705
-15 -17 -6 0.0974 -0.2158
-15 -17 -5 0.2525 0.4474
-15 -17 -4 0.0152 -0.0039
-15 -17 -3 0.5656 0.3106
-15 -17 -2 0.0649 -0.1629
-15 -17 -1 0.7367 0.0804
-15 -16 -8 0.3798 -0.0247
-15 -16 -7 -0.1807 0.5640
-15 -16 -6 0.2743 -0.5743
-15 -16 -5 -0.1379 0.2936
-15 -16 -4 -0.1073 -0.5695
-15 -16 -3 -0.1026 0.2208
-15 -16 -2 -0.4719 -0.0778
-15 -16 -1 -0.3698 0.0265
-15 -15 -9 -0.4661 -0.4054
-15 -15 -8 0.1741 -0.6019
-15 -15 -7 -0.6137 0.0669
-15 -15 -6 0.0781 -0.7331
-15 -15 -5 -0.1971 0.4863
-15 -15 -4 0.0526 -0.4068
-15 -15 -3 0.0514 0.0230
-15 -15 -2 0.1934 -0.1302
-15 -15 -1 0.3830 -0.2077
-15 -14 -9 -0.2736 0.0122
-15 -14 -8 0.6271 0.4847
-15 -14 -7 0.0505 0.5796
-15 -14 -6 0.3025 0.0522
-15 -14 -5 0.1139 0.7656
-15 -14 -4 0.1345 0.0496
-15 -14 -3 -0.0467 0.3469
-15 -14 -2 0.1798 0.4539
-15 -14 -1 -0.1891 -0.1985
-15 -13 -10 0.4070 0.5929
-15 -13 -9 -0.2215 -0.3524
-15 -13 -8 0.1852 0.4109
-15 -13 -7 -0.3556 -0.4898
-15 -13 -6 -0.3298 -0.5764
-15 -13 -5 0.0551 -0.2640
-15 -13 -4 -0.1043 -0.7918
-15 -13 -3 -0.4303 -0.4379
-15 -13 -2 0.1719 -0.0065
-15 -13 -1 -0.3239 -0.3252
-15 -12 -10 -0.2428 -0.1762
-15 -12 -9 -0.6752 -1.2502
-15 -12 -8 0.2867 0.2814
-15 -12 -7 0.0871 -0.2956
-15 -12 -6 -0.1942 0.4124
-15 -12 -5 0.4085 0.8378
-15 -12 -4 -0.0533 0.3930
-15 -12 -3 -0.0628 0.4335
-15 -12 -2 0.3953 0.4371
-15 -12 -1 -0.4023 -0.3544
-15 -11 -11 0.4314 0.3311
-15 -11 -10 0.6294 1.1690
-15 -11 -9 -0.0384 0.1612
-15 -11 -8 0.6048 0.9805
-15 -11 -7 0.0231 -0.2530
-15 -11 -6 -0.2400 -0.3557
-15 -11 -5 0.4862 -0.3308
-15 -11 -4 -0.2067 -0.6174
-15 -11 -3 0.0052 -0.4112
-15 -11 -2 0.3805 0.2248
-15 -11 -1 0.1507 -0.1963
-15 -10 -11 0.0527 -0.5032
-15 -10 -10 -0.3127 -0.2504
-15 -10 -9 -0.7561 -0.9653
-15 -10 -8 0.0470 0.1096
-15 -10 -7 -0.4593 -0.1193
-15 -10 -6 -0.2484 0.1527
-15 -10 -5 -0.0691 0.4740
-15 -10 -4 -0.1148 0.2099
-15 -10 -3 -0.2930 0.0236
-15 -10 -2 -0.0032 0.0983
-15 -10 -1 -0.8658 -0.3831
-15 -9 -12 -0.3324 -0.0477
-15 -9 -11 0.4370 0.1601
-15 -9 -10 0.2456 0.5089
-15 -9 -9 0.1671 -0.1701
-15 -9 -8 0.6972 0.3940
-15 -9 -7 0.0063 -0.0667
-15 -9 -6 0.6192 -0.2695
-15 -9 -5 -0.2110 0.1264
-15 -9 -4 0.5671 -0.2414
-15 -9 -3 -0.4952 0.2482
-15 -9 -2 0.7350 -0.0552
-15 -9 -1 -0.2342 0.2717
-15 -8 -12 -0.1600 -0.0751
-15 -8 -11 -0.1353 -0.1656
-15 -8 -10 -0.0879 0.2529
-15 -8 -9 -0.4798 -0.6094
-15 -8 -8 -0.0596 0.1826
-15 -8 -7 -0.5721 -0.0610
-15 -8 -6 0.1635 -0.3817
-15 -8 -5 -0.6334 0.3024
-15 -8 -4 0.6059 -0.4662
-15 -8 -3 -0.4379 0.5412
-15 -8 -2 0.6882 -0.6213
-15 -8 -1 -0.5709 0.2090
-15 -7 -12 0.3661 0.1817
-15 -7 -11 -0.2726 -0.3661
-15 -7 -10 0.4792 0.7825
-15 -7 -9 -0.1950 -0.5153
-15 -7 -8 0.3299 0.6171
-15 -7 -7 0.1341 0.3307
-15 -7 -6 0.1912 -0.0622
-15 -7 -5 -0.0248 0.5447
-15 -7 -4 -0.1055 -0.4819
-15 -7 -3 -0.3262 0.3969
-15 -7 -2 -0.3181 -0.7508
-15 -7 -1 -0.5999 0.3274
-15 -6 -12 0.2488 0.2949
-15 -6 -11 -0.2941 -0.6067
-15 -6 -10 0.5038 0.8443
-15 -6 -9 -0.2372 -0.9141
-15 -6 -8 0.0335 0.1913
-15 -6 -7 -0.0110 -0.3854
-15 -6 -6 -0.3862 -0.5432
-15 -6 -5 0.4176 0.0628
-15 -6 -4 -0.3065 -0.1001
-15 -6 -3 0.9197 0.5122
-15 -6 -2 0.2029 0.0057
-15 -6 -1 0.8483 0.1553
-15 -5 -12 -0.0965 -0.0060
-15 -5 -11 -0.3608 -0.5498
-15 -5 -10 -0.1941 0.3338
-15 -5 -9 -0.3132 -0.6679
-15 -5 -8 0.0303 0.4402
-15 -5 -7 0.0934 0.2385
-15 -5 -6 -0.0814 0.1729
-15 -5 -5 0.3320 0.2624
-15 -5 -4 -0.6752 -0.0738
-15 -5 -3 0.0377 -0.2068
-15 -5 -2 -0.9001 -0.0862
-15 -5 -1 -0.6729 -0.0958
-15 -4 -13 -0.0807 0.3542
-15 -4 -12 0.2714 -0.0723
-15 -4 -11 0.3968 0.5877
-15 -4 -10 0.3764 0.4204
-15 -4 -9 0.2878 0.1661
-15 -4 -8 0.3339 0.1282
-15 -4 -7 -0.2372 0.0035
-15 -4 -6 0.1635 -0.4077
-15 -4 -5 0.0331 0.1350
-15 -4 -4 -0.0013 -0.2294
-15 -4 -3 0.4262 0.0202
-15 -4 -2 0.5666 0.0094
-15 -4 -1 0.3459 -0.4084
-15 -3 -13 -0.3307 0.0296
-15 -3 -12 0.1701 -0.7023
-15 -3 -11 -0.5479 -0.0787
-15 -3 -10 -0.3216 -0.5712
-15 -3 -9 -0.5775 -0.2403
-15 -3 -8 0.0802 -0.1988
-15 -3 -7 -0.5813 0.1419
-15 -3 -6 0.2519 -0.2964
-15 -3 -5 -0.1374 0.4854
-15 -3 -4 -0.2000 -0.3263
-15 -3 -3 0.0034 0.3625
-15 -3 -2 -0.1885 0.3249
-15 -3 -1 -0.6703 0.0888
-15 -2 -13 -0.3931 0.2278
-15 -2 -12 0.5644 0.3497
-15 -2 -11 -0.0543 0.2941
-15 -2 -10 0.7488 0.4252
-15 -2 -9 0.0717 -0.0416
-15 -2 -8 0.7077 0.3171
-15 -2 -7 -0.1485 -0.0038
-15 -2 -6 0.3635 -0.0284
-15 -2 -5 0.2594 0.2786
-15 -2 -4 -0.4685 -0.2351
-15 -2 -3 0.5708 -0.0534
-15 -2 -2 -0.3150 -0.0836
-15 -2 -1 0.3224 -0.4968
-15 -1 -13 -0.2856 -0.5082
-15 -1 -12 -0.1430 -0.1981
-15 -1 -11 -0.6656 -0.5860
-15 -1 -10 -0.1556 0.1628
-15 -1 -9 -0.6471 -0.5594
-15 -1 -8 -0.0795 0.3424
-15 -1 -7 -0.4888 -0.4566
-15 -1 -6 -0.2580 0.1540
-15 -1 -5 0.2657 -0.4227
-15 -1 -4 -0.7825 0.1458
-15 -1 -3 0.9765 -0.3567
-15 -1 -2 -0.8763 0.3933
-15 -1 -1 0.2030 -0.1603
-14 -20 -4 0.2251 0.4099
-14 -20 -3 0.0456 -0.2674
-14 -20 -2 0.2351 0.4063
-14 -19 -6 -0.4987 0.1175
-14 -19 -5 -0.0221 -0.4863
-14 -19 -4 -0.4165 0.2693
-14 -19 -3 -0.1027 -0.6103
-14 -19 -2 -0.2244 0.3288
-14 -19 -1 -0.0684 -0.3830
-14 -18 -7 0.3809 0.2535
-14 -18 -6 -0.1669 0.2730
-14 -18 -5 0.4128 0.0321
-14 -18 -4 0.0109 0.7252
-14 -18 -3 0.3876 -0.1452
-14 -18 -2 0.0162 0.4648
-14 -18 -1 0.2750 -0.1194
-14 -17 -8 -0.2289 -0.3366
-14 -17 -7 0.2131 0.1384
-14 -17 -6 -0.1436 -0.4198
-14 -17 -5 -0.0407 -0.4447
-14 -17 -4 -0.1879 -0.2273
-14 -17 -3 -0.0454 -0.5551
-14 -17 -2 -0.3125 0.0491
-14 -17 -1 -0.1810 -0.2745
-14 -16 -9 0.1819 -0.0606
-14 -16 -8 -0.2169 -0.4569
-14 -16 -7 0.0644 0.3056
-14 -16 -6 -0.0174 -0.2594
-14 -16 -5 -0.0126 0.3974
-14 -16 -4 0.0943 0.4393
-14 -16 -3 0.1214 0.0366
-14 -16 -2 0.1217 0.3458
-14 -16 -1 0.3075 -0.1182
-14 -15 -9 0.0781 0.2470
-14 -15 -8 -0.2030 0.2148
-14 -15 -7 0.2438 0.7229
-14 -15 -6 -0.1305 -0.1062
-14 -15 -5 -0.0070 0.1467
-14 -15 -4 0.0094 -0.0153
-14 -15 -3 -0.0280 -0.3971
-14 -15 -2 -0.0064 0.2901
-14 -15 -1 -0.1554 -0.3863
-14 -14 -10 0.2008 0.3319
-14 -14 -9 0.4732 -0.4372
-14 -14 -8 -0.2066 -0.2014
-14 -14 -7 0.3950 -0.3680
-14 -14 -6 -0.3010 -0.5534
-14 -14 -5 0.2414 -0.1678
-14 -14 -4 -0.0160 -0.0191
-14 -14 -3 -0.3160 -0.2749
-14 -14 -2 0.0622 0.4749
-14 -14 -1 -0.2068 -0.2097
-14 -13 -10 -0.7137 0.1092
-14 -13 -9 -0.2776 -0.7464
-14 -13 -8 -0.6172 0.4176
-14 -13 -7 0.3904 0.0579
-14 -13 -6 -0.6552 0.4182
-14 -13 -5 0.3176 0.4274
-14 -13 -4 0.0086 0.2326
-14 -13 -3 -0.0765 -0.1576
-14 -13 -2 0.4765 0.1993
-14 -13 -1 -0.1881 -0.5461
-14 -12 -11 0.6404 0.2160
-14 -12 -10 0.5741 0.9500
-14 -12 -9 0.7529 0.0465
-14 -12 -8 0.1482 0.6495
-14 -12 -7 0.8622 -0.3795
-14 -12 -6 -0.5535 -0.2379
-14 -12 -5 0.7445 -0.3235
-14 -12 -4 -0.2137 -0.2022
-14 -12 -3 -0.1130 -0.1963
-14 -12 -2 0.2886 0.5955
-14 -12 -1 0.1711 -0.0775
-14 -11 -11 -0.1106 -0.4292
-14 -11 -10 -0.7527 -0.4184
-14 -11 -9 -0.6501 -0.6291
-14 -11 -8 -0.8310 0.0682
-14 -11 -7 0.0619 -0.0449
-14 -11 -6 -1.1030 0.2873
-14 -11 -5 0.3714 0.2170
-14 -11 -4 -0.4982 0.2558
-14 -11 -3 -0.1916 -0.4514
-14 -11 -2 -0.3115 0.1633
-14 -11 -1 -0.8324 -0.7399
-14 -10 -12 -0.4771 -0.0377
-14 -10 -11 0.7115 0.4687
-14 -10 -10 0.3056 0.1077
-14 -10 -9 0.7710 0.1515
-14 -10 -8 0.5931 -0.0065
-14 -10 -7 0.9490 -0.1379
-14 -10 -6 0.1624 -0.1831
-14 -10 -5 0.6120 -0.0877
-14 -10 -4 0.3432 0.2116
-14 -10 -3 0.0338 -0.0730
-14 -10 -2 0.9967 0.7143
-14 -10 -1 0.5732 0.0293
-14 -9 -12 -0.5681 -0.4206
-14 -9 -11 0.1692 0.2320
-14 -9 -10 -0.6155 -0.3213
-14 -9 -9 -0.6144 0.0585
-14 -9 -8 -0.7219 0.0577
-14 -9 -7 -0.6724 0.1541
-14 -9 -6 -0.4750 -0.1853
-14 -9 -5 -0.7546 0.0793
-14 -9 -4 0.3016 -0.2321
-14 -9 -3 -1.0419 -0.1549
-14 -9 -2 0.2398 -0.2805
-14 -9 -1 -1.5944 -0.3319
-14 -8 -12 0.0281 -0.0912
-14 -8 -11 0.2537 0.4051
-14 -8 -10 0.5144 0.1469
-14 -8 -9 0.2835 0.0211
-14 -8 -8 0.6913 0.1647
-14 -8 -7 0.4938 0.3026
-14 -8 -6 0.6966 -0.1609
-14 -8 -5 -0.0825 0.4963
-14 -8 -4 0.8262 -0.3111
-14 -8 -3 -0.4370 0.3351
-14 -8 -2 1.0219 -0.2609
-14 -8 -1 -0.2323 0.2454
-14 -7 -13 -0.2055 -0.2007
-14 -7 -12 -0.1092 -0.2003
-14 -7 -11 -0.5173 -0.3994
-14 -7 -10 0.3078 0.0456
-14 -7 -9 -0.6929 -0.5827
-14 -7 -8 -0.2070 -0.1483
-14 -7 -7 -0.3903 -0.1234
-14 -7 -6 -0.4205 -0.6167
-14 -7 -5 -0.3171 0.2961
-14 -7 -4 -0.1085 -0.1557
-14 -7 -3 -0.2359 0.4836
-14 -7 -2 0.0366 0.0318
-14 -7 -1 -0.5071 0.0298
-14 -6 -13 0.2386 0.0576
-14 -6 -12 0.1329 0.2682
-14 -6 -11 -0.3710 -0.1919
-14 -6 -10 0.4452 0.4552
-14 -6 -9 -0.3438 -0.2711
-14 -6 -8 0.3780 0.3423
-14 -6 -7 0.3678 0.4148
-14 -6 -6 0.1326 -0.0713
-14 -6 -5 0.4638 0.2532
-14 -6 -4 -0.0665 -0.2048
-14 -6 -3 0.3040 -0.4544
-14 -6 -2 -0.0681 -0.0112
-14 -6 -1 -0.2026 -0.2593
-14 -5 -13 0.1223 0.1161
-14 -5 -12 0.1570 0.0334
-14 -5 -11 0.1346 0.3212
-14 -5 -10 0.5134 0.4606
-14 -5 -9 -0.1737 0.0676
-14 -5 -8 0.1177 0.1259
-14 -5 -7 -0.3417 0.0742
-14 -5 -6 -0.1589 -0.4031
-14 -5 -5 -0.2343 0.1520
-14 -5 -4 -0.1974 0.1242
-14 -5 -3 -0.1066 -0.1756
-14 -5 -2 0.3002 0.4929
-14 -5 -1 -0.2852 -0.5526
-14 -4 -13 -0.2723 0.0623
-14 -4 -12 -0.0874 -0.8255
-14 -4 -11 -0.5568 -0.2628
-14 -4 -10 -0.1533 -0.7037
-14 -4 -9 -0.4557 -0.5128
-14 -4 -8 0.2933 -0.2995
-14 -4 -7 -0.3088 0.0793
-14 -4 -6 0.5088 -0.3674
-14 -4 -5 -0.1626 0.4434
-14 -4 -4 0.4010 -0.1966
-14 -4 -3 -0.2073 0.0022
-14 -4 -2 0.5691 0.6272
-14 -4 -1 -1.0456 -0.1579
-14 -3 -13 -0.3278 0.5772
-14 -3 -12 0.7068 0.3612
-14 -3 -11 -0.0790 0.6621
-14 -3 -10 0.7231 0.7116
-14 -3 -9 -0.1043 0.1986
-14 -3 -8 0.5134 0.5208
-14 -3 -7 -0.3814 0.2155
-14 -3 -6 0.4051 -0.2200
-14 -3 -5 -0.2673 0.5437
-14 -3 -4 -0.0463 -0.4756
-14 -3 -3 -0.3084 -0.0949
-14 -3 -2 0.3773 -0.0352
-14 -3 -1 -0.7156 -0.7457
-14 -2 -13 -0.5751 -0.6164
-14 -2 -12 0.1701 -0.3054
-14 -2 -11 -0.8971 -1.0365
-14 -2 -10 0.1470 0.2412
-14 -2 -9 -0.6098 -1.0081
-14 -2 -8 0.1246 0.3736
-14 -2 -7 -0.4092 -0.5116
-14 -2 -6 -0.0195 -0.0878
-14 -2 -5 0.0216 0.0113
-14 -2 -4 -0.2753 -0.2014
-14 -2 -3 0.4299 0.0018
-14 -2 -2 -0.0458 0.5205
-14 -2 -1 -0.3977 -0.1286
-14 -1 -13 0.4546 0.3882
-14 -1 -12 0.8005 0.9355
-14 -1 -11 0.0762 -0.0261
-14 -1 -10 0.7419 1.1344
-14 -1 -9 0.0057 -0.5780
-14 -1 -8 0.3069 0.7772
-14 -1 -7 0.2430 -0.4282
-14 -1 -6 0.1849 0.6390
-14 -1 -5 0.5211 -0.1826
-14 -1 -4 -0.4964 0.6147
-14 -1 -3 0.6915 -0.3109
-14 -1 -2 -0.2371 0.4448
-14 -1 -1 0.5145 -0.3619
-13 -21 -3 -0.2027 0.0405
-13 -21 -2 0.1246 0.2166
-13 -20 -5 -0.1050 -0.3510
-13 -20 -4 0.0099 -0.0328
-13 -20 -3 -0.1629 -0.3500
-13 -20 -2 0.1643 0.3044
-13 -20 -1 -0.0985 -0.3628
-13 -19 -7 0.0011 0.0243
-13 -19 -6 -0.2261 0.5170
-13 -19 -5 0.0940 -0.0052
-13 -19 -4 0.0524 0.6593
-13 -19 -3 -0.0347 -0.2271
-13 -19 -2 0.0441 0.4877
-13 -19 -1 -0.2513 -0.2511
-13 -18 -8 -0.0329 -0.2978
-13 -18 -7 0.4570 -0.4201
-13 -18 -6 0.0773 -0.1997
-13 -18 -5 0.0954 -0.7798
-13 -18 -4 0.0763 -0.0372
-13 -18 -3 -0.0155 -0.6928
-13 -18 -2 0.2058 0.2434
-13 -18 -1 -0.0614 -0.3729
-13 -17 -8 -0.5159 0.1165
-13 -17 -7 -0.0553 0.3226
-13 -17 -6 -0.2031 0.4106
-13 -17 -5 -0.2810 0.2195
-13 -17 -4 0.0470 0.8545
-13 -17 -3 -0.2264 -0.0973
-13 -17 -2 0.0477 0.4871
-13 -17 -1 -0.3121 -0.1712
-13 -16 -9 0.4624 0.0773
-13 -16 -8 -0.3401 -0.1112
-13 -16 -7 0.4499 0.2033
-13 -16 -6 0.0878 -0.0964
-13 -16 -5 -0.0368 -0.5546
-13 -16 -4 0.3168 0.1457
-13 -16 -3 -0.0014 -0.8299
-13 -16 -2 0.3228 0.3711
-13 -16 -1 -0.0854 -0.4610
-13 -15 -10 -0.2001 0.1831
-13 -15 -9 0.7398 -0.1041
-13 -15 -8 -0.6245 -0.2562
-13 -15 -7 0.4937 -0.1795
-13 -15 -6 -0.2461 -0.0489
-13 -15 -5 -0.0805 -0.3413
-13 -15 -4 0.0465 0.8472
-13 -15 -3 -0.5463 -0.5265
-13 -15 -2 -0.0739 0.8881
-13 -15 -1 -0.6069 -0.3032
-13 -14 -11 -0.1069 -0.4690
-13 -14 -10 -0.8961 0.0069
-13 -14 -9 0.3202 -0.4896
-13 -14 -8 -1.0043 0.2652
-13 -14 -7 0.5764 0.0258
-13 -14 -6 -0.4778 0.4948
-13 -14 -5 0.0842 -0.4175
-13 -14 -4 0.4848 0.5351
-13 -14 -3 0.0024 -1.0455
-13 -14 -2 0.9562 0.3892
-13 -14 -1 0.1711 -0.8047
-13 -13 -11 0.6602 0.2190
-13 -13 -10 0.1950 1.0246
-13 -13 -9 1.2226 0.0252
-13 -13 -8 -0.4020 0.6384
-13 -13 -7 1.0207 -0.4483
-13 -13 -6 -0.4798 0.3036
-13 -13 -5 0.1546 -0.5538
-13 -13 -4 -0.0445 0.7596
-13 -13 -3 -0.8449 -0.3201
-13 -13 -2 -0.1228 1.1695
-13 -13 -1 -0.5910 -0.0749
-13 -12 -12 -0.2152 -0.1927
-13 -12 -11 -0.2234 -0.7323
-13 -12 -10 -1.0305 -0.4011
-13 -12 -9 -0.1391 -0.8324
-13 -12 -8 -1.3279 0.1342
-13 -12 -7 0.5058 -0.4317
-13 -12 -6 -0.9613 0.5281
-13 -12 -5 0.3788 -0.5868
-13 -12 -4 0.1235 0.4216
-13 -12 -3 0.0840 -1.1973
-13 -12 -2 0.2230 0.1326
-13 -12 -1 0.0754 -1.0463
-13 -11 -12 -0.2574 0.2065
-13 -11 -11 0.6472 0.4961
-13 -11 -10 0.1629 0.3129
-13 -11 -9 1.3032 0.1806
-13 -11 -8 0.0083 0.1214
-13 -11 -7 1.4324 -0.3463
-13 -11 -6 -0.3202 0.4328
-13 -11 -5 0.6044 -0.4410
-13 -11 -4 -0.0309 1.0738
-13 -11 -3 -0.0905 -0.2709
-13 -11 -2 0.2823 1.4476
-13 -11 -1 0.7722 -0.0281
-13 -10 -12 -0.4300 -0.4697
-13 -10 -11 0.3555 0.1896
-13 -10 -10 -1.0262 -0.4066
-13 -10 -9 -0.2500 0.3311
-13 -10 -8 -1.4958 0.1848
-13 -10 -7 -0.2188 -0.0387
-13 -10 -6 -0.9617 0.2285
-13 -10 -5 -0.3809 -0.7462
-13 -10 -4 0.1885 0.1527
-13 -10 -3 -0.6893 -1.1814
-13 -10 -2 -0.0794 -0.0520
-13 -10 -1 -1.1294 -0.9004
-13 -9 -13 0.3084 0.4171
-13 -9 -12 -0.3842 -0.2442
-13 -9 -11 0.6349 0.6913
-13 -9 -10 0.1380 -0.3392
-13 -9 -9 1.1324 0.0793
-13 -9 -8 0.5140 -0.1167
-13 -9 -7 1.1459 -0.0363
-13 -9 -6 0.7195 0.3349
-13 -9 -5 -0.0438 0.1480
-13 -9 -4 0.9994 0.5495
-13 -9 -3 -0.5285 0.2185
-13 -9 -2 1.2719 0.5553
-13 -9 -1 0.1721 0.2378
-13 -8 -13 -0.0509 -0.0178
-13 -8 -12 -0.3825 -0.6935
-13 -8 -11 -0.2762 -0.0041
-13 -8 -10 -0.3948 -0.4913
-13 -8 -9 -0.6278 -0.1703
-13 -8 -8 -0.9544 -0.1764
-13 -8 -7 -0.5781 -0.2356
-13 -8 -6 -0.5325 -0.3727
-13 -8 -5 -0.8248 -0.1562
-13 -8 -4 0.2498 -0.1687
-13 -8 -3 -0.8978 0.0120
-13 -8 -2 0.0011 -0.2131
-13 -8 -1 -1.2610 -0.2018
-13 -7 -13 0.4131 0.3216
-13 -7 -12 0.2722 0.2409
-13 -7 -11 -0.0406 0.5480
-13 -7 -10 0.7081 0.3206
-13 -7 -9 0.1931 0.3695
-13 -7 -8 0.5162 0.3154
-13 -7 -7 0.8087 0.5111
-13 -7 -6 0.3868 0.1096
-13 -7 -5 0.4144 0.1626
-13 -7 -4 0.4638 -0.0303
-13 -7 -3 0.4086 -0.3011
-13 -7 -2 0.5663 0.0874
-13 -7 -1 0.4252 -0.0694
-13 -6 -13 0.0874 -0.1508
-13 -6 -12 -0.0698 -0.3055
-13 -6 -11 -0.2417 0.1208
-13 -6 -10 0.3906 -0.3305
-13 -6 -9 -0.5362 0.0407
-13 -6 -8 -0.3133 -0.4264
-13 -6 -7 -0.3382 0.0084
-13 -6 -6 -0.5579 -0.3934
-13 -6 -5 -0.3953 -0.0557
-13 -6 -4 -0.5315 0.3965
-13 -6 -3 -0.4314 -0.3927
-13 -6 -2 -0.4987 0.5394
-13 -6 -1 -0.6991 -0.6088
-13 -5 -13 0.0127 0.1278
-13 -5 -12 -0.2558 -0.6834
-13 -5 -11 -0.4793 0.2502
-13 -5 -10 0.1366 -0.8360
-13 -5 -9 -0.3308 0.1513
-13 -5 -8 0.4502 -0.4408
-13 -5 -7 0.1030 0.3647
-13 -5 -6 0.5818 -0.2505
-13 -5 -5 0.1331 0.1746
-13 -5 -4 0.7506 0.2458
-13 -5 -3 0.2900 -0.4085
-13 -5 -2 0.9875 1.0101
-13 -5 -1 -0.2339 -0.2738
-13 -4 -14 0.2180 0.1193
-13 -4 -13 0.0597 0.6466
-13 -4 -12 0.5689 -0.0403
-13 -4 -11 0.1092 1.1445
-13 -4 -10 0.6922 0.1007
-13 -4 -9 -0.2959 0.7303
-13 -4 -8 0.3599 0.0949
-13 -4 -7 -0.5986 0.5082
-13 -4 -6 0.3011 -0.3639
-13 -4 -5 -0.7856 0.4558
-13 -4 -4 -0.0411 -0.3229
-13 -4 -3 -1.1280 -0.5818
-13 -4 -2 0.1548 0.1411
-13 -4 -1 -1.5722 -1.0660
-13 -3 -13 -0.5306 -0.4216
-13 -3 -12 -0.0160 -0.6903
-13 -3 -11 -0.8419 -0.5737
-13 -3 -10 0.1930 -0.3401
-13 -3 -9 -0.5750 -0.6482
-13 -3 -8 0.3851 -0.1405
-13 -3 -7 -0.3828 -0.2435
-13 -3 -6 0.4507 -0.5699
-13 -3 -5 -0.1518 0.4100
-13 -3 -4 0.6743 -0.3135
-13 -3 -3 0.2403 0.2410
-13 -3 -2 1.2108 0.9215
-13 -3 -1 -0.3066 -0.0971
-13 -2 -13 0.4034 0.4253
-13 -2 -12 0.7046 1.0292
-13 -2 -11 -0.0111 -0.0461
-13 -2 -10 0.6941 1.1776
-13 -2 -9 -0.2219 -0.5048
-13 -2 -8 0.1939 0.8587
-13 -2 -7 -0.0632 -0.1097
-13 -2 -6 0.1965 0.3615
-13 -2 -5 -0.0864 0.3028
-13 -2 -4 -0.1931 0.0180
-13 -2 -3 -0.3951 -0.3037
-13 -2 -2 -0.2397 0.1906
-13 -2 -1 -0.7180 -0.7258
-13 -1 -12 -0.6266 -0.4918
-13 -1 -11 -0.8031 -1.2880
-13 -1 -10 0.0832 0.3792
-13 -1 -9 -0.1832 -1.0099
-13 -1 -8 -0.1317 0.5206
-13 -1 -7 0.0224 -0.7075
-13 -1 -6 -0.3357 0.2359
-13 -1 -5 -0.1688 -0.7146
-13 -1 -4 -0.1749 0.2870
-13 -1 -3 0.1674 -0.5748
-13 -1 -2 -0.0342 0.5114
-13 -1 -1 -0.3021 -0.2532
-12 -21 -5 -0.1771 0.1106
-12 -21 -3 0.0088 0.0634
-12 -21 -2 0.1036 0.1084
-12 -21 -1 0.1212 -0.2797
-12 -20 -6 0.0053 0.1851
-12 -20 -5 -0.1716 0.2531
-12 -20 -4 0.0892 0.0064
-12 -20 -3 -0.1946 0.0539
-12 -20 -2 -0.0911 0.1893
-12 -20 -1 -0.1627 -0.2174
-12 -19 -7 0.2797 -0.4731
-12 -19 -6 0.3497 -0.0568
-12 -19 -5 0.0919 -0.2995
-12 -19 -4 0.2178 -0.2780
-12 -19 -3 0.0631 -0.1410
-12 -19 -2 0.3336 0.1789
-12 -19 -1 0.1568 -0.2613
-12 -18 -8 -0.3124 0.5328
-12 -18 -7 -0.4683 -0.0036
-12 -18 -6 -0.2525 0.4542
-12 -18 -5 -0.4531 0.3628
-12 -18 -4 -0.0916 0.2618
-12 -18 -3 -0.3494 0.1624
-12 -18 -2 -0.1189 0.0474
-12 -18 -1 -0.5212 -0.1231
-12 -17 -9 0.2967 -0.2782
-12 -17 -8 0.1287 0.1141
-12 -17 -7 0.3566 -0.2861
-12 -17 -6 0.4840 -0.1168
-12 -17 -5 0.0884 -0.3276
-12 -17 -4 0.4335 -0.2477
-12 -17 -3 0.1420 -0.1122
-12 -17 -2 0.4130 0.1031
-12 -17 -1 0.0727 -0.1221
-12 -16 -10 -0.2820 0.0873
-12 -16 -9 0.3707 -0.1164
-12 -16 -8 -0.5500 0.0530
-12 -16 -7 0.0318 -0.2209
-12 -16 -6 -0.2253 0.1182
-12 -16 -5 -0.3279 -0.1111
-12 -16 -4 -0.1137 0.3893
-12 -16 -3 -0.4655 -0.2333
-12 -16 -2 -0.2032 0.2462
-12 -16 -1 -0.7056 -0.2139
-12 -15 -10 -0.5975 -0.1405
-12 -15 -9 0.5290 -0.3063
-12 -15 -8 -0.5993 0.2345
-12 -15 -7 0.5426 -0.0649
-12 -15 -6 -0.1144 0.4438
-12 -15 -5 0.1263 -0.4021
-12 -15 -4 0.5431 0.4553
-12 -15 -3 0.2039 -0.6595
-12 -15 -2 1.0528 0.4040
-12 -15 -1 0.2550 -0.5103
-12 -14 -11 0.4668 0.4331
-12 -14 -10 -0.1518 0.8297
-12 -14 -9 0.8093 0.1337
-12 -14 -8 -0.5999 0.6142
-12 -14 -7 0.5163 -0.4197
-12 -14 -6 -0.3829 0.4527
-12 -14 -5 -0.3268 -0.5715
-12 -14 -4 -0.0910 0.7692
-12 -14 -3 -1.2434 -0.4029
-12 -14 -2 -0.3591 0.9159
-12 -14 -1 -1.4541 -0.1379
-12 -13 -11 -0.1651 -0.8420
-12 -13 -10 -0.6316 -0.6027
-12 -13 -9 0.2191 -1.0698
-12 -13 -8 -0.7013 0.0630
-12 -13 -7 0.6064 -0.7661
-12 -13 -6 -0.1172 0.5551
-12 -13 -5 0.2617 -0.8055
-12 -13 -4 0.9185 0.4555
-12 -13 -3 0.2826 -1.0953
-12 -13 -2 1.1709 0.1521
-12 -13 -1 0.7219 -0.9211
-12 -12 -12 0.0494 0.4148
-12 -12 -11 0.2058 0.7461
-12 -12 -10 0.0299 0.7624
-12 -12 -9 0.6800 0.3690
-12 -12 -8 -0.4031 0.6063
-12 -12 -7 0.5726 -0.3640
-12 -12 -6 -0.5019 0.8727
-12 -12 -5 -0.2762 -0.5588
-12 -12 -4 -0.2261 1.1966
-12 -12 -3 -0.8265 -0.3413
-12 -12 -2 -0.5184 1.4139
-12 -12 -1 0.0061 -0.0590
-12 -11 -12 0.0302 -0.5710
-12 -11 -11 0.3179 -0.1927
-12 -11 -10 -0.4809 -0.5739
-12 -11 -9 0.1586 0.0693
-12 -11 -8 -0.8801 0.1718
-12 -11 -7 0.2977 -0.4494
-12 -11 -6 -0.2976 0.4587
-12 -11 -5 0.0177 -1.2123
-12 -11 -4 0.7105 0.4369
-12 -11 -3 -0.0276 -1.5114
-12 -11 -2 0.2230 0.1770
-12 -11 -1 0.1630 -1.1084
-12 -10 -12 -0.6124 -0.1029
-12 -10 -11 0.2959 0.7095
-12 -10 -10 -0.3064 -0.3699
-12 -10 -9 0.9142 -0.0540
-12 -10 -8 0.0240 -0.0902
-12 -10 -7 0.7602 -0.3628
-12 -10 -6 0.3861 0.8963
-12 -10 -5 -0.5812 -0.2096
-12 -10 -4 0.6875 1.2066
-12 -10 -3 -1.0021 -0.0666
-12 -10 -2 0.5851 1.1029
-12 -10 -1 0.0429 0.1011
-12 -9 -13 0.2576 0.1509
-12 -9 -12 -0.2462 -0.8280
-12 -9 -11 0.2842 0.1493
-12 -9 -10 -0.6066 -0.3229
-12 -9 -9 -0.1379 -0.0192
-12 -9 -8 -1.0269 0.2998
-12 -9 -7 -0.4699 -0.6322
-12 -9 -6 0.0042 0.0319
-12 -9 -5 -0.9950 -0.8573
-12 -9 -4 1.1529 -0.0821
-12 -9 -3 -0.9393 -0.4943
-12 -9 -2 0.6675 -0.3116
-12 -9 -1 -0.9682 -0.4204
-12 -8 -13 0.3047 0.6033
-12 -8 -12 0.0593 0.0651
-12 -8 -11 0.2612 0.7015
-12 -8 -10 0.3698 0.3887
-12 -8 -9 0.7279 0.0826
-12 -8 -8 0.3437 0.7134
-12 -8 -7 0.7499 0.0578
-12 -8 -6 0.6419 0.7903
-12 -8 -4 0.8357 0.2998
-12 -8 -3 -0.4859 0.0686
-12 -8 -2 0.6750 0.0433
-12 -8 -1 -0.0219 0.2469
-12 -7 -13 -0.0510 -0.0368
-12 -7 -12 -0.2369 -0.5890
-12 -7 -11 -0.3928 -0.2059
-12 -7 -10 -0.1237 -0.5024
-12 -7 -9 -0.4684 -0.5472
-12 -7 -8 -0.8276 -0.2870
-12 -7 -7 -0.2350 -0.7430
-12 -7 -6 -0.4194 -0.1079
-12 -7 -5 -0.5426 -0.5979
-12 -7 -4 -0.0213 0.3682
-12 -7 -3 -0.4342 -0.2768
-12 -7 -2 -0.3531 0.0450
-12 -7 -1 -0.5192 -0.3462
-12 -6 -13 0.1332 0.2999
-12 -6 -12 -0.0746 -0.4070
-12 -6 -11 -0.1994 0.6143
-12 -6 -10 0.3778 -0.3163
-12 -6 -9 0.2047 0.4827
-12 -6 -8 0.2962 0.2248
-12 -6 -7 0.5576 0.3130
-12 -6 -6 0.3943 0.5644
-12 -6 -5 0.1319 -0.2290
-12 -6 -4 0.5996 0.7156
-12 -6 -3 0.4181 -0.3930
-12 -6 -2 0.5839 0.8156
-12 -6 -1 0.2202 0.0007
-12 -5 -13 0.1914 0.5884
-12 -5 -12 0.4443 -0.5212
-12 -5 -11 0.0290 1.1405
-12 -5 -10 0.4335 -0.5602
-12 -5 -9 -0.3783 0.5774
-12 -5 -8 -0.0479 -0.2965
-12 -5 -7 -0.4532 -0.0287
-12 -5 -6 0.1276 -0.1481
-12 -5 -5 -0.7142 -0.3626
-12 -5 -4 -0.1060 0.0886
-12 -5 -3 -0.9050 -0.9649
-12 -5 -2 -0.1976 0.0057
-12 -5 -1 -1.1772 -0.9968
-12 -4 -13 -0.6151 0.1061
-12 -4 -12 -0.1202 -0.9964
-12 -4 -11 -0.7809 0.3838
-12 -4 -10 0.2701 -0.7867
-12 -4 -9 -0.4988 0.1193
-12 -4 -8 0.4877 -0.2710
-12 -4 -7 -0.3967 0.0069
-12 -4 -6 0.5478 -0.2973
-12 -4 -5 -0.2435 0.2651
-12 -4 -4 0.8079 0.1251
-12 -4 -3 0.3647 0.2680
-12 -4 -2 1.2469 1.0880
-12 -4 -1 -0.0074 0.0963
-12 -3 -14 0.3346 0.3201
-12 -3 -13 0.2862 0.4308
-12 -3 -12 0.6549 0.2408
-12 -3 -11 -0.0613 0.2778
-12 -3 -10 0.7259 0.2281
-12 -3 -9 -0.4090 -0.1119
-12 -3 -8 0.4017 0.4043
-12 -3 -7 -0.2839 0.2417
-12 -3 -6 0.3747 0.1596
-12 -3 -5 -0.3566 0.5508
-12 -3 -4 -0.2647 -0.2870
-12 -3 -3 -0.7386 -0.2753
-12 -3 -2 -0.6761 -0.1652
-12 -3 -1 -1.0792 -0.8327
-12 -2 -14 -0.7753 -0.3137
-12 -2 -13 -0.2151 -0.5476
-12 -2 -12 -0.6049 -0.2120
-12 -2 -11 -0.6435 -0.7582
-12 -2 -10 0.1810 0.4573
-12 -2 -9 -0.3083 -0.6552
-12 -2 -8 0.0685 0.2791
-12 -2 -7 -0.0997 -0.7103
-12 -2 -6 -0.1215 -0.2334
-12 -2 -5 -0.1182 -0.4484
-12 -2 -4 0.1271 -0.1139
-12 -2 -3 0.6550 -0.0681
-12 -2 -2 0.2127 0.5051
-12 -2 -1 1.0558 -0.0245
-12 -1 -13 1.2531 0.7800
-12 -1 -12 0.5046 0.6842
-12 -1 -11 0.3349 0.1994
-12 -1 -10 0.4507 0.8250
-12 -1 -9 -0.0431 -0.3655
-12 -1 -8 -0.2194 0.6238
-12 -1 -7 0.4552 -0.1498
-12 -1 -6 0.1318 0.9066
-12 -1 -5 0.3850 -0.2606
-12 -1 -4 0.0469 0.7361
-12 -1 -3 0.2634 -0.4027
-12 -1 -2 -0.7107 0.2036
-12 -1 -1 0.5032 -0.2506
-11 -22 -3 0.1827 0.1315
-11 -22 -1 0.1113 -0.2446
-11 -21 -5 -0.1192 0.4120
-11 -21 -4 0.0896 -0.3433
-11 -21 -3 -0.2619 0.1749
-11 -21 -2 -0.1730 0.0977
-11 -21 -1 -0.1729 -0.1466
-11 -20 -7 0.0440 -0.0015
-11 -20 -6 0.2408 -0.0796
-11 -20 -5 -0.0616 0.2472
-11 -20 -4 0.2486 -0.3591
-11 -20 -3 0.0830 0.1433
-11 -20 -2 0.3977 0.1852
-11 -20 -1 0.2507 -0.2760
-11 -19 -8 -0.0751 0.2727
-11 -19 -7 -0.3921 -0.1822
-11 -19 -6 -0.1581 -0.0226
-11 -19 -5 -0.3694 0.4354
-11 -19 -4 -0.1067 -0.2510
-11 -19 -3 -0.4039 0.1744
-11 -19 -2 -0.2279 -0.0526
-11 -19 -1 -0.5108 -0.1773
-11 -18 -9 -0.0813 -0.3245
-11 -18 -8 0.2351 0.4341
-11 -18 -7 0.1427 -0.1416
-11 -18 -6 0.5047 -0.1889
-11 -18 -5 0.1416 0.2573
-11 -18 -4 0.3940 -0.5525
-11 -18 -3 0.2490 0.4372
-11 -18 -2 0.3223 -0.0102
-11 -18 -1 0.2870 0.0124
-11 -17 -10 0.0268 0.1128
-11 -17 -9 0.1693 -0.5502
-11 -17 -8 -0.1306 0.1488
-11 -17 -7 -0.1579 -0.3549
-11 -17 -6 -0.1112 -0.2480
-11 -17 -5 -0.3178 0.3363
-11 -17 -4 -0.2707 -0.5148
-11 -17 -3 -0.1206 0.2388
-11 -17 -2 -0.3942 -0.4533
-11 -17 -1 -0.2178 -0.0792
-11 -16 -10 -0.3818 0.2387
-11 -16 -9 0.2487 -0.1859
-11 -16 -8 -0.3907 0.6119
-11 -16 -7 0.2498 0.1446
-11 -16 -6 -0.1178 0.2540
-11 -16 -5 0.2618 0.3968
-11 -16 -4 0.0622 -0.0878
-11 -16 -3 0.5139 0.4324
-11 -16 -2 0.3049 0.1178
-11 -16 -1 0.3926 0.0107
-11 -15 -11 0.3392 0.2501
-11 -15 -10 -0.2060 0.4963
-11 -15 -9 0.5113 -0.2660
-11 -15 -8 -0.3861 0.3605
-11 -15 -7 0.4705 -0.5347
-11 -15 -6 -0.3652 -0.1000
-11 -15 -5 0.0624 -0.2163
-11 -15 -4 -0.4849 -0.2356
-11 -15 -3 -0.5471 -0.0985
-11 -15 -2 -0.5909 -0.0240
-11 -15 -1 -1.1428 -0.0815
-11 -14 -11 -0.0170 -0.6828
-11 -14 -10 -0.2663 -0.3939
-11 -14 -9 0.2055 -1.0150
-11 -14 -8 -0.2709 0.2925
-11 -14 -7 0.4855 -0.5731
-11 -14 -6 -0.0849 0.3825
-11 -14 -5 0.4898 -0.0267
-11 -14 -4 0.5483 0.0882
-11 -14 -3 0.6540 0.0055
-11 -14 -2 1.1780 -0.0102
-11 -14 -1 0.8536 -0.3614
-11 -13 -12 0.1646 0.4515
-11 -13 -11 -0.0631 0.8296
-11 -13 -10 0.0622 1.0409
-11 -13 -9 -0.1873 0.3048
-11 -13 -8 -0.3642 0.9506
-11 -13 -7 -0.1804 -0.3142
-11 -13 -6 -0.6340 0.5313
-11 -13 -5 -0.3862 -0.2033
-11 -13 -4 -0.6295 0.0685
-11 -13 -3 -0.7979 -0.0098
-11 -13 -2 -1.0104 0.4024
-11 -13 -1 -0.6065 0.0315
-11 -12 -12 0.2214 -0.7206
-11 -12 -11 0.0721 -0.5410
-11 -12 -10 0.5193 -0.8157
-11 -12 -9 0.1491 -0.3999
-11 -12 -8 0.5076 0.0250
-11 -12 -7 0.5774 -0.5778
-11 -12 -6 0.3699 0.2464
-11 -12 -5 0.5735 -0.4281
-11 -12 -4 0.5867 0.1700
-11 -12 -3 0.6894 -0.3855
-11 -12 -2 0.1978 0.1232
-11 -12 -1 1.1855 -0.6725
-11 -11 -13 -0.0592 0.3986
-11 -11 -11 -0.5050 0.9471
-11 -11 -10 -0.3187 -0.2423
-11 -11 -9 -0.6420 0.2140
-11 -11 -8 -0.2780 -0.0917
-11 -11 -7 -0.4745 -0.2041
-11 -11 -6 -0.2733 0.5671
-11 -11 -5 -0.7284 -0.0718
-11 -11 -4 -0.0654 0.4002
-11 -11 -3 -0.7335 -0.1716
-11 -11 -2 -0.3719 0.6278
-11 -11 -1 0.2498 -0.0743
-11 -10 -13 0.4262 0.0139
-11 -10 -12 0.1407 -0.9017
-11 -10 -11 0.6216 0.2386
-11 -10 -10 0.5037 -0.4178
-11 -10 -9 0.1751 0.3585
-11 -10 -8 0.4316 0.3109
-11 -10 -7 -0.0712 -0.3814
-11 -10 -6 0.8079 -0.0722
-11 -10 -5 -0.5144 -0.4325
-11 -10 -4 1.3874 -0.1329
-11 -10 -3 -0.4949 -0.0782
-11 -10 -2 0.8232 -0.0725
-11 -10 -1 -0.1939 -0.3920
-11 -9 -13 0.2380 0.7030
-11 -9 -12 -0.4116 -0.0700
-11 -9 -11 -0.1442 0.7059
-11 -9 -10 -0.1320 0.1187
-11 -9 -8 0.1055 0.5422
-11 -9 -7 -0.4119 -0.0908
-11 -9 -6 0.5635 0.6411
-11 -9 -5 -1.3169 0.3142
-11 -9 -4 0.8941 -0.2059
-11 -9 -3 -1.3346 0.2641
-11 -9 -2 0.5782 -0.2856
-11 -9 -1 -0.6425 0.2413
-11 -8 -14 -0.2919 -0.3468
-11 -8 -13 0.0885 0.1913
-11 -8 -12 -0.2943 -0.6876
-11 -8 -11 -0.0518 -0.3093
-11 -8 -10 0.0759 -0.1775
-11 -8 -9 -0.1491 -0.8548
-11 -8 -8 -0.1366 0.1641
-11 -8 -7 -0.1248 -1.0353
-11 -8 -6 0.5220 -0.1900
-11 -8 -5 -0.7107 -0.3284
-11 -8 -4 1.0354 -0.0852
-11 -8 -3 -0.5986 0.4798
-11 -8 -2 0.5253 -0.3300
-11 -8 -1 -0.3614 0.0367
-11 -7 -14 -0.0768 -0.3196
-11 -7 -13 0.3673 0.3902
-11 -7 -12 -0.0895 -0.2528
-11 -7 -11 0.0845 0.4534
-11 -7 -10 0.2335 0.3861
-11 -7 -9 0.2745 0.0658
-11 -7 -8 -0.0668 1.0342
-11 -7 -7 0.2786 0.1130
-11 -7 -6 0.2279 1.0268
-11 -7 -5 -0.5510 -0.0953
-11 -7 -4 0.6411 0.3464
-11 -7 -3 -0.3182 0.0196
-11 -7 -2 0.3292 0.0249
-11 -7 -1 -0.1823 0.3123
-11 -6 -14 0.1483 -0.1968
-11 -6 -13 0.2728 0.7380
-11 -6 -12 0.0672 -0.5511
-11 -6 -11 0.0375 0.7328
-11 -6 -10 -0.0336 -0.3652
-11 -6 -9 -0.1028 -0.2614
-11 -6 -8 -0.4116 -0.1018
-11 -6 -7 0.0055 -1.0192
-11 -6 -6 0.2524 -0.0046
-11 -6 -5 -0.5647 -1.0172
-11 -6 -4 0.4555 0.1214
-11 -6 -3 -0.6175 -0.6576
-11 -6 -2 0.2464 -0.3908
-11 -6 -1 -0.4864 -0.5263
-11 -5 -14 0.0409 -0.4628
-11 -5 -13 -0.6172 0.5049
-11 -5 -12 -0.1860 -1.2208
-11 -5 -11 -0.3777 0.6578
-11 -5 -10 0.1777 -0.5734
-11 -5 -9 -0.0018 0.1426
-11 -5 -8 0.1592 0.4963
-11 -5 -7 -0.2549 -0.0406
-11 -5 -6 0.3068 0.7606
-11 -5 -5 -0.6712 0.0440
-11 -5 -4 0.6440 0.6757
-11 -5 -3 -0.2642 0.3760
-11 -5 -2 0.6974 0.7336
-11 -5 -1 -0.6734 0.4051
-11 -4 -14 0.7375 -0.1276
-11 -4 -13 0.0470 0.6972
-11 -4 -12 0.6265 -0.5666
-11 -4 -11 -0.1491 0.5298
-11 -4 -10 0.3963 -0.3033
-11 -4 -9 -0.3774 -0.3221
-11 -4 -8 0.3753 0.2452
-11 -4 -7 -0.1565 -0.3345
-11 -4 -6 0.7595 0.1392
-11 -4 -5 -0.2494 0.0287
-11 -4 -4 0.2684 -0.3029
-11 -4 -3 -0.4185 -0.1536
-11 -4 -2 0.0309 -0.5039
-11 -4 -1 -0.5528 -0.5375
-11 -3 -14 -0.3058 -0.1990
-11 -3 -13 -0.3073 0.0594
-11 -3 -12 -0.2260 -0.0994
-11 -3 -11 -0.4030 0.1640
-11 -3 -10 0.3563 0.6423
-11 -3 -9 -0.3560 -0.2132
-11 -3 -8 0.1186 0.4289
-11 -3 -7 -0.5504 -0.6047
-11 -3 -6 -0.1625 -0.3143
-11 -3 -5 -0.4708 -0.2843
-11 -3 -4 -0.1236 -0.5601
-11 -3 -3 0.4589 0.2738
-11 -3 -2 -0.3578 -0.0786
-11 -3 -1 0.7822 0.2312
-11 -2 -14 -0.1501 0.0628
-11 -2 -13 1.0136 0.2691
-11 -2 -12 0.1139 0.1316
-11 -2 -11 0.1578 -0.4684
-11 -2 -10 0.3512 0.1942
-11 -2 -9 -0.0960 -0.6427
-11 -2 -8 0.1456 0.5735
-11 -2 -7 0.5051 0.0819
-11 -2 -6 0.4376 1.0436
-11 -2 -5 0.6348 0.3362
-11 -2 -4 -0.1028 0.5390
-11 -2 -3 1.1164 0.4360
-11 -2 -2 -1.4645 -0.1500
-11 -2 -1 2.1490 0.0477
-11 -1 -13 0.1131 0.1870
-11 -1 -12 -0.8746 -0.5039
-11 -1 -11 -0.4600 -0.2135
-11 -1 -10 -0.0015 0.2783
-11 -1 -9 -0.1143 -0.3162
-11 -1 -8 -0.5268 0.0525
-11 -1 -7 -0.0224 -0.9005
-11 -1 -6 -1.0794 0.0390
-11 -1 -5 -0.3152 -1.3167
-11 -1 -4 -1.3932 0.1967
-11 -1 -3 0.8943 -0.4254
-11 -1 -2 -2.4557 -0.2577
-11 -1 -1 2.2854 0.1405
-10 -22 -5 0.1569 0.3804
-10 -22 -4 0.0118 -0.2630
-10 -22 -2 -0.0534 0.0396
-10 -22 -1 -0.4363 0.0397
-10 -21 -6 -0.0847 -0.1691
-10 -21 -5 -0.1474 0.2726
-10 -21 -4 0.1312 -0.3235
-10 -21 -3 0.0360 0.1614
-10 -21 -2 0.5993 0.0431
-10 -21 -1 -0.0033 -0.2673
-10 -20 -7 0.0029 -0.0346
-10 -20 -6 -0.1192 -0.1946
-10 -20 -5 -0.1166 0.3089
-10 -20 -4 -0.0354 -0.1959
-10 -20 -3 -0.5725 -0.0013
-10 -20 -2 -0.0836 0.1418
-10 -20 -1 -0.8494 -0.1987
-10 -19 -8 -0.0734 0.2004
-10 -19 -7 0.2166 0.1990
-10 -19 -6 0.2113 -0.2536
-10 -19 -5 0.1560 0.2569
-10 -19 -4 0.4596 -0.3037
-10 -19 -3 0.1373 0.1202
-10 -19 -2 0.6850 0.2306
-10 -19 -1 0.1464 -0.2235
-10 -18 -9 0.2993 -0.4753
-10 -18 -8 -0.0356 -0.2034
-10 -18 -7 -0.0002 -0.1197
-10 -18 -6 -0.0749 -0.4705
-10 -18 -5 -0.3783 0.4268
-10 -18 -4 -0.1900 -0.4357
-10 -18 -3 -0.3002 0.0745
-10 -18 -2 -0.2905 -0.1861
-10 -18 -1 -0.2512 -0.1924
-10 -17 -10 -0.3744 0.4663
-10 -17 -9 0.0499 0.1625
-10 -17 -8 -0.5586 0.6067
-10 -17 -7 0.0033 0.6014
-10 -17 -6 -0.0823 -0.0175
-10 -17 -5 0.1336 0.7006
-10 -17 -4 0.0524 -0.2067
-10 -17 -3 0.4886 0.5005
-10 -17 -2 -0.1388 0.2090
-10 -17 -1 0.4044 0.0005
-10 -16 -11 0.2515 -0.0876
-10 -16 -10 -0.1918 0.0840
-10 -16 -9 0.7641 -0.6324
-10 -16 -8 -0.1618 -0.3126
-10 -16 -7 0.7946 -0.4743
-10 -16 -6 -0.1483 -0.7359
-10 -16 -5 0.2864 0.0003
-10 -16 -4 -0.5771 -0.5798
-10 -16 -3 0.1082 -0.1505
-10 -16 -2 -0.6779 -0.2139
-10 -16 -1 -0.2223 -0.1840
-10 -15 -11 0.1865 -0.4372
-10 -15 -10 -0.4797 0.1774
-10 -15 -9 0.2161 -0.4573
-10 -15 -8 -0.8563 0.5930
-10 -15 -7 0.2621 0.1687
-10 -15 -6 -0.6358 0.2399
-10 -15 -5 0.5744 0.5304
-10 -15 -4 -0.0963 0.0495
-10 -15 -3 0.9160 0.3271
-10 -15 -2 0.5165 0.1445
-10 -15 -1 0.7585 -0.1778
-10 -14 -12 -0.0254 0.4551
-10 -14 -11 0.2064 0.3459
-10 -14 -10 -0.0613 1.0289
-10 -14 -9 0.2227 -0.2690
-10 -14 -8 -0.2239 0.7391
-10 -14 -7 0.3686 -0.3915
-10 -14 -6 -0.5914 -0.0369
-10 -14 -5 0.2318 -0.0176
-10 -14 -4 -0.9941 -0.5094
-10 -14 -3 -0.2396 0.0271
-10 -14 -2 -1.1991 -0.0586
-10 -14 -1 -0.7044 0.0017
-10 -13 -12 -0.1278 -0.4832
-10 -13 -11 0.0115 -0.9021
-10 -13 -10 0.3591 -0.3474
-10 -13 -9 0.0520 -0.9052
-10 -13 -8 0.4636 0.2959
-10 -13 -7 0.5390 -0.5282
-10 -13 -6 -0.0339 0.1180
-10 -13 -5 0.9919 0.3127
-10 -13 -4 -0.2159 -0.0421
-10 -13 -3 1.2949 0.4683
-10 -13 -2 -0.1804 0.0464
-10 -13 -1 1.6077 -0.2950
-10 -12 -13 0.2162 0.2197
-10 -12 -12 -0.2223 0.5576
-10 -12 -11 -0.4637 0.7580
-10 -12 -10 -0.1266 0.3143
-10 -12 -9 -1.1872 0.0993
-10 -12 -8 -0.2965 0.2011
-10 -12 -7 -0.6749 -0.1614
-10 -12 -6 -0.8293 0.0674
-10 -12 -5 0.1591 0.0684
-10 -12 -4 -0.9920 -0.6338
-10 -12 -3 0.4627 -0.1822
-10 -12 -2 -1.2671 -0.0512
-10 -12 -1 0.9163 -0.1576
-10 -11 -13 0.3149 -0.3849
-10 -11 -12 0.0924 -0.7537
-10 -11 -11 0.5247 -0.0265
-10 -11 -10 1.2896 -0.4926
-10 -11 -9 0.1449 0.4538
-10 -11 -8 1.4540 0.1757
-10 -11 -7 0.3879 0.0499
-10 -11 -6 0.5199 -0.2085
-10 -11 -5 0.4977 0.4921
-10 -11 -4 0.0441 -0.0522
-10 -11 -3 0.4470 0.7025
-10 -11 -2 -0.3350 0.3045
-10 -11 -1 0.7086 -0.2424
-10 -10 -13 0.3833 0.5409
-10 -10 -12 -0.6002 0.1586
-10 -10 -11 -0.6830 0.7586
-10 -10 -10 -0.2508 -0.2758
-10 -10 -9 -1.6905 -0.1525
-10 -10 -8 -0.0103 -0.1526
-10 -10 -7 -1.2625 0.0841
-10 -10 -6 -0.0780 -0.2566
-10 -10 -5 -0.7057 0.5122
-10 -10 -4 0.1789 -1.2074
-10 -10 -3 -0.5007 -0.0309
-10 -10 -2 0.1263 -0.6186
-10 -10 -1 -0.0349 -0.1046
-10 -9 -13 0.2010 -0.0938
-10 -9 -12 -0.2273 -0.7375
-10 -9 -11 0.2298 -0.2307
-10 -9 -8 1.4409 0.1887
-10 -9 -7 0.0409 -0.2250
-10 -9 -6 0.9863 -0.5855
-10 -9 -4 0.7716 -0.3363
-10 -9 -3 -0.4687 1.4565
-10 -9 -2 0.3413 -0.0338
-10 -9 -1 -0.3240 0.2212
-10 -8 -14 0.0128 -0.1905
-10 -8 -13 0.7088 0.3743
-10 -8 -11 -0.2071 0.3969
-10 -8 -10 0.1295 0.5113
-10 -8 -9 -1.0203 -0.1332
-10 -8 -8 -0.1857 0.7544
-10 -8 -7 -0.7368 0.3324
-10 -8 -5 -0.6784 0.4630
-10 -8 -4 0.5129 -1.0568
-10 -8 -3 -0.2563 0.1306
-10 -8 -2 0.4015 -0.7862
-10 -8 -1 0.1581 0.1904
-10 -7 -14 -0.2940 -0.1329
-10 -7 -13 0.3086 0.6135
-10 -7 -12 -0.3361 -0.4095
-10 -7 -11 0.1130 0.3412
-10 -7 -10 0.3942 -0.1080
-10 -7 -9 0.1315 -0.5480
-10 -7 -8 0.3262 -0.0851
-10 -7 -7 0.4897 -0.8699
-10 -7 -6 0.4476 -0.4530
-10 -7 -5 -0.3035 -0.2288
-10 -7 -4 0.4495 -0.1920
-10 -7 -3 -0.6473 0.3388
-10 -7 -2 -0.0522 -0.4315
-10 -7 -1 -0.4098 -0.1025
-10 -6 -13 -0.1584 0.4941
-10 -6 -12 -0.3981 -1.3124
-10 -6 -11 -0.0837 0.4312
-10 -6 -10 -0.0917 -0.4136
-10 -6 -9 -0.1341 -0.0763
-10 -6 -8 -0.4069 0.8605
-10 -6 -7 -0.2745 0.2047
-10 -6 -6 -0.1401 1.0240
-10 -6 -5 -0.7444 0.3547
-10 -6 -4 0.7002 0.4813
-10 -6 -3 -0.4396 0.5166
-10 -6 -2 0.7234 0.2425
-10 -6 -1 -0.4878 0.5134
-10 -5 -15 -0.2554 0.2090
-10 -5 -14 0.8797 -0.4472
-10 -5 -13 0.1277 1.2332
-10 -5 -12 0.3184 -0.7678
-10 -5 -11 0.0998 0.9885
-10 -5 -10 0.0857 -0.1146
-10 -5 -9 0.0170 -0.4992
-10 -5 -8 0.2811 0.2669
-10 -5 -7 0.3306 -1.0131
-10 -5 -6 0.8614 -0.2304
-10 -5 -5 -0.1959 -0.5374
-10 -5 -4 0.7929 -0.4911
-10 -5 -3 -0.6531 -0.1061
-10 -5 -2 0.7416 -0.6816
-10 -5 -1 -0.7027 -0.3014
-10 -4 -15 -0.7816 0.1526
-10 -4 -14 0.1123 -0.5511
-10 -4 -13 -0.4732 0.6161
-10 -4 -12 -0.0769 -0.6442
-10 -4 -11 0.0509 0.4612
-10 -4 -10 0.2292 0.5447
-10 -4 -9 -0.1609 -0.3459
-10 -4 -8 -0.1599 0.9344
-10 -4 -7 -0.7757 -0.3430
-10 -4 -6 -0.3439 0.1703
-10 -4 -5 -0.9785 0.1596
-10 -4 -4 0.0282 -0.5841
-10 -4 -3 -0.5185 0.4410
-10 -4 -2 -0.0295 -0.4890
-10 -4 -1 -0.6933 0.3136
-10 -3 -14 0.1658 -0.1947
-10 -3 -13 0.4719 0.3084
-10 -3 -12 -0.3417 -0.3907
-10 -3 -11 -0.0355 -0.7122
-10 -3 -10 -0.1555 0.0192
-10 -3 -9 -0.0113 -1.1014
-10 -3 -8 0.3663 0.5734
-10 -3 -7 0.6654 -0.1110
-10 -3 -6 0.9566 0.6072
-10 -3 -5 0.6633 0.8074
-10 -3 -4 0.5575 0.1565
-10 -3 -3 1.1811 1.3994
-10 -3 -2 -0.3115 -0.2365
-10 -3 -1 2.4194 0.4998
-10 -2 -14 -0.9000 -0.3006
-10 -2 -13 0.5404 0.2970
-10 -2 -12 -0.6321 0.1883
-10 -2 -11 0.2684 0.1703
-10 -2 -10 -0.0112 1.0138
-10 -2 -9 -0.0374 -0.2217
-10 -2 -8 -0.7783 0.2163
-10 -2 -7 -0.5176 -0.9094
-10 -2 -6 -1.3508 -0.4521
-10 -2 -5 -0.7544 -1.1491
-10 -2 -4 -1.9965 -1.0140
-10 -2 -3 0.5760 -0.3002
-10 -2 -2 -4.3105 -1.4097
-10 -2 -1 2.1316 0.1536
-10 -1 -13 0.9442 0.4124
-10 -1 -12 -0.2307 -0.5010
-10 -1 -11 0.2815 -0.3067
-10 -1 -10 0.2027 -0.0398
-10 -1 -9 0.5190 -0.3225
-10 -1 -8 0.1569 0.4586
-10 -1 -7 1.6182 0.3708
-10 -1 -6 0.5951 1.4048
-10 -1 -5 2.3772 0.1079
-10 -1 -4 -0.1272 1.2488
-10 -1 -3 4.3324 0.8224
-10 -1 -2 -2.1899 0.0711
-10 -1 -1 6.8918 0.7915
-9 -22 -5 -0.1360 -0.0145
-9 -22 -4 -0.1117 -0.3208
-9 -22 -3 0.0373 0.1571
-9 -22 -2 0.4269 -0.3062
-9 -22 -1 -0.2271 -0.1923
-9 -21 -6 -0.0647 0.1776
-9 -21 -5 0.1727 0.1439
-9 -21 -4 -0.0398 -0.0569
-9 -21 -3 -0.4097 0.1893
-9 -21 -2 0.0271 0.1007
-9 -21 -1 -0.7971 0.0558
-9 -20 -7 0.3722 -0.0935
-9 -20 -6 -0.1011 -0.0931
-9 -20 -5 0.2701 -0.2234
-9 -20 -4 0.2957 -0.1061
-9 -20 -3 0.0923 -0.1742
-9 -20 -2 0.8695 0.1189
-9 -20 -1 -0.0840 -0.3390
-9 -19 -9 0.2678 -0.0685
-9 -19 -8 -0.2528 -0.1814
-9 -19 -7 0.1262 0.0998
-9 -19 -6 -0.3342 0.0704
-9 -19 -5 -0.2774 0.2265
-9 -19 -4 -0.2251 0.2414
-9 -19 -3 -0.6118 -0.1168
-9 -19 -2 -0.0625 0.3097
-9 -19 -1 -0.6749 -0.1956
-9 -18 -10 -0.2051 0.2127
-9 -18 -9 0.1100 0.3590
-9 -18 -8 -0.4551 0.1570
-9 -18 -7 0.1155 0.4568
-9 -18 -6 0.1027 -0.1907
-9 -18 -5 0.1427 0.0678
-9 -18 -4 0.4137 -0.0313
-9 -18 -3 0.2730 -0.1885
-9 -18 -2 0.1333 0.3541
-9 -18 -1 0.1466 -0.3045
-9 -17 -10 -0.2301 -0.2978
-9 -17 -9 0.6541 -0.3616
-9 -17 -8 -0.1644 -0.7876
-9 -17 -7 0.5905 -0.0916
-9 -17 -6 0.0111 -0.6541
-9 -17 -5 -0.1901 0.0218
-9 -17 -4 -0.3621 0.0280
-9 -17 -3 -0.0281 -0.4193
-9 -17 -2 -0.4559 0.2900
-9 -17 -1 0.2217 -0.3252
-9 -16 -11 0.3303 -0.0424
-9 -16 -10 -0.3758 0.2407
-9 -16 -9 0.4060 0.4440
-9 -16 -8 -1.1070 0.3073
-9 -16 -7 0.1174 0.8865
-9 -16 -6 -0.4456 0.0434
-9 -16 -5 0.3303 0.2718
-9 -16 -4 0.1764 0.3817
-9 -16 -3 0.7487 -0.4013
-9 -16 -2 0.1907 0.5691
-9 -16 -1 0.4688 -0.4594
-9 -15 -12 -0.2629 0.2826
-9 -15 -11 0.1431 0.0252
-9 -15 -10 -0.4350 0.3792
-9 -15 -9 0.8263 -0.3778
-9 -15 -8 -0.3057 -0.2386
-9 -15 -7 0.8833 -0.1445
-9 -15 -6 -0.3280 -0.3650
-9 -15 -5 0.0376 -0.1723
-9 -15 -4 -0.8623 0.2648
-9 -15 -3 -0.4055 -0.5278
-9 -15 -2 -0.9420 0.6244
-9 -15 -1 -0.8469 -0.2674
-9 -14 -12 -0.2747 -0.1726
-9 -14 -11 0.3230 -0.8387
-9 -14 -10 -0.3721 0.1952
-9 -14 -9 0.3119 -0.6501
-9 -14 -8 -0.5336 0.3642
-9 -14 -7 0.3479 -0.1241
-9 -14 -6 -0.3093 0.0700
-9 -14 -5 0.8153 -0.0726
-9 -14 -4 -0.0049 0.3228
-9 -14 -3 1.2912 -0.3945
-9 -14 -2 0.2697 0.3814
-9 -14 -1 1.3185 -0.6033
-9 -13 -12 -0.2957 0.7261
-9 -13 -11 0.3394 0.1586
-9 -13 -10 -0.3289 0.8023
-9 -13 -9 -0.0891 -0.3327
-9 -13 -8 -0.3120 0.4092
-9 -13 -7 0.0555 -0.2146
-9 -13 -6 -0.7243 0.2231
-9 -13 -5 0.4512 -0.1625
-9 -13 -4 -1.2395 0.0156
-9 -13 -3 0.6304 -0.5109
-9 -13 -2 -1.5715 0.4700
-9 -13 -1 0.5700 -0.2660
-9 -12 -13 0.3060 -0.5539
-9 -12 -12 -0.6095 -0.2798
-9 -12 -11 0.5717 -0.5603
-9 -12 -10 0.3133 -0.0376
-9 -12 -9 0.2751 0.0113
-9 -12 -8 0.6207 0.3341
-9 -12 -7 0.5046 -0.1317
-9 -12 -6 -0.2650 0.0544
-9 -12 -5 0.9430 0.0779
-9 -12 -4 -0.9259 0.4587
-9 -12 -3 1.1430 0.0579
-9 -12 -2 -0.9952 0.6821
-9 -12 -1 1.3433 -0.5523
-9 -11 -13 0.8394 0.1485
-9 -11 -12 -0.7057 0.5861
-9 -11 -11 0.0436 0.3842
-9 -11 -10 -0.4058 -0.1372
-9 -11 -9 -1.1337 -0.2953
-9 -11 -8 -0.1404 -0.3009
-9 -11 -7 -0.5874 -0.1043
-9 -11 -6 -0.5302 -0.1600
-9 -11 -5 0.5487 -0.0537
-9 -11 -4 -0.5799 -0.6664
-9 -11 -3 0.6624 -0.7892
-9 -11 -2 -0.4992 0.0422
-9 -11 -1 0.5219 -0.4896
-9 -10 -14 -0.7640 0.0534
-9 -10 -13 0.2942 -0.6527
-9 -10 -12 -0.7170 -0.4656
-9 -10 -11 0.4536 -0.4234
-9 -10 -10 0.9333 0.0227
-9 -10 -9 -0.0850 0.1030
-9 -10 -8 1.4631 0.3215
-9 -10 -7 0.1398 0.2309
-9 -10 -6 0.2255 -0.2645
-9 -10 -4 -0.3891 0.3891
-9 -10 -3 -0.0005 1.0101
-9 -10 -2 -0.1795 0.7995
-9 -10 -1 -0.1930 -0.1858
-9 -9 -14 0.1861 0.4398
-9 -9 -13 1.1176 0.1771
-9 -9 -12 -0.1803 0.7059
-9 -9 -11 -0.0415 0.2956
-9 -9 -10 0.1522 0.5563
-9 -9 -9 -1.6132 -0.2599
-9 -9 -8 0.0205 0.1290
-9 -9 -7 -0.9388 0.2336
-9 -9 -6 -0.3411 -0.7334
-9 -9 -4 0.0281 -1.5298
-9 -9 -3 0.4801 -0.7210
-9 -9 -2 0.3911 -0.5883
-9 -9 -1 0.4806 -0.3740
-9 -8 -14 -0.7586 0.1321
-9 -8 -13 0.0046 -0.2851
-9 -8 -11 -0.0722 -0.4228
-9 -8 -10 0.9543 -0.0881
-9 -8 -9 -0.0703 -0.4217
-9 -8 -8 1.1800 -0.1553
-9 -8 -7 0.5843 0.0447
-9 -8 -4 -0.5689 0.3005
-9 -8 -2 -1.0244 0.3818
-9 -8 -1 -0.6571 -0.1728
-9 -7 -14 0.0650 -0.1268
-9 -7 -13 0.4458 0.2394
-9 -7 -12 -0.1932 -0.5162
-9 -7 -11 -0.1860 0.3734
-9 -7 -10 0.0336 -0.1644
-9 -7 -9 -1.0043 0.1047
-9 -7 -8 -0.5807 0.3483
-9 -7 -7 -0.3463 0.5487
-9 -7 -6 -0.6083 0.1569
-9 -7 -5 0.1784 0.3148
-9 -7 -4 0.4580 -0.1368
-9 -7 -3 0.7546 -0.0915
-9 -7 -2 0.9101 0.2103
-9 -7 -1 1.1647 0.1410
-9 -6 -15 -0.2662 0.0391
-9 -6 -13 0.0852 0.9970
-9 -6 -12 0.1523 -0.7059
-9 -6 -11 0.1218 1.1008
-9 -6 -10 0.6213 -0.1709
-9 -6 -9 0.2117 -0.1208
-9 -6 -8 0.6146 -0.1001
-9 -6 -7 0.8189 -0.7107
-9 -6 -6 0.2473 -0.6369
-9 -6 -5 0.0195 -0.4834
-9 -6 -4 -0.0652 -0.3051
-9 -6 -3 -1.0404 -0.3912
-9 -6 -2 -0.4695 -0.3315
-9 -6 -1 -1.4805 -0.5340
-9 -5 -15 -1.0732 0.3324
-9 -5 -14 0.3451 -0.6586
-9 -5 -13 -0.6520 0.8444
-9 -5 -12 -0.0541 -1.2428
-9 -5 -11 -0.1522 0.5374
-9 -5 -10 0.0957 -0.1378
-9 -5 -9 -0.6061 -0.3045
-9 -5 -8 -0.4862 0.8230
-9 -5 -7 -0.6006 0.1994
-9 -5 -6 -0.6470 0.4626
-9 -5 -5 -0.4176 0.5585
-9 -5 -4 0.4720 -0.0184
-9 -5 -3 -0.1044 0.2274
-9 -5 -2 1.3869 0.0994
-9 -5 -1 -0.1955 0.1529
-9 -4 -14 0.7635 -0.5084
-9 -4 -13 0.0333 0.8193
-9 -4 -12 -0.3157 -0.6709
-9 -4 -11 -0.0779 -0.0010
-9 -4 -10 -0.0371 0.1226
-9 -4 -9 0.0976 -0.9439
-9 -4 -8 0.5914 0.4272
-9 -4 -7 0.8943 -0.3669
-9 -4 -6 0.7041 -0.1977
-9 -4 -5 0.4363 0.6301
-9 -4 -4 0.4464 -0.1206
-9 -4 -3 -0.2883 1.0820
-9 -4 -2 0.1576 0.0904
-9 -4 -1 -0.3082 0.2377
-9 -3 -14 -0.4127 -0.6385
-9 -3 -13 0.5839 0.3946
-9 -3 -12 -0.3807 -0.0672
-9 -3 -11 0.8195 0.1600
-9 -3 -10 -0.0516 1.0027
-9 -3 -9 -0.0577 -0.4021
-9 -3 -8 -0.9444 0.4452
-9 -3 -7 -0.6242 -0.4246
-9 -3 -6 -1.3170 -0.6237
-9 -3 -5 -0.7490 -0.3304
-9 -3 -4 -1.1417 -1.6109
-9 -3 -3 0.0198 -0.2910
-9 -3 -2 -2.5287 -1.6933
-9 -3 -1 1.0204 -0.0945
-9 -2 -15 0.4812 0.3184
-9 -2 -14 -0.5068 -0.2932
-9 -2 -13 0.8457 0.4771
-9 -2 -12 -1.0250 -0.3544
-9 -2 -11 0.3131 -0.5737
-9 -2 -10 -0.3376 0.0384
-9 -2 -9 0.7729 -0.5283
-9 -2 -8 0.2949 0.4098
-9 -2 -7 1.9832 0.4660
-9 -2 -6 0.7390 0.9101
-9 -2 -5 2.4183 0.9150
-9 -2 -4 0.1331 0.8969
-9 -2 -3 4.5588 1.9464
-9 -2 -2 -1.7422 0.2396
-9 -2 -1 8.0500 1.1059
-9 -1 -14 -0.5070 -0.2158
-9 -1 -13 0.9397 0.7869
-9 -1 -12 -0.5126 -0.0157
-9 -1 -11 0.3773 0.3971
-9 -1 -10 -0.4751 0.5892
-9 -1 -9 -0.1961 -0.0904
-9 -1 -8 -1.7625 -0.3564
-9 -1 -7 -0.5682 -0.6675
-9 -1 -6 -2.9202 -0.5781
-9 -1 -5 -0.3813 -1.4204
-9 -1 -4 -4.7484 -0.7675
-9 -1 -3 1.3624 -0.9002
-9 -1 -2 -8.5681 -1.6211
-9 -1 -1 3.0148 -0.1089
-8 -23 -2 0.0626 -0.3999
-8 -23 -1 -0.2102 -0.2220
-8 -22 -5 0.2054 0.0175
-8 -22 -4 0.0328 -0.1177
-8 -22 -3 -0.0314 0.4246
-8 -22 -2 0.0044 0.0267
-8 -22 -1 -0.1604 0.2906
-8 -21 -7 0.1991 -0.4533
-8 -21 -6 -0.1111 0.2142
-8 -21 -5 0.1966 -0.3545
-8 -21 -4 -0.0313 -0.1761
-8 -21 -3 0.1439 -0.0209
-8 -21 -2 0.3296 -0.2989
-8 -21 -1 -0.0154 -0.2824
-8 -20 -8 -0.2371 0.2624
-8 -20 -7 0.0563 -0.1192
-8 -20 -6 -0.4908 0.7160
-8 -20 -5 0.0343 0.0271
-8 -20 -4 -0.3806 0.4741
-8 -20 -3 -0.3369 0.1406
-8 -20 -2 -0.1173 0.3580
-8 -20 -1 -0.3117 0.0704
-8 -19 -9 0.0392 0.0024
-8 -19 -8 -0.1207 0.0319
-8 -19 -7 0.3008 -0.3992
-8 -19 -6 0.0462 -0.0678
-8 -19 -5 0.4436 -0.7162
-8 -19 -4 0.2843 -0.1067
-8 -19 -3 0.3193 -0.5163
-8 -19 -2 0.0743 0.0236
-8 -19 -1 0.1064 -0.4309
-8 -18 -10 -0.1101 -0.1478
-8 -18 -9 0.1203 -0.1011
-8 -18 -8 -0.1141 -0.2346
-8 -18 -7 0.1314 0.0270
-8 -18 -6 -0.1433 0.2455
-8 -18 -5 -0.3868 0.0968
-8 -18 -4 -0.4119 0.5626
-8 -18 -3 -0.0250 -0.1206
-8 -18 -2 -0.3778 0.5012
-8 -18 -1 0.6803 -0.1271
-8 -17 -11 0.2831 0.1032
-8 -17 -10 0.2511 0.0545
-8 -17 -9 0.3652 0.5685
-8 -17 -8 -0.4510 0.0104
-8 -17 -7 0.0729 0.5639
-8 -17 -6 0.1523 -0.0894
-8 -17 -5 0.2923 -0.2608
-8 -17 -4 0.4795 0.2355
-8 -17 -3 0.6485 -0.6950
-8 -17 -2 -0.2849 0.3918
-8 -17 -1 0.3961 -0.5297
-8 -16 -11 -0.6042 0.0560
-8 -16 -10 -0.5925 -0.2508
-8 -16 -9 0.2544 -0.0424
-8 -16 -8 -0.3796 -0.8209
-8 -16 -7 0.3979 0.1860
-8 -16 -6 -0.2472 -0.2982
-8 -16 -5 -0.6784 -0.1356
-8 -16 -4 -0.7364 0.8069
-8 -16 -3 -0.6464 -0.5920
-8 -16 -2 -0.7194 0.9590
-8 -16 -1 -0.3975 -0.2826
-8 -15 -12 0.3803 -0.1034
-8 -15 -11 0.5529 -0.2970
-8 -15 -10 0.1262 0.1423
-8 -15 -9 0.5953 0.1676
-8 -15 -8 -0.4601 -0.0468
-8 -15 -7 0.3348 0.4226
-8 -15 -6 0.3111 -0.1586
-8 -15 -5 0.6337 -0.5510
-8 -15 -4 1.0203 0.4752
-8 -15 -3 1.0398 -1.2532
-8 -15 -2 0.9608 0.5038
-8 -15 -1 0.8137 -0.8812
-8 -14 -12 -0.4254 0.4135
-8 -14 -11 0.0878 -0.0856
-8 -14 -10 -0.6465 0.5255
-8 -14 -9 0.1857 -0.2707
-8 -14 -8 -0.4368 0.0047
-8 -14 -7 -0.0172 0.1342
-8 -14 -6 -0.4813 0.3708
-8 -14 -5 -0.6292 -0.1415
-8 -14 -4 -1.0347 1.1120
-8 -14 -3 -0.5812 -0.5875
-8 -14 -2 -1.3203 1.2736
-8 -14 -1 -0.6468 -0.2326
-8 -13 -13 0.3386 -0.2506
-8 -13 -12 -0.6843 -0.0114
-8 -13 -11 0.7555 -0.5953
-8 -13 -10 -0.3213 0.2408
-8 -13 -9 0.5548 -0.1305
-8 -13 -8 -0.0115 0.1747
-8 -13 -7 0.4152 -0.2955
-8 -13 -6 0.1291 -0.0350
-8 -13 -5 0.7613 -0.9343
-8 -13 -4 -0.0239 0.5417
-8 -13 -3 1.2505 -1.2573
-8 -13 -2 -0.1378 0.5788
-8 -13 -1 1.4824 -1.0302
-8 -12 -13 1.0330 -0.0774
-8 -12 -11 0.8959 0.0213
-8 -12 -10 -0.7543 -0.0117
-8 -12 -9 0.1211 -0.3262
-8 -12 -8 -0.3479 -0.1501
-8 -12 -7 0.0162 -0.0820
-8 -12 -6 -0.4694 0.7215
-8 -12 -5 0.3517 -0.3447
-8 -12 -4 -0.7587 1.0347
-8 -12 -3 0.3104 -0.9222
-8 -12 -2 -0.9404 1.2796
-8 -12 -1 -0.0946 -0.4423
-8 -11 -13 0.5810 -0.5653
-8 -11 -12 -1.4653 -0.1251
-8 -11 -11 0.8893 -0.3364
-8 -11 -10 -0.5538 0.2133
-8 -11 -9 0.2776 0.3149
-8 -11 -8 0.1528 0.3852
-8 -11 -7 0.1527 -0.1837
-8 -11 -6 -0.3043 0.1795
-8 -11 -4 -0.3364 0.9556
-8 -11 -3 0.3110 -0.8758
-8 -11 -2 0.5151 1.0602
-8 -11 -1 0.1283 -0.9819
-8 -10 -14 0.0275 0.5982
-8 -10 -13 1.6265 -0.0709
-8 -10 -12 -0.5450 0.8981
-8 -10 -11 1.2604 0.0290
-8 -10 -9 -0.1805 -0.4852
-8 -10 -8 0.0876 -0.0338
-8 -10 -7 -0.0929 -0.2301
-8 -10 -4 -0.1680 0.1403
-8 -10 -3 -0.1316 -1.4850
-8 -10 -2 0.2964 0.7986
-8 -10 -1 -1.1036 -0.7036
-8 -9 -14 -1.1713 0.3993
-8 -9 -13 -0.0574 -0.9693
-8 -9 -9 -0.1376 -0.4304
-8 -9 -8 0.4580 0.2119
-8 -9 -7 0.2437 0.1227
-8 -9 -6 -0.4153 0.2508
-8 -9 -4 -0.6181 1.3827
-8 -9 -3 -0.1850 -0.2523
-8 -9 -2 -0.0094 1.2796
-8 -9 -1 -0.8196 -0.7840
-8 -8 -14 0.3449 0.6606
-8 -8 -13 1.3213 -0.1217
-8 -8 -12 0.0438 0.8435
-8 -8 -11 0.7404 0.2369
-8 -8 -9 -0.5157 0.0690
-8 -8 -8 -0.3381 0.0522
-8 -8 -7 0.0907 0.1576
-8 -8 -6 -0.5664 -0.0982
-8 -8 -3 0.8695 -1.3070
-8 -8 -2 0.7611 0.9028
-8 -8 -1 0.7440 -0.4216
-8 -7 -15 -0.3961 -0.4690
-8 -7 -14 0.0212 0.0463
-8 -7 -13 -0.2351 -0.2330
-8 -7 -12 -0.4771 -0.5128
-8 -7 -10 0.4328 -0.3799
-8 -7 -9 0.1329 -0.0469
-8 -7 -8 0.3864 -0.2795
-8 -7 -7 0.8080 -0.2253
-8 -7 -6 -0.4695 -0.1186
-8 -7 -5 0.1871 -0.6136
-8 -7 -4 -0.7903 0.7911
-8 -7 -3 -0.8403 -1.1537
-8 -7 -2 -1.0633 0.4562
-8 -7 -1 -1.6612 -1.0492
-8 -6 -15 -0.9877 0.1057
-8 -6 -14 0.6280 0.1197
-8 -6 -13 -0.6018 0.7412
-8 -6 -11 -0.4012 0.7507
-8 -6 -10 0.2346 -0.2626
-8 -6 -9 -0.8700 0.1129
-8 -6 -8 -0.4992 0.3771
-8 -6 -7 -0.1017 0.3641
-8 -6 -6 -0.6991 0.6233
-8 -6 -5 0.4526 -0.0115
-8 -6 -4 0.5712 1.0434
-8 -6 -3 0.7206 -0.5294
-8 -6 -2 2.0969 1.3080
-8 -6 -1 0.7360 -0.0979
-8 -5 -14 1.3732 -0.5799
-8 -5 -13 -0.5398 0.4927
-8 -5 -12 0.3767 -0.9530
-8 -5 -11 -0.4185 0.3578
-8 -5 -10 0.7513 -0.1698
-8 -5 -9 -0.0945 -0.4639
-8 -5 -8 0.7342 0.0420
-8 -5 -7 0.8496 -0.4246
-8 -5 -6 -0.1040 -0.4250
-8 -5 -5 0.2076 -0.2486
-8 -5 -4 -0.4249 0.3442
-8 -5 -3 -1.6747 -0.5667
-8 -5 -2 -0.4289 0.6198
-8 -5 -1 -3.4482 -0.7198
-8 -4 -14 0.2577 -0.5119
-8 -4 -13 -0.2661 0.5727
-8 -4 -12 0.1721 -0.3559
-8 -4 -11 0.0834 0.3264
-8 -4 -10 0.2746 0.5101
-8 -4 -9 -0.7235 -0.2993
-8 -4 -8 -0.7199 0.4295
-8 -4 -7 -0.2713 0.1210
-8 -4 -6 -1.0336 -0.3063
-8 -4 -5 0.1808 0.0258
-8 -4 -4 0.3299 -0.6522
-8 -4 -3 0.4202 -0.8020
-8 -4 -2 1.6199 -0.2903
-8 -4 -1 0.7479 -0.4950
-8 -3 -15 0.2689 0.6584
-8 -3 -14 0.2457 -0.1805
-8 -3 -13 0.4655 0.7641
-8 -3 -12 -0.7692 -0.2040
-8 -3 -11 0.0798 -0.1713
-8 -3 -10 0.0731 0.1817
-8 -3 -9 0.6268 -0.4311
-8 -3 -8 0.4036 0.2310
-8 -3 -7 1.8082 0.2773
-8 -3 -6 0.0081 0.1384
-8 -3 -5 1.4037 0.8714
-8 -3 -4 -0.3680 0.5909
-8 -3 -3 1.4710 1.4144
-8 -3 -2 -1.5411 0.6564
-8 -3 -1 2.7219 0.4927
-8 -2 -15 -0.2661 0.1602
-8 -2 -14 -0.6445 -0.8547
-8 -2 -13 0.7855 0.2967
-8 -2 -12 -0.5338 -0.4942
-8 -2 -11 0.4593 0.0625
-8 -2 -10 -0.4689 0.2524
-8 -2 -9 -0.3939 -0.1640
-8 -2 -8 -1.9813 -0.2327
-8 -2 -7 -0.1991 -0.3198
-8 -2 -6 -2.9303 -0.4917
-8 -2 -5 0.2899 -0.8106
-8 -2 -4 -3.8188 -1.0483
-8 -2 -3 1.6924 -0.7538
-8 -2 -2 -6.9773 -1.4614
-8 -2 -1 3.4292 -0.2418
-8 -1 -15 0.0750 0.0399
-8 -1 -13 0.3971 0.4898
-8 -1 -12 -0.8642 -0.7009
-8 -1 -11 0.3798 -0.0858
-8 -1 -10 0.1875 -0.1188
-8 -1 -9 1.2888 0.0123
-8 -1 -8 0.5050 0.0648
-8 -1 -7 2.9619 0.6280
-8 -1 -6 0.0589 0.6806
-8 -1 -5 4.3373 0.3985
-8 -1 -4 -1.2088 1.1668
-8 -1 -3 7.2930 1.0833
-8 -1 -2 -2.6002 0.6401
-8 -1 -1 10.6513 0.8090
-7 -23 -2 0.0650 0.0436
-7 -23 -1 0.0266 0.2811
-7 -22 -5 -0.1412 0.1111
-7 -22 -4 -0.1556 -0.2577
-7 -22 -3 0.0098 0.2750
-7 -22 -2 -0.0880 -0.4471
-7 -22 -1 0.0129 -0.2241
-7 -21 -7 -0.1301 -0.2556
-7 -21 -6 -0.2623 0.4342
-7 -21 -5 0.1271 0.0075
-7 -21 -4 -0.2170 0.0089
-7 -21 -3 0.0484 0.3638
-7 -21 -2 -0.1621 0.1283
-7 -21 -1 0.2578 0.2454
-7 -20 -8 0.0562 0.0492
-7 -20 -7 0.2897 -0.6035
-7 -20 -6 -0.0964 0.0288
-7 -20 -5 0.4857 -0.6781
-7 -20 -4 -0.0701 -0.2619
-7 -20 -3 0.3324 -0.2962
-7 -20 -2 -0.2918 -0.3078
-7 -20 -1 0.1903 -0.4133
-7 -19 -9 -0.0584 -0.0127
-7 -19 -8 0.0681 0.3319
-7 -19 -7 0.0636 -0.0007
-7 -19 -6 -0.2654 0.8315
-7 -19 -5 -0.0356 0.2352
-7 -19 -4 -0.4763 0.5568
-7 -19 -3 0.3499 0.3625
-7 -19 -2 -0.3927 0.4326
-7 -19 -1 1.2209 0.1535
-7 -18 -10 0.3696 0.0356
-7 -18 -9 -0.0107 0.0062
-7 -18 -8 -0.0507 0.0112
-7 -18 -7 -0.0873 -0.3097
-7 -18 -6 0.1778 -0.1446
-7 -18 -5 0.3210 -0.5259
-7 -18 -4 0.0618 -0.3206
-7 -18 -3 0.6564 -0.3658
-7 -18 -2 -1.1676 -0.2107
-7 -18 -1 0.5591 -0.4054
-7 -17 -11 -0.8254 -0.0093
-7 -17 -10 -0.3517 -0.1311
-7 -17 -9 -0.3198 0.0388
-7 -17 -8 -0.0966 -0.3170
-7 -17 -7 -0.0331 0.1702
-7 -17 -6 -0.1737 0.0753
-7 -17 -5 -0.6440 0.1971
-7 -17 -4 -0.7538 0.3924
-7 -17 -3 0.0967 0.1085
-7 -17 -2 -0.8401 0.4554
-7 -17 -1 1.1689 0.0500
-7 -16 -11 0.4987 -0.0338
-7 -16 -10 0.9564 0.0474
-7 -16 -9 0.4680 0.3271
-7 -16 -8 0.1450 -0.1963
-7 -16 -7 0.3104 0.3902
-7 -16 -6 0.6721 -0.3057
-7 -16 -5 0.7091 -0.2899
-7 -16 -4 1.0865 -0.0182
-7 -16 -3 1.0734 -0.6615
-7 -16 -2 0.2611 0.0059
-7 -16 -1 0.8210 -0.5627
-7 -15 -12 -0.4113 0.1054
-7 -15 -11 -0.9459 -0.1608
-7 -15 -10 -0.6230 0.1912
-7 -15 -9 -0.6818 -0.1170
-7 -15 -8 -0.4721 -0.2425
-7 -15 -7 -0.5511 0.3673
-7 -15 -6 -0.5961 0.0895
-7 -15 -5 -1.3896 0.2254
-7 -15 -4 -1.0999 0.7398
-7 -15 -3 -1.0994 -0.0048
-7 -15 -2 -1.2217 0.8623
-7 -15 -1 -0.6900 0.0726
-7 -14 -11 0.6788 -0.3725
-7 -14 -10 0.6998 0.3157
-7 -14 -9 0.5661 -0.1377
-7 -14 -8 0.6633 -0.0405
-7 -14 -7 0.4867 -0.1208
-7 -14 -6 1.0767 -0.4412
-7 -14 -5 0.8493 -0.7001
-7 -14 -4 1.1234 -0.1748
-7 -14 -3 1.3652 -1.0038
-7 -14 -2 0.5231 -0.1536
-7 -14 -1 1.5391 -0.8360
-7 -13 -13 0.4570 -0.0772
-7 -13 -12 -0.7276 0.0911
-7 -13 -10 -0.7173 0.0224
-7 -13 -9 -0.4614 -0.1985
-7 -13 -8 -0.4498 -0.0352
-7 -13 -7 -0.6618 0.3012
-7 -13 -6 -0.5556 0.7450
-7 -13 -5 -0.8114 0.3714
-7 -13 -4 -0.9983 1.1327
-7 -13 -3 -0.4495 0.1764
-7 -13 -2 -1.4440 1.2416
-7 -13 -1 -0.3600 0.1457
-7 -12 -13 0.5893 0.0571
-7 -12 -12 -0.9735 -0.0874
-7 -12 -11 0.9179 0.1756
-7 -12 -10 -0.3582 0.0738
-7 -12 -9 0.4585 0.4804
-7 -12 -8 0.1806 0.0317
-7 -12 -7 0.3172 -0.4135
-7 -12 -6 0.3557 -0.3151
-7 -12 -4 0.5803 -0.0930
-7 -12 -3 0.8162 -1.4719
-7 -12 -2 1.0210 -0.0415
-7 -12 -1 0.9669 -1.1571
-7 -11 -14 -0.1477 0.0984
-7 -11 -13 1.3780 -0.0422
-7 -11 -12 -0.7984 0.0593
-7 -11 -11 1.4373 0.1290
-7 -11 -10 -0.5494 -0.2867
-7 -11 -9 0.4897 -0.2407
-7 -11 -8 -0.0859 -0.1622
-7 -11 -7 0.0778 -0.0173
-7 -11 -6 -0.2477 1.0064
-7 -11 -4 -0.4107 1.4243
-7 -11 -3 -1.3404 -0.3901
-7 -11 -2 -0.2766 1.5945
-7 -11 -1 -2.5004 -0.1284
-7 -10 -13 0.1891 -0.4057
-7 -10 -12 -2.1879 -0.0876
-7 -10 -9 0.0574 -0.0047
-7 -10 -8 -0.4342 0.2805
-7 -10 -7 0.0905 -0.3092
-7 -10 -4 0.6256 0.8463
-7 -10 -3 0.2252 -1.4282
-7 -10 -2 2.1541 0.6722
-7 -10 -1 -0.3176 -1.2400
-7 -9 -14 0.3054 0.5215
-7 -9 -13 2.0483 -0.2413
-7 -9 -8 -0.1990 0.0231
-7 -9 -7 0.5472 -0.2042
-7 -9 -4 -0.3711 1.1684
-7 -9 -3 -0.8587 -1.1438
-7 -9 -2 0.0483 1.5416
-7 -9 -1 -1.9857 -0.3315
-7 -8 -14 -0.9051 0.4095
-7 -8 -13 -0.1888 -0.7969
-7 -8 -12 -1.8783 -0.2999
-7 -8 -11 0.1296 -0.8117
-7 -8 -10 -1.1656 -0.3941
-7 -8 -9 0.3026 -0.1703
-7 -8 -7 0.6196 -0.2480
-7 -8 -6 -0.5076 0.4635
-7 -8 -4 0.0986 1.1352
-7 -8 -3 0.1273 -1.7192
-7 -8 -2 0.8081 0.4610
-7 -8 -1 -0.4799 -1.2967
-7 -7 -15 -0.3296 -0.2890
-7 -7 -13 0.4495 0.4154
-7 -7 -12 0.1996 0.4661
-7 -7 -11 0.8383 0.8384
-7 -7 -10 -0.0388 0.1957
-7 -7 -9 0.3457 0.3264
-7 -7 -8 -0.5686 0.1966
-7 -7 -7 0.4558 -0.0101
-7 -7 -6 -0.5456 1.0372
-7 -7 -5 0.0860 -0.6818
-7 -7 -4 0.0078 1.8896
-7 -7 -3 -0.3710 -0.6095
-7 -7 -2 0.7622 1.8896
-7 -7 -1 -0.9979 0.0728
-7 -6 -15 -0.7203 -0.6614
-7 -6 -14 1.0818 -0.3376
-7 -6 -13 -0.7641 -0.4370
-7 -6 -12 0.0564 -1.1010
-7 -6 -11 -0.4502 -0.1895
-7 -6 -10 0.1582 -0.5768
-7 -6 -9 -0.0398 -0.3140
-7 -6 -8 0.0695 -0.0870
-7 -6 -7 0.6022 -0.6285
-7 -6 -6 -0.1981 0.0423
-7 -6 -5 0.1300 -1.3679
-7 -6 -4 0.1678 0.7072
-7 -6 -3 -1.1601 -1.8905
-7 -6 -2 0.8488 0.3723
-7 -6 -1 -3.1043 -1.3216
-7 -5 -14 0.8197 0.3713
-7 -5 -13 -0.8594 0.7259
-7 -5 -12 0.7144 0.2919
-7 -5 -11 -0.3100 0.7520
-7 -5 -10 0.5830 0.5245
-7 -5 -9 -0.6641 0.0334
-7 -5 -8 -0.2941 0.4443
-7 -5 -7 0.0535 0.2291
-7 -5 -6 -0.5060 0.4237
-7 -5 -5 0.1668 -0.2203
-7 -5 -4 0.8982 0.9135
-7 -5 -3 -0.3970 -0.9975
-7 -5 -2 3.4852 1.2568
-7 -5 -1 -1.2233 -0.4521
-7 -4 -15 -0.1069 0.2063
-7 -4 -13 -0.2391 0.0963
-7 -4 -12 0.1425 -0.3752
-7 -4 -11 -0.4836 -0.3985
-7 -4 -10 0.6795 -0.0451
-7 -4 -9 0.0972 -0.4715
-7 -4 -8 0.3286 -0.0623
-7 -4 -7 1.0407 -0.0415
-7 -4 -6 -0.4287 -0.2209
-7 -4 -5 0.1420 0.0266
-7 -4 -4 -0.1614 0.6803
-7 -4 -3 -1.7006 -0.2193
-7 -4 -2 0.0021 0.9495
-7 -3 -15 -1.1018 -0.1034
-7 -3 -14 -0.5209 -0.8070
-7 -3 -13 -0.1851 -0.0920
-7 -3 -12 -0.1700 -0.4019
-7 -3 -11 -0.3525 -0.0772
-7 -3 -10 -0.1032 0.1819
-7 -3 -9 -0.7332 -0.0876
-7 -3 -8 -1.5087 0.0383
-7 -3 -7 0.3632 0.1278
-7 -3 -6 -1.7949 -0.0407
-7 -3 -5 0.6881 -0.2635
-7 -3 -4 -1.0626 -0.2757
-7 -3 -3 1.1379 -0.6564
-7 -3 -2 -1.2750 -0.2004
-7 -3 -1 2.1855 -0.3138
-7 -2 -15 0.5319 0.6423
-7 -2 -14 0.3256 -0.0507
-7 -2 -13 0.5854 1.0162
-7 -2 -12 0.0547 -0.0867
-7 -2 -11 0.1871 0.4412
-7 -2 -10 0.9336 0.0717
-7 -2 -9 1.1783 0.0710
-7 -2 -8 0.2935 -0.0631
-7 -2 -7 2.8493 -0.0157
-7 -2 -6 -0.8668 0.2511
-7 -2 -5 3.3149 -0.1253
-7 -2 -4 -1.6951 0.5961
-7 -2 -3 4.8388 0.3482
-7 -2 -2 -3.0100 0.3030
-7 -2 -1 6.9535 0.0515
-7 -1 -15 -0.0690 0.2615
-7 -1 -14 -0.2370 -0.4149
-7 -1 -13 0.4994 0.7566
-7 -1 -12 -0.2526 -0.6958
-7 -1 -11 -0.3294 0.4502
-7 -1 -10 -0.5029 -0.1297
-7 -1 -9 -0.8595 0.1878
-7 -1 -8 -2.1085 -0.1762
-7 -1 -7 0.2118 0.0795
-7 -1 -6 -3.5142 0.0239
-7 -1 -5 1.4849 -0.5635
-7 -1 -4 -5.0088 0.0031
-7 -1 -3 2.3729 -0.6249
-7 -1 -2 -7.0285 -0.3457
-7 -1 -1 2.1503 -0.2090
-6 -23 -3 -0.1611 0.3786
-6 -23 -2 -0.0040 -0.3319
-6 -23 -1 -0.1365 -0.1557
-6 -22 -5 0.1320 0.1124
-6 -22 -4 0.1213 -0.5349
-6 -22 -3 0.1623 0.3307
-6 -22 -2 0.0006 -0.1573
-6 -22 -1 0.0117 0.2137
-6 -21 -7 0.3094 -0.0262
-6 -21 -6 -0.0961 -0.0808
-6 -21 -5 0.2145 -0.0109
-6 -21 -4 -0.2006 -0.2598
-6 -21 -3 0.1008 0.2250
-6 -21 -2 -0.1557 -0.2816
-6 -21 -1 -0.0042 -0.2708
-6 -20 -8 -0.0391 -0.0450
-6 -20 -7 0.2120 0.2230
-6 -20 -6 -0.2937 0.4871
-6 -20 -5 0.2652 0.3200
-6 -20 -4 -0.2475 0.1357
-6 -20 -3 0.3425 0.3859
-6 -20 -2 -0.0894 0.2687
-6 -20 -1 0.7164 0.1681
-6 -19 -9 -0.1947 0.0357
-6 -19 -7 -0.1310 -0.3971
-6 -19 -6 -0.2083 -0.3508
-6 -19 -5 0.1273 -0.3880
-6 -19 -4 -0.3552 -0.5581
-6 -19 -3 0.2864 -0.1061
-6 -19 -2 -1.1662 -0.3768
-6 -19 -1 0.2070 -0.4049
-6 -18 -10 -0.0494 0.0148
-6 -18 -9 0.0850 0.1722
-6 -18 -8 0.2376 0.0338
-6 -18 -7 0.2185 0.3012
-6 -18 -6 0.1644 0.2362
-6 -18 -5 -0.0562 0.5277
-6 -18 -4 -0.3559 -0.0979
-6 -18 -3 0.8631 0.5616
-6 -18 -2 -0.5679 0.1134
-6 -18 -1 1.9746 0.2117
-6 -17 -11 0.3208 -0.0294
-6 -17 -10 0.5173 -0.0158
-6 -17 -9 0.1328 0.1486
-6 -17 -8 -0.1260 -0.2978
-6 -17 -7 -0.0556 0.1478
-6 -17 -6 0.2405 -0.4395
-6 -17 -5 0.3336 0.1869
-6 -17 -4 0.2032 -0.5015
-6 -17 -3 0.8153 0.2216
-6 -17 -2 -1.0530 -0.3720
-6 -17 -1 0.7665 -0.2235
-6 -16 -11 -0.8420 -0.2669
-6 -16 -10 -0.4343 0.1115
-6 -16 -9 -0.5357 -0.0085
-6 -16 -8 -0.2728 -0.1887
-6 -16 -7 -0.2017 0.4048
-6 -16 -6 -0.4233 -0.2561
-6 -16 -5 -0.8882 0.4445
-6 -16 -4 -0.8985 -0.3063
-6 -16 -3 -0.2578 0.4237
-6 -16 -2 -1.0676 -0.0180
-6 -16 -1 0.4829 0.2454
-6 -15 -12 0.4182 0.3176
-6 -15 -11 0.5722 -0.3446
-6 -15 -10 1.0673 0.4760
-6 -15 -9 0.4269 -0.2977
-6 -15 -8 0.6731 -0.0094
-6 -15 -7 0.4755 0.0662
-6 -15 -6 0.9323 -0.4944
-6 -15 -5 0.8372 0.2877
-6 -15 -4 0.9510 -0.5729
-6 -15 -3 1.2938 0.2723
-6 -15 -2 -0.0022 -0.5617
-6 -15 -1 1.4314 -0.2496
-6 -14 -12 -0.5851 0.0635
-6 -14 -11 -0.6962 -0.4275
-6 -14 -10 -0.4962 0.4461
-6 -14 -9 -1.2176 -0.4344
-6 -14 -8 -0.4035 0.2728
-6 -14 -7 -1.0010 0.2726
-6 -14 -6 -0.6658 -0.0050
-6 -14 -5 -1.0803 0.8161
-6 -14 -4 -1.1807 -0.3782
-6 -14 -3 -0.1758 0.9988
-6 -14 -2 -1.7413 0.0325
-6 -14 -1 0.4728 0.5463
-6 -13 -13 0.3986 0.3116
-6 -13 -12 -0.0510 0.0786
-6 -13 -10 0.9671 0.2674
-6 -13 -9 0.2812 -0.0143
-6 -13 -8 1.0829 0.0656
-6 -13 -7 0.4623 -0.2735
-6 -13 -6 0.9493 -0.7464
-6 -13 -5 0.8499 -0.0186
-6 -13 -4 0.6494 -1.3359
-6 -13 -3 1.4325 0.0690
-6 -13 -2 -0.0453 -1.2136
-6 -13 -1 1.9017 -0.4980
-6 -12 -13 0.4751 0.0144
-6 -12 -12 -0.5415 -0.5694
-6 -12 -11 -0.0383 0.1897
-6 -12 -10 -0.2479 -0.5483
-6 -12 -9 -0.7371 -0.0832
-6 -12 -8 -0.1491 -0.0766
-6 -12 -7 -0.6151 0.3322
-6 -12 -6 -0.5697 0.5110
-6 -12 -4 -0.9462 0.2106
-6 -12 -3 -1.0118 1.5325
-6 -12 -2 -1.2882 0.6463
-6 -12 -1 -1.1585 0.7757
-6 -11 -14 -0.5579 0.1606
-6 -11 -13 0.0910 0.4914
-6 -11 -12 -0.9315 -0.3175
-6 -11 -11 0.2960 0.5278
-6 -11 -10 -0.1827 -0.1908
-6 -11 -9 -0.0826 0.4578
-6 -11 -8 0.1902 0.0141
-6 -11 -7 0.2616 -0.3137
-6 -11 -4 1.2134 -1.2143
-6 -11 -3 0.9593 -0.6470
-6 -11 -2 2.0981 -1.0984
-6 -11 -1 0.8338 -0.9274
-6 -10 -13 1.4193 -0.0127
-6 -10 -12 -0.1170 -0.1407
-6 -10 -8 -0.1065 -0.1486
-6 -10 -7 0.2448 0.1594
-6 -10 -4 -1.1138 0.5908
-6 -10 -3 -1.6532 0.8845
-6 -10 -2 -1.0561 1.0789
-6 -10 -1 -2.5370 0.5054
-6 -9 -14 -1.1453 0.3753
-6 -9 -13 -0.1868 -0.0479
-6 -9 -7 0.7386 -0.1402
-6 -9 -4 0.7915 -0.5854
-6 -9 -3 1.6261 -0.9678
-6 -9 -2 1.6757 -0.8464
-6 -9 -1 1.4993 -1.0131
-6 -8 -14 0.3544 0.1847
-6 -8 -12 -0.0770 0.2319
-6 -8 -11 1.6968 0.9226
-6 -8 -10 -0.4061 -0.0278
-6 -8 -9 1.0838 0.4531
-6 -8 -8 -0.8701 -0.0872
-6 -8 -7 0.5827 0.0731
-6 -8 -5 -0.4434 0.3115
-6 -8 -4 -1.5223 1.2326
-6 -8 -3 -1.1840 1.0396
-6 -8 -2 -2.1615 1.2153
-6 -8 -1 -1.9795 0.8197
-6 -7 -15 -0.4222 -0.4292
-6 -7 -13 -0.3669 -0.3259
-6 -7 -12 -1.0873 -1.1338
-6 -7 -11 0.0768 -0.1198
-6 -7 -9 0.5407 0.0597
-6 -7 -8 -0.6675 -0.0777
-6 -7 -7 0.9338 -0.6455
-6 -7 -6 0.2123 -0.1242
-6 -7 -5 1.0229 -1.4530
-6 -7 -4 1.1499 -0.6928
-6 -7 -3 1.7102 -1.3919
-6 -7 -2 2.1045 -1.2660
-6 -7 -1 1.4437 -0.9836
-6 -6 -15 -0.7577 -0.1538
-6 -6 -13 -0.1150 0.8422
-6 -6 -12 0.4672 0.5122
-6 -6 -11 0.6776 1.1534
-6 -6 -9 0.3760 0.2178
-6 -6 -8 -0.4761 0.3346
-6 -6 -7 0.0600 0.1214
-6 -6 -6 -0.6709 0.9196
-6 -6 -5 -0.8570 0.3810
-6 -6 -4 -0.7129 1.2173
-6 -6 -3 -1.9320 0.6422
-6 -6 -2 0.1234 1.1486
-6 -6 -1 -3.7382 0.5271
-6 -5 -15 -0.2911 -0.3335
-6 -5 -14 0.9482 0.0112
-6 -5 -13 -0.4871 -0.6490
-6 -5 -10 -0.0449 -0.3898
-6 -5 -9 -0.0502 -0.4335
-6 -5 -8 -0.0658 -0.1310
-6 -5 -7 0.5496 -0.2863
-6 -5 -6 0.2201 -0.5193
-6 -5 -5 0.1376 -0.5308
-6 -5 -4 1.3042 -0.2343
-6 -5 -3 -0.9749 -0.7229
-6 -5 -2 2.9490 -0.0954
-6 -5 -1 -3.4006 -0.7663
-6 -4 -15 -1.1352 -0.4626
-6 -4 -14 -0.2923 -0.0577
-6 -4 -13 -0.4022 -0.1727
-6 -4 -12 0.1231 0.4626
-6 -4 -11 -0.1943 0.1371
-6 -4 -10 0.1706 0.5235
-6 -4 -9 -0.2817 0.0770
-6 -4 -8 -0.8044 0.1887
-6 -4 -7 0.3320 0.5144
-6 -4 -6 -0.5950 0.2540
-6 -4 -5 -0.4062 0.5082
-6 -4 -4 0.3850 0.2354
-6 -4 -3 -1.3354 0.1129
-6 -4 -2 1.7860 0.4495
-6 -4 -1 -2.1519 0.0409
-6 -3 -14 0.9202 0.5388
-6 -3 -13 0.6340 0.5020
-6 -3 -12 0.5482 0.3123
-6 -3 -11 0.0207 0.0253
-6 -3 -9 0.8582 -0.1403
-6 -3 -8 -0.1156 -0.3176
-6 -3 -7 1.7700 -0.4294
-6 -3 -6 -0.5633 -0.5099
-6 -3 -5 1.2454 -0.5104
-6 -3 -4 -0.1357 -0.4531
-6 -3 -3 1.5447 -0.2325
-6 -3 -2 -0.5008 -0.4558
-6 -3 -1 1.7517 -0.4653
-6 -2 -15 -0.8745 -0.2738
-6 -2 -14 -0.7566 -0.6864
-6 -2 -13 -0.6877 -0.1155
-6 -2 -12 -0.2656 -0.7915
-6 -2 -10 -0.3272 -0.2123
-6 -2 -9 -0.8724 0.2070
-6 -2 -8 -1.9238 0.3283
-6 -2 -7 0.6959 0.4438
-6 -2 -6 -2.6122 0.7985
-6 -2 -5 1.1929 0.2972
-6 -2 -4 -3.3940 0.5692
-6 -2 -3 1.7391 0.5408
-6 -2 -2 -4.9569 0.4671
-6 -2 -1 2.1181 0.3696
-6 -1 -15 0.3600 -0.1608
-6 -1 -14 0.1802 -0.3307
-6 -1 -13 0.3084 0.7208
-6 -1 -12 0.4658 -0.6786
-6 -1 -11 0.0018 0.6484
-6 -1 -10 1.2020 -0.4351
-6 -1 -9 0.8209 -0.0499
-6 -1 -8 0.0901 -0.6033
-6 -1 -7 2.0561 -0.4494
-6 -1 -6 -1.2536 -0.4471
-6 -1 -5 2.7004 -0.5423
-6 -1 -4 -1.8019 -0.2796
-6 -1 -3 3.4251 -0.3489
-6 -1 -2 -0.9812 -0.3255
-6 -1 -1 2.9212 -0.3091
-5 -24 -1 -0.0684 -0.2005
-5 -23 -3 0.2857 0.1451
-5 -23 -2 0.0115 -0.1198
-5 -23 -1 -0.3162 0.0899
-5 -22 -4 -0.3026 -0.1053
-5 -22 -3 0.0138 0.5082
-5 -22 -2 0.0428 -0.0961
-5 -22 -1 -0.1224 -0.1354
-5 -21 -6 -0.3480 0.2107
-5 -21 -4 -0.0995 -0.2560
-5 -21 -3 0.1447 0.1235
-5 -21 -2 0.1251 -0.0156
-5 -21 -1 -0.3076 0.0446
-5 -20 -7 0.2081 -0.1694
-5 -20 -6 -0.4854 -0.3717
-5 -20 -5 0.0965 -0.2344
-5 -20 -4 -0.4107 -0.3286
-5 -20 -3 -0.0834 0.0676
-5 -20 -2 -0.1372 -0.1300
-5 -20 -1 -0.4344 -0.3877
-5 -19 -9 0.5738 0.3169
-5 -19 -8 0.0983 -0.0992
-5 -19 -7 0.5795 0.4739
-5 -19 -6 0.2300 0.2941
-5 -19 -5 0.3805 0.5262
-5 -19 -4 0.1169 -0.1703
-5 -19 -3 0.6284 0.3961
-5 -19 -2 0.1820 0.1530
-5 -19 -1 0.6257 0.0840
-5 -18 -10 -0.3284 -0.1141
-5 -18 -9 0.0287 0.2420
-5 -18 -8 -0.7157 -0.5269
-5 -18 -7 -0.3084 0.0513
-5 -18 -6 -0.2502 -0.5712
-5 -18 -5 -0.2800 0.2499
-5 -18 -4 -0.3799 -0.5398
-5 -18 -3 0.0608 0.4076
-5 -18 -2 -0.9484 -0.2410
-5 -18 -1 -0.0624 -0.2402
-5 -17 -11 0.0034 -0.2344
-5 -17 -10 -0.2689 -0.1226
-5 -17 -9 0.5065 0.3248
-5 -17 -8 -0.0759 -0.3359
-5 -17 -7 0.5091 0.6378
-5 -17 -6 0.1557 -0.3167
-5 -17 -5 -0.1122 0.4692
-5 -17 -4 -0.0954 -0.6548
-5 -17 -3 0.4469 0.2783
-5 -17 -2 -0.2727 -0.2479
-5 -17 -1 0.5856 0.0869
-5 -16 -11 0.4485 -0.1580
-5 -16 -10 -0.0403 0.3332
-5 -16 -9 0.3833 0.0026
-5 -16 -8 -0.4795 -0.3428
-5 -16 -7 0.2067 0.2706
-5 -16 -6 0.0467 -0.4520
-5 -16 -5 0.1472 0.5920
-5 -16 -4 0.1565 -0.2237
-5 -16 -3 0.4551 0.7121
-5 -16 -2 -0.3623 -0.1558
-5 -16 -1 0.5191 -0.0415
-5 -15 -12 -0.6018 0.1360
-5 -15 -11 0.0902 -0.7011
-5 -15 -10 -0.5162 0.5606
-5 -15 -9 -0.1403 -0.4284
-5 -15 -8 -0.3763 0.2327
-5 -15 -7 -0.0262 0.2049
-5 -15 -6 -0.2504 -0.3734
-5 -15 -5 -0.3509 0.3432
-5 -15 -4 -0.4892 -1.0186
-5 -15 -3 0.4484 0.3865
-5 -15 -2 -0.9803 -0.5328
-5 -15 -1 0.6307 0.2316
-5 -14 -12 -0.4800 0.4307
-5 -14 -11 0.6090 -0.3936
-5 -14 -10 0.4884 0.7008
-5 -14 -9 0.3024 -0.5917
-5 -14 -8 0.5116 0.3288
-5 -14 -7 0.2795 -0.1318
-5 -14 -6 0.4481 -0.3400
-5 -14 -5 0.3886 0.9580
-5 -14 -4 -0.1402 -0.8443
-5 -14 -3 1.0782 1.1885
-5 -14 -2 -1.1609 -0.8360
-5 -14 -1 1.6129 -0.0001
-5 -13 -13 0.4864 -0.1447
-5 -13 -12 -0.5253 -0.2965
-5 -13 -10 -0.1472 0.0914
-5 -13 -9 -0.9513 -0.4242
-5 -13 -8 -0.0912 0.3113
-5 -13 -7 -0.5707 0.0021
-5 -13 -6 -0.3008 -0.3216
-5 -13 -5 -0.4379 1.0060
-5 -13 -4 -0.7544 -1.3969
-5 -13 -3 0.3969 1.6000
-5 -13 -2 -1.4734 -0.5068
-5 -13 -1 0.9101 0.8104
-5 -12 -13 0.0589 0.6142
-5 -12 -12 -0.1412 -0.1610
-5 -12 -11 0.0466 0.6006
-5 -12 -10 0.8617 -0.0425
-5 -12 -9 -0.2805 0.1666
-5 -12 -8 0.7096 0.2034
-5 -12 -7 0.1211 -0.1285
-5 -12 -6 0.4508 -0.6024
-5 -12 -5 0.5450 0.8750
-5 -12 -3 1.0204 0.9545
-5 -12 -2 0.2539 -1.7071
-5 -12 -1 1.2336 -0.3440
-5 -11 -13 0.4256 0.0588
-5 -11 -12 0.1824 -0.7602
-5 -11 -11 -0.2096 0.4582
-5 -11 -10 0.4186 -0.4963
-5 -11 -9 -0.7817 0.0400
-5 -11 -7 -0.1838 0.1542
-5 -11 -4 -1.0285 -1.0922
-5 -11 -3 -0.8958 2.0592
-5 -11 -2 -1.1442 0.0513
-5 -11 -1 -0.5664 0.9732
-5 -10 -13 -0.5601 0.6029
-5 -10 -12 -0.6156 -0.4104
-5 -10 -7 0.5156 0.1372
-5 -10 -4 0.4597 -2.0076
-5 -10 -3 1.8899 0.5594
-5 -10 -2 0.2072 -1.7403
-5 -10 -1 1.8004 -0.6154
-5 -9 -14 0.5941 -0.3996
-5 -9 -13 0.9433 0.1412
-5 -9 -8 -0.6793 -0.2894
-5 -9 -7 0.2710 0.4404
-5 -9 -5 -0.0437 1.7047
-5 -9 -4 -2.4221 -0.6621
-5 -9 -3 0.1416 2.4965
-5 -9 -2 -3.5151 0.1960
-5 -9 -1 0.6586 1.2362
-5 -8 -14 -0.5099 -0.0826
-5 -8 -12 -0.8463 -0.9707
-5 -8 -10 -0.2897 -0.9602
-5 -8 -8 -0.2319 -0.2168
-5 -8 -7 1.3948 -0.1969
-5 -8 -5 2.1610 -0.0527
-5 -8 -4 0.1990 -2.6567
-5 -8 -3 4.2518 0.2258
-5 -8 -2 -0.2431 -2.6755
-5 -8 -1 5.4432 -0.4618
-5 -7 -15 -0.0107 -0.0050
-5 -7 -13 0.4784 0.8748
-5 -7 -8 -1.0472 -0.0504
-5 -7 -7 -0.1091 0.2611
-5 -7 -6 -1.6331 0.4893
-5 -7 -5 -0.6727 1.9018
-5 -7 -4 -3.3462 -0.1026
-5 -7 -3 -0.5851 3.0403
-5 -7 -2 -5.2742 0.0417
-5 -7 -1 -1.4939 1.6224
-5 -6 -15 -0.1098 -0.1759
-5 -6 -14 0.1335 -0.2624
-5 -6 -13 -0.2756 -0.2094
-5 -6 -12 -0.7346 -1.1828
-5 -6 -9 0.2739 0.1885
-5 -6 -8 -0.0123 0.0271
-5 -6 -7 1.0254 -0.1284
-5 -6 -6 0.6305 -1.1197
-5 -6 -5 1.8478 0.0457
-5 -6 -4 1.0539 -2.3392
-5 -6 -3 3.3688 0.3660
-5 -6 -2 2.3536 -2.0946
-5 -6 -1 3.0862 -0.2466
-5 -5 -15 -0.3686 -0.3532
-5 -5 -14 -0.2969 0.1843
-5 -5 -13 0.3442 0.2432
-5 -5 -9 0.1447 0.0277
-5 -5 -8 -0.6063 -0.1649
-5 -5 -7 -0.1202 0.6554
-5 -5 -6 -0.8480 -0.1218
-5 -5 -5 -1.0094 1.8306
-5 -5 -4 -1.4614 -0.5399
-5 -5 -3 -2.0077 1.9171
-5 -5 -2 -1.2730 -0.2179
-5 -5 -1 -4.1792 0.8610
-5 -4 -15 0.9524 0.4518
-5 -4 -14 0.2892 0.5286
-5 -4 -13 0.7658 -0.0995
-5 -4 -10 0.0145 0.0274
-5 -4 -9 0.5401 0.0718
-5 -4 -8 -0.2657 -0.3127
-5 -4 -7 0.9773 -0.1309
-5 -4 -6 0.3524 -1.3836
-5 -4 -5 0.7043 0.0337
-5 -4 -4 1.2980 -2.0435
-5 -4 -3 1.4787 0.4142
-5 -4 -2 2.1266 -1.5855
-5 -4 -1 1.0406 -0.2176
-5 -3 -15 -0.6796 -0.4442
-5 -3 -14 -1.1949 -0.5670
-5 -3 -13 -0.3937 -0.5358
-5 -3 -11 -0.5729 -0.2792
-5 -3 -10 -0.3038 -0.1309
-5 -3 -9 -0.1965 0.1097
-5 -3 -8 -1.3439 0.3202
-5 -3 -7 0.3532 0.8494
-5 -3 -6 -1.2251 0.8094
-5 -3 -5 -0.3683 1.7281
-5 -3 -4 -2.1318 0.1967
-5 -3 -3 -0.1780 2.2237
-5 -3 -2 -3.9627 0.1926
-5 -3 -1 -0.0693 1.1103
-5 -2 -15 0.7091 0.1820
-5 -2 -14 0.7082 0.3170
-5 -2 -12 0.8512 0.0925
-5 -2 -11 -0.0763 0.5504
-5 -2 -10 0.9953 -0.1112
-5 -2 -9 0.6674 -0.1192
-5 -2 -8 -0.1461 -0.6904
-5 -2 -7 1.4282 -0.9670
-5 -2 -6 -0.4750 -1.2359
-5 -2 -5 1.8361 -0.8386
-5 -2 -4 -0.6740 -1.8973
-5 -2 -3 3.8179 -0.4334
-5 -2 -2 -1.0270 -1.7828
-5 -2 -1 4.6529 -0.5898
-5 -1 -15 -0.3385 -0.2801
-5 -1 -14 -0.3434 -0.0851
-5 -1 -13 -0.3162 0.3473
-5 -1 -12 0.1125 -0.9183
-5 -1 -11 -0.8210 0.5808
-5 -1 -10 0.2365 -0.3616
-5 -1 -9 -0.3815 0.7804
-5 -1 -8 -0.3940 0.5739
-5 -1 -7 0.6511 1.2633
-5 -1 -6 -0.2236 0.7972
-5 -1 -5 0.8295 1.5875
-5 -1 -4 -0.3745 0.2499
-5 -1 -3 0.4086 1.6816
-5 -1 -2 0.6745 0.3038
-5 -1 -1 -1.4564 0.7443
-4 -24 -2 -0.1880 0.3283
-4 -24 -1 -0.1310 -0.0703
-4 -23 -3 0.1510 0.1300
-4 -23 -2 -0.2133 0.1558
-4 -23 -1 0.0950 -0.3020
-4 -22 -4 -0.1111 -0.2028
-4 -22 -3 0.2675 -0.1654
-4 -22 -2 -0.1302 0.0152
-4 -22 -1 -0.2044 -0.0940
-4 -21 -6 -0.3771 -0.0054
-4 -21 -5 0.1998 -0.3351
-4 -21 -4 -0.3439 0.0580
-4 -21 -3 0.0638 0.1165
-4 -21 -2 0.2535 0.1192
-4 -21 -1 -0.3971 -0.3748
-4 -20 -7 0.6573 0.1716
-4 -20 -6 -0.0600 0.6409
-4 -20 -5 0.5055 0.1239
-4 -20 -4 0.0510 -0.0014
-4 -20 -3 0.1164 0.0609
-4 -20 -2 0.4149 0.2602
-4 -20 -1 -0.8110 -0.0489
-4 -19 -9 0.1340 0.0558
-4 -19 -8 -0.8534 -0.2706
-4 -19 -7 -0.1465 -0.3962
-4 -19 -6 -0.4317 -0.2382
-4 -19 -5 -0.3259 -0.1193
-4 -19 -4 -0.3836 -0.2814
-4 -19 -3 -0.2941 0.2208
-4 -19 -2 0.1920 -0.0389
-4 -19 -1 -0.7883 -0.4034
-4 -18 -10 -0.1922 -0.0561
-4 -18 -9 0.9284 0.2634
-4 -18 -8 -0.0817 -0.0935
-4 -18 -7 0.6146 0.4572
-4 -18 -6 0.3850 0.1217
-4 -18 -5 0.1585 0.3029
-4 -18 -4 0.3698 -0.4782
-4 -18 -3 0.2345 0.1113
-4 -18 -2 0.4737 -0.0737
-4 -18 -1 -0.7901 -0.0554
-4 -17 -10 -0.7303 0.2118
-4 -17 -9 0.3795 0.2498
-4 -17 -8 -1.0491 -0.5670
-4 -17 -7 0.0554 0.1040
-4 -17 -6 -0.2904 -0.3823
-4 -17 -5 -0.4096 0.2115
-4 -17 -4 -0.1608 0.0579
-4 -17 -3 -0.3925 0.4829
-4 -17 -2 0.3558 0.2264
-4 -17 -1 -0.6399 -0.1479
-4 -16 -11 0.7373 -0.7726
-4 -16 -10 -0.4795 0.2229
-4 -16 -9 1.0539 -0.0710
-4 -16 -8 -0.4697 -0.0674
-4 -16 -7 0.7954 0.4019
-4 -16 -6 0.1516 0.0055
-4 -16 -5 0.2091 -0.1363
-4 -16 -4 0.4480 -0.4089
-4 -16 -3 0.3540 -0.4717
-4 -16 -2 0.3561 -0.2421
-4 -16 -1 -0.9031 -0.2371
-4 -15 -11 0.6241 -0.5627
-4 -15 -10 -0.8948 0.8034
-4 -15 -9 0.5462 -0.4669
-4 -15 -8 -0.8199 0.1286
-4 -15 -7 0.1460 -0.1870
-4 -15 -6 -0.3577 0.0798
-4 -15 -5 -0.4362 0.3195
-4 -15 -4 -0.7396 0.4177
-4 -15 -3 -0.1355 0.6437
-4 -15 -2 -0.6814 0.3587
-4 -15 -1 0.0653 -0.0876
-4 -14 -12 -0.7043 0.2089
-4 -14 -11 0.9671 -0.6674
-4 -14 -10 -0.4421 0.5767
-4 -14 -9 0.4601 -0.5841
-4 -14 -8 -0.2119 0.4415
-4 -14 -7 0.3046 -0.2947
-4 -14 -6 0.3349 -0.1526
-4 -14 -5 0.3337 -0.1822
-4 -14 -4 0.2269 -1.0281
-4 -14 -3 1.2770 -0.0182
-4 -14 -2 -0.4076 -0.4174
-4 -14 -1 0.7683 0.0291
-4 -13 -12 -0.9355 0.1989
-4 -13 -11 0.3108 0.0243
-4 -13 -10 -0.2105 0.2800
-4 -13 -9 -0.0349 -0.2137
-4 -13 -8 -0.1267 0.4531
-4 -13 -7 -0.2483 -0.1390
-4 -13 -6 0.0434 0.2867
-4 -13 -5 -0.4390 0.9882
-4 -13 -4 -0.2615 -0.3365
-4 -13 -3 0.1301 1.0848
-4 -13 -2 -0.7931 -0.5218
-4 -13 -1 0.3131 -0.2207
-4 -12 -13 0.6461 -0.1257
-4 -12 -11 0.1989 0.1983
-4 -12 -10 0.2858 -0.2959
-4 -12 -9 -0.2321 -0.1204
-4 -12 -8 0.4033 0.0715
-4 -12 -7 0.0704 -0.4549
-4 -12 -5 -0.4299 0.1921
-4 -12 -3 -0.1846 0.8980
-4 -12 -2 0.1141 -0.2207
-4 -12 -1 0.2442 0.4782
-4 -11 -13 -0.5021 0.5044
-4 -11 -12 -0.4105 -0.1653
-4 -11 -11 -0.3308 0.4805
-4 -11 -10 0.5631 -0.3581
-4 -11 -9 -0.5278 0.1829
-4 -11 -5 -0.0909 1.4451
-4 -11 -3 0.1208 1.0932
-4 -11 -2 -0.4268 -0.9114
-4 -11 -1 -0.4810 -0.5597
-4 -10 -13 0.6260 -0.1877
-4 -10 -12 0.4614 -0.5614
-4 -10 -7 0.1424 0.0515
-4 -10 -4 -0.8807 -1.7186
-4 -10 -3 0.8567 1.5136
-4 -10 -2 -1.0708 0.0076
-4 -10 -1 2.4991 0.6347
-4 -9 -14 -0.5082 0.2065
-4 -9 -13 -0.6060 0.7299
-4 -9 -8 0.4078 -0.1573
-4 -9 -7 0.6674 0.0674
-4 -9 -4 -0.8337 -2.2300
-4 -9 -3 2.9021 0.9684
-4 -9 -2 -2.8896 -1.8973
-4 -9 -1 3.5476 -0.5875
-4 -8 -14 0.4635 -0.5998
-4 -8 -13 0.3978 0.3384
-4 -8 -8 -0.9139 -0.0255
-4 -8 -7 -0.2325 0.2029
-4 -8 -5 0.2348 2.0742
-4 -8 -4 -3.2440 -1.2139
-4 -8 -3 2.0367 3.1369
-4 -8 -2 -5.8300 -0.1240
-4 -8 -1 3.2434 1.4819
-4 -7 -14 -0.1999 -0.3176
-4 -7 -13 -0.3045 0.5580
-4 -7 -9 0.4418 0.5180
-4 -7 -8 0.6060 0.2604
-4 -7 -7 1.1433 -0.0720
-4 -7 -6 0.3027 -1.1456
-4 -7 -5 2.3919 0.8218
-4 -7 -4 -0.8971 -3.1010
-4 -7 -3 5.4722 1.0065
-4 -7 -2 -1.7424 -2.7106
-4 -7 -1 6.9723 -0.2603
-4 -6 -14 -0.2272 -0.0758
-4 -6 -13 0.5578 0.5543
-4 -6 -9 -0.5536 -0.2316
-4 -6 -8 -0.5787 -0.4661
-4 -6 -7 -0.4200 0.3562
-4 -6 -6 -1.3330 -0.6982
-4 -6 -5 0.0723 2.3593
-4 -6 -4 -3.3927 -1.4425
-4 -6 -3 0.7787 2.8254
-4 -6 -2 -5.0606 -0.5321
-4 -6 -1 -0.6921 1.2209
-4 -5 -15 1.0644 0.3137
-4 -5 -14 -0.3530 0.0116
-4 -5 -9 0.1336 0.6581
-4 -5 -8 0.1815 0.0850
-4 -5 -7 0.7310 0.6785
-4 -5 -6 0.2280 -1.5865
-4 -5 -5 1.3604 1.1754
-4 -5 -4 -0.1151 -2.7411
-4 -5 -3 3.0908 1.1784
-4 -5 -2 0.6278 -1.9118
-4 -5 -1 2.7857 -0.0552
-4 -4 -15 -0.0118 0.0718
-4 -4 -13 0.4893 -0.1232
-4 -4 -11 0.1876 -0.1496
-4 -4 -10 -0.0406 -0.4372
-4 -4 -9 -0.0340 -0.2444
-4 -4 -8 -0.6994 -0.4656
-4 -4 -7 0.0210 0.7110
-4 -4 -6 -0.5269 -0.2340
-4 -4 -5 -0.3622 2.3934
-4 -4 -4 -1.8176 -0.8265
-4 -4 -3 0.1862 2.7706
-4 -4 -2 -3.4403 -0.3096
-4 -4 -1 -0.4477 1.2118
-4 -3 -15 1.1858 0.5564
-4 -3 -14 0.1682 -0.0669
-4 -3 -13 0.9469 0.3322
-4 -3 -11 -0.0366 0.4041
-4 -3 -10 0.2613 0.1978
-4 -3 -9 0.3112 0.3453
-4 -3 -8 -0.1148 -0.2420
-4 -3 -7 0.4924 -0.4816
-4 -3 -6 0.2724 -1.5250
-4 -3 -5 0.7796 -0.2519
-4 -3 -4 -0.3524 -2.9073
-4 -3 -3 3.5600 0.1237
-4 -3 -2 -1.5571 -2.5351
-4 -3 -1 4.9113 -0.4521
-4 -2 -15 -0.3863 0.1420
-4 -2 -14 -0.3411 -0.2375
-4 -2 -11 -0.3250 0.1134
-4 -2 -10 0.5863 -0.4991
-4 -2 -9 -0.1341 0.3308
-4 -2 -8 0.1935 0.4533
-4 -2 -7 -0.0145 1.1131
-4 -2 -6 0.5754 0.8816
-4 -2 -5 0.1031 2.3032
-4 -2 -4 -0.6942 0.1949
-4 -2 -3 1.4729 2.8877
-4 -2 -2 -1.9244 0.4390
-4 -2 -1 1.6672 1.3460
-4 -1 -16 0.1484 0.2275
-4 -1 -15 -0.1406 -0.3425
-4 -1 -14 0.2270 0.0814
-4 -1 -12 -0.0845 -0.4353
-4 -1 -11 -1.0247 0.9979
-4 -1 -10 -0.0186 -0.6335
-4 -1 -9 -1.1525 0.0083
-4 -1 -8 -0.2821 -1.1631
-4 -1 -7 -2.1467 -0.9347
-4 -1 -6 -0.0373 -2.0971
-4 -1 -5 -3.4460 -0.3209
-4 -1 -4 -0.2826 -2.8166
-4 -1 -3 -4.8466 0.2933
-4 -1 -2 0.3459 -2.0499
-4 -1 -1 -8.5836 -0.1270
-3 -24 -2 -0.3163 0.3478
-3 -24 -1 0.1968 -0.5135
-3 -23 -4 -0.0291 -0.0026
-3 -23 -3 0.3696 -0.3936
-3 -23 -2 -0.3553 0.3682
-3 -23 -1 0.5391 -0.2477
-3 -22 -4 -0.1079 0.3071
-3 -22 -3 0.3088 -0.0507
-3 -22 -2 -0.3861 0.3299
-3 -22 -1 0.0750 -0.5047
-3 -21 -5 0.2190 -0.2100
-3 -21 -4 -0.1603 0.1242
-3 -21 -3 0.1058 -0.1887
-3 -21 -2 0.0240 0.4642
-3 -21 -1 -0.2946 -0.1230
-3 -20 -6 -0.3875 0.2096
-3 -20 -5 -0.0939 -0.3899
-3 -20 -4 -0.1703 0.0090
-3 -20 -3 -0.0374 -0.0783
-3 -20 -2 0.4740 0.0312
-3 -20 -1 -0.6400 -0.6369
-3 -19 -9 0.9389 -0.0068
-3 -19 -8 0.0133 0.4618
-3 -19 -7 0.4412 -0.1283
-3 -19 -6 0.3215 0.5748
-3 -19 -5 0.0405 -0.0272
-3 -19 -4 0.1603 -0.3006
-3 -19 -3 -0.1588 0.1531
-3 -19 -2 0.4080 0.2315
-3 -19 -1 -1.3863 -0.0086
-3 -18 -9 0.2748 -0.1566
-3 -18 -8 -0.7619 -0.1725
-3 -18 -7 -0.0447 -0.4417
-3 -18 -6 0.0309 0.0041
-3 -18 -5 -0.3298 0.0206
-3 -18 -4 0.0731 -0.0634
-3 -18 -3 -0.3263 0.4201
-3 -18 -2 1.0353 0.0332
-3 -18 -1 -0.8409 -0.3128
-3 -17 -10 -0.3245 0.2572
-3 -17 -9 1.0024 -0.0364
-3 -17 -8 -0.4603 0.1262
-3 -17 -7 0.5247 0.2528
-3 -17 -6 0.1078 0.4576
-3 -17 -5 0.0139 -0.1523
-3 -17 -4 0.5177 -0.1606
-3 -17 -3 -0.2717 -0.3262
-3 -17 -2 0.7743 -0.0833
-3 -17 -1 -2.3574 -0.2070
-3 -16 -10 -1.0058 0.8435
-3 -16 -9 0.6418 -0.3437
-3 -16 -8 -1.0466 -0.0298
-3 -16 -7 0.3351 -0.5317
-3 -16 -6 -0.4127 0.1341
-3 -16 -5 -0.5387 -0.5384
-3 -16 -4 -0.5517 0.6619
-3 -16 -3 -0.7748 0.0514
-3 -16 -2 0.7342 0.6626
-3 -16 -1 -0.9978 -0.2224
-3 -15 -10 -0.5726 0.8306
-3 -15 -9 1.1173 -0.6372
-3 -15 -8 -0.5398 0.5739
-3 -15 -7 0.6858 -0.2580
-3 -15 -6 0.3253 0.7302
-3 -15 -5 0.7136 -0.6576
-3 -15 -4 0.7604 0.2118
-3 -15 -3 1.0787 -0.9152
-3 -15 -2 0.6337 0.1010
-3 -15 -1 -1.1182 -0.4646
-3 -14 -11 0.4666 -0.7022
-3 -14 -10 -1.0854 0.6461
-3 -14 -9 0.3589 -0.5082
-3 -14 -8 -0.8043 0.4972
-3 -14 -7 -0.1064 -0.5595
-3 -14 -6 -0.3434 0.6693
-3 -14 -5 -0.8237 -0.2208
-3 -14 -4 -1.0548 0.8109
-3 -14 -3 -0.5454 0.0915
-3 -14 -2 -0.5156 0.6364
-3 -14 -1 -0.6521 -0.3824
-3 -13 -11 1.0500 -0.1091
-3 -13 -9 0.8537 -0.2059
-3 -13 -8 0.1436 0.1644
-3 -13 -7 0.4281 -0.7322
-3 -13 -6 0.8265 0.1468
-3 -13 -5 -0.0228 -0.8999
-3 -13 -4 0.9276 -0.4299
-3 -13 -3 0.3432 -0.5742
-3 -13 -2 0.9578 0.2195
-3 -13 -1 -0.7625 -0.2137
-3 -12 -11 -0.0309 0.1818
-3 -12 -10 -0.6714 -0.3397
-3 -12 -9 -0.3162 0.2629
-3 -12 -8 -0.6826 0.3317
-3 -12 -7 -0.7404 0.0019
-3 -12 -5 -1.1728 0.6408
-3 -12 -4 0.5855 0.7711
-3 -12 -3 -1.3120 0.3979
-3 -12 -2 0.4420 0.3549
-3 -12 -1 -2.3603 -0.6670
-3 -11 -12 0.1307 -0.1976
-3 -11 -11 0.5324 0.3189
-3 -11 -10 0.1702 -0.3314
-3 -11 -9 0.2459 0.3067
-3 -11 -8 0.5245 -0.1594
-3 -11 -5 -0.4941 -0.7908
-3 -11 -4 1.0906 -1.1466
-3 -11 -3 -0.1253 -0.4801
-3 -11 -2 2.0276 0.4064
-3 -11 -1 0.7494 -0.2292
-3 -10 -12 -0.7437 0.2815
-3 -10 -7 -0.5015 0.0602
-3 -10 -5 -0.6732 1.1448
-3 -10 -3 -0.4681 0.5004
-3 -10 -2 -2.0561 0.0670
-3 -10 -1 -1.6223 -0.9625
-3 -9 -13 0.9671 -0.5826
-3 -9 -8 -0.2689 0.2119
-3 -9 -7 -0.1598 -0.2034
-3 -9 -4 -0.5528 -1.0069
-3 -9 -3 2.0336 0.8965
-3 -9 -2 -1.3468 0.6578
-3 -9 -1 4.0024 0.3467
-3 -8 -8 0.7436 0.3885
-3 -8 -7 0.1843 -0.5740
-3 -8 -4 -1.2124 -1.4751
-3 -8 -3 2.7424 0.2158
-3 -8 -2 -3.2955 -1.3477
-3 -8 -1 3.5855 -0.9767
-3 -7 -14 0.0769 -0.3604
-3 -7 -9 -1.0706 -0.5055
-3 -7 -8 -0.2684 0.1094
-3 -7 -7 -0.5732 -0.3726
-3 -7 -6 -0.1705 -0.2240
-3 -7 -5 0.5230 1.1144
-3 -7 -4 -1.8977 -0.8989
-3 -7 -3 2.3661 1.7070
-3 -7 -2 -3.6190 0.4941
-3 -7 -1 2.1466 0.7377
-3 -6 -15 0.8054 0.1527
-3 -6 -14 -0.6144 0.0520
-3 -6 -11 -0.2365 0.0817
-3 -6 -10 0.7485 0.4246
-3 -6 -9 -0.1525 0.5154
-3 -6 -8 0.6547 0.6429
-3 -6 -7 -0.0667 0.6257
-3 -6 -6 -0.1816 -0.5902
-3 -6 -5 0.3464 1.2551
-3 -6 -4 -1.6548 -1.4876
-3 -6 -3 1.7826 0.4996
-3 -6 -2 -1.5007 -0.9208
-3 -6 -1 1.0248 -0.6950
-3 -5 -15 0.2512 0.2528
-3 -5 -14 -1.4637 0.0881
-3 -5 -13 0.7706 0.0120
-3 -5 -11 -0.0365 -0.3206
-3 -5 -9 -0.5298 -0.7056
-3 -5 -8 0.1313 -0.9681
-3 -5 -7 0.1190 0.0027
-3 -5 -6 0.6280 -1.1755
-3 -5 -5 0.8168 1.2737
-3 -5 -4 0.0792 -1.0324
-3 -5 -3 1.6377 1.1731
-3 -5 -2 0.2920 0.3386
-3 -5 -1 0.1862 0.3646
-3 -4 -15 1.7698 0.4311
-3 -4 -12 -0.3624 -0.0022
-3 -4 -10 0.2876 0.5346
-3 -4 -9 -0.2555 0.8264
-3 -4 -8 -0.1038 0.4849
-3 -4 -7 -0.7141 0.7492
-3 -4 -6 -0.1969 -0.6427
-3 -4 -5 -1.3586 0.6770
-3 -4 -4 -1.2465 -1.5259
-3 -4 -3 -0.3817 -0.0670
-3 -4 -2 -2.0187 -1.1273
-3 -4 -1 -1.2437 -0.8160
-3 -3 -15 -0.2734 1.2331
-3 -3 -10 0.8374 -0.5039
-3 -3 -9 -0.0215 -0.3758
-3 -3 -8 0.9580 -0.4343
-3 -3 -7 -0.0648 0.1079
-3 -3 -6 2.2332 -0.0865
-3 -3 -5 0.3754 1.2534
-3 -3 -4 1.8206 0.0894
-3 -3 -3 2.6707 1.8277
-3 -3 -2 1.4681 0.9989
-3 -3 -1 3.5815 0.8744
-3 -2 -16 0.2855 -0.8404
-3 -2 -15 -0.2132 -0.1927
-3 -2 -12 -0.3742 -0.6211
-3 -2 -10 -0.2749 -0.1516
-3 -2 -9 -1.8607 0.3740
-3 -2 -8 0.0341 -0.2754
-3 -2 -7 -3.2960 -0.2484
-3 -2 -6 0.2944 -1.0905
-3 -2 -5 -4.9249 -0.1368
-3 -2 -4 -1.3933 -2.0016
-3 -2 -3 -6.0501 -0.4874
-3 -2 -2 -3.1222 -1.6701
-3 -2 -1 -9.3833 -0.8717
-3 -1 -15 -0.7212 0.2137
-3 -1 -13 0.2233 0.3945
-3 -1 -12 1.8501 -0.9447
-3 -1 -10 2.3758 -0.7665
-3 -1 -9 0.6212 0.5842
-3 -1 -8 3.9470 0.3611
-3 -1 -7 -0.1441 1.2582
-3 -1 -6 7.5429 0.6192
-3 -1 -5 -0.1318 2.3524
-3 -1 -4 11.6640 -0.2596
-3 -1 -3 0.8316 2.4330
-3 -1 -2 18.9785 -0.1163
-2 -24 -2 -0.1796 0.3639
-2 -24 -1 0.4874 -0.3230
-2 -23 -4 0.0985 0.3147
-2 -23 -3 0.1974 -0.0194
-2 -23 -2 -0.8164 0.4944
-2 -23 -1 0.1475 -0.4853
-2 -22 -4 -0.0583 -0.0505
-2 -22 -3 0.3481 -0.3429
-2 -22 -2 -0.1739 0.4685
-2 -22 -1 0.9055 -0.2131
-2 -21 -4 0.0160 0.1427
-2 -21 -3 0.1055 -0.2529
-2 -21 -2 -0.2309 0.1202
-2 -21 -1 -0.2943 -0.7597
-2 -20 -6 0.3655 0.4416
-2 -20 -5 -0.1385 -0.1861
-2 -20 -4 -0.0025 -0.1512
-2 -20 -3 -0.1476 0.1237
-2 -20 -2 0.1419 0.6352
-2 -20 -1 -0.3705 0.0406
-2 -19 -8 -0.6408 -0.0388
-2 -19 -7 -0.3761 -0.4999
-2 -19 -6 0.3307 0.3001
-2 -19 -5 -0.2136 0.2176
-2 -19 -4 0.3788 -0.1627
-2 -19 -3 0.0801 0.2726
-2 -19 -2 0.6604 -0.2454
-2 -19 -1 -0.4494 -0.6040
-2 -18 -8 -0.0545 0.2707
-2 -18 -7 -0.0636 -0.0015
-2 -18 -6 0.1726 0.2203
-2 -18 -5 -0.5674 -0.0362
-2 -18 -4 0.0482 -0.6126
-2 -18 -3 -0.6001 0.2789
-2 -18 -2 0.2269 -0.0259
-2 -18 -1 -1.8252 0.1130
-2 -17 -9 0.4193 -0.2563
-2 -17 -8 -0.5087 -0.1661
-2 -17 -7 0.2639 -0.4721
-2 -17 -6 0.2148 0.0354
-2 -17 -5 -0.1594 -0.1900
-2 -17 -4 0.1831 0.0249
-2 -17 -3 -0.3513 0.3661
-2 -17 -2 1.3186 0.0039
-2 -17 -1 -0.6666 -0.2071
-2 -16 -9 0.6963 -0.4913
-2 -16 -8 -0.6342 0.5898
-2 -16 -7 0.3038 -0.0726
-2 -16 -6 -0.0698 0.9072
-2 -16 -5 0.3071 -0.2246
-2 -16 -4 0.4484 0.2721
-2 -16 -3 0.2508 -0.3277
-2 -16 -2 0.6009 0.0127
-2 -16 -1 -2.1907 -0.2119
-2 -15 -9 0.6086 -0.8563
-2 -15 -8 -0.5159 0.5008
-2 -15 -7 0.3714 -0.9531
-2 -15 -6 -0.2829 0.3303
-2 -15 -5 -0.3493 -0.8725
-2 -15 -4 -1.1373 0.4325
-2 -15 -3 -0.4092 -0.2321
-2 -15 -2 0.1513 0.5206
-2 -15 -1 -0.6075 -0.3341
-2 -14 -10 -0.2395 0.8423
-2 -14 -9 0.6478 -0.5404
-2 -14 -8 -0.3572 0.5902
-2 -14 -7 0.2475 -0.5705
-2 -14 -6 0.2165 0.8543
-2 -14 -5 0.4458 -0.5347
-2 -14 -4 0.4715 0.4262
-2 -14 -3 0.8471 -0.5536
-2 -14 -2 0.5423 0.3819
-2 -14 -1 -1.6240 -0.3316
-2 -13 -9 -0.0247 -0.0594
-2 -13 -8 -0.7044 0.3914
-2 -13 -7 -0.1724 -0.3888
-2 -13 -5 -0.7186 -0.3486
-2 -13 -4 0.0055 0.7529
-2 -13 -3 -0.8944 -0.2172
-2 -13 -2 0.8807 0.5395
-2 -13 -1 -1.7527 -0.5892
-2 -12 -10 0.1648 -0.1095
-2 -12 -9 0.8924 0.3012
-2 -12 -8 0.2533 -0.1863
-2 -12 -7 0.4183 -0.6834
-2 -12 -5 -0.6416 -1.1137
-2 -12 -4 1.1172 -0.2153
-2 -12 -3 -0.7184 -0.9234
-2 -12 -2 2.2232 0.5168
-2 -12 -1 -1.5593 -0.4227
-2 -11 -11 0.1134 -0.0352
-2 -11 -10 -0.5414 -0.5884
-2 -11 -9 -0.0545 0.4113
-2 -11 -8 -0.6739 -0.0713
-2 -11 -5 -0.9147 0.4817
-2 -11 -4 0.5928 1.0808
-2 -11 -3 -1.5212 0.0588
-2 -11 -2 -0.0057 0.9122
-2 -11 -1 -3.4889 -0.8883
-2 -10 -11 0.4926 -0.0656
-2 -10 -7 0.0756 -0.2610
-2 -10 -5 -0.4417 -0.6525
-2 -10 -4 0.5134 -0.5128
-2 -10 -3 0.6698 -0.7073
-2 -10 -2 1.4298 0.9242
-2 -10 -1 1.7609 -0.4339
-2 -9 -7 -0.1538 -0.7619
-2 -9 -5 -0.3741 0.0071
-2 -9 -3 0.4897 -0.4870
-2 -9 -2 -1.9340 0.0527
-2 -9 -1 -0.2390 -1.3308
-2 -8 -10 -0.7808 -0.6626
-2 -8 -8 -0.3578 0.6670
-2 -8 -7 -0.6602 -0.6943
-2 -8 -5 -0.2409 -0.1820
-2 -8 -4 -0.3763 0.1920
-2 -8 -2 -1.0759 1.4414
-2 -8 -1 1.3328 0.2131
-2 -7 -8 0.6495 0.8721
-2 -7 -7 -0.5701 -0.5374
-2 -7 -6 0.2280 0.5836
-2 -7 -5 -0.8294 0.0143
-2 -7 -4 -0.9908 -0.0510
-2 -7 -3 -0.1331 -0.7488
-2 -7 -2 -0.6841 -0.1676
-2 -7 -1 -1.4773 -1.3495
-2 -6 -15 0.5403 -0.2709
-2 -6 -12 -0.2999 0.6188
-2 -6 -9 -0.5844 -1.0019
-2 -6 -8 0.5628 -0.3012
-2 -6 -7 0.0533 -0.7795
-2 -6 -6 1.7490 -0.5418
-2 -6 -5 0.8635 -0.3607
-2 -6 -4 2.2289 -0.0918
-2 -6 -3 0.9768 -0.4253
-2 -6 -2 4.3225 1.3428
-2 -6 -1 -1.6008 -0.2571
-2 -5 -15 1.6486 0.1587
-2 -5 -14 -0.6490 -0.1080
-2 -5 -12 -0.6214 0.6933
-2 -5 -10 0.3660 1.0389
-2 -5 -9 -0.5742 0.4994
-2 -5 -8 -0.2194 1.0144
-2 -5 -7 -1.8641 1.0262
-2 -5 -6 -0.6836 0.6656
-2 -5 -5 -3.7696 0.6457
-2 -5 -4 -1.0676 0.7411
-2 -5 -3 -5.7230 -0.9365
-2 -5 -2 0.2633 0.7640
-2 -5 -1 -9.9103 -1.3721
-2 -4 -15 -0.1467 1.2764
-2 -4 -13 0.4032 0.5638
-2 -4 -12 -0.1640 1.2384
-2 -4 -10 0.7956 0.0750
-2 -4 -9 0.1684 -0.9923
-2 -4 -8 1.6385 -1.0249
-2 -4 -7 0.5368 -0.9939
-2 -4 -6 4.3415 -0.9532
-2 -4 -5 0.5687 -0.9366
-2 -4 -4 6.5209 0.4608
-2 -4 -3 1.2759 -0.8872
-2 -4 -2 10.0304 1.9499
-2 -4 -1 0.3628 -0.3643
-2 -3 -16 0.4252 -1.3938
-2 -3 -15 0.5879 -0.3685
-2 -3 -13 -0.2053 -1.1458
-2 -3 -10 -0.3571 0.3715
-2 -3 -9 -2.0273 0.5348
-2 -3 -8 -0.3662 0.7471
-2 -3 -7 -4.5140 1.0279
-2 -3 -6 -0.0244 0.8751
-2 -3 -5 -7.9838 0.2768
-2 -3 -4 -1.2671 0.8223
-2 -3 -3 -11.5205 -1.6701
-2 -3 -2 -2.6278 0.4149
-2 -3 -1 -17.0567 -1.7592
-2 -2 -16 0.2662 0.4605
-2 -2 -10 2.7539 -0.1226
-2 -2 -9 0.6873 -0.0853
-2 -2 -8 4.8081 -0.6138
-2 -2 -7 -0.1094 -0.1848
-2 -2 -6 9.6122 -0.6041
-2 -2 -5 0.1748 -0.1715
-2 -2 -4 15.4516 0.4334
-2 -2 -3 2.0476 -0.0452
-2 -2 -2 24.6520 1.7336
-2 -2 -1 2.6319 0.0097
-2 -1 -16 1.3060 -0.5566
-2 -1 -10 -1.5937 -0.3382
-2 -1 -9 -4.5160 0.3014
-2 -1 -8 -0.6363 -0.3348
-2 -1 -7 -9.7026 -0.1202
-2 -1 -6 0.3972 -0.7860
-2 -1 -5 -17.9639 0.0132
-2 -1 -4 -0.0696 -1.1346
-2 -1 -3 -30.5771 -0.1785
-2 -1 -2 -0.4524 -0.7286
-1 -24 -2 -0.6370 0.5444
-1 -24 -1 -0.0667 -0.2008
-1 -23 -4 0.1956 -0.4030
-1 -23 -3 0.5570 -0.4182
-1 -23 -2 -0.0195 0.0151
-1 -23 -1 1.1072 -0.3118
-1 -22 -4 -0.0827 0.1174
-1 -22 -3 -0.0802 0.0750
-1 -22 -2 -0.7822 0.2634
-1 -22 -1 -0.2154 -0.4581
-1 -21 -4 0.1496 -0.0974
-1 -21 -3 0.1184 -0.0266
-1 -21 -2 0.2499 0.5955
-1 -21 -1 0.6383 -0.0115
-1 -20 -5 -0.2659 0.2012
-1 -20 -4 0.3707 -0.0314
-1 -20 -3 -0.0308 -0.0807
-1 -20 -2 -0.0538 -0.1831
-1 -20 -1 -0.4939 -0.7850
-1 -19 -6 0.4009 -0.1199
-1 -19 -5 -0.8446 -0.1288
-1 -19 -4 -0.0605 -0.6831
-1 -19 -3 -0.4455 0.3596
-1 -19 -2 0.0400 0.3227
-1 -19 -1 -0.2590 0.2162
-1 -18 -7 -0.2259 0.0527
-1 -18 -6 0.8293 0.0180
-1 -18 -5 -0.0533 0.5628
-1 -18 -4 0.7546 -0.2733
-1 -18 -3 0.1177 0.6195
-1 -18 -2 0.6900 -0.4506
-1 -18 -1 -0.1789 -0.3212
-1 -17 -7 -0.2514 0.3208
-1 -17 -6 -0.0341 0.0820
-1 -17 -5 -0.4913 0.1668
-1 -17 -4 0.0055 -0.5356
-1 -17 -3 -0.3643 0.4161
-1 -17 -2 0.0720 -0.2775
-1 -17 -1 -1.3197 0.2262
-1 -16 -7 0.3474 -0.4272
-1 -16 -6 0.1235 -0.1897
-1 -16 -5 0.0652 -0.2461
-1 -16 -4 -0.4664 -0.3272
-1 -16 -3 0.0457 0.3329
-1 -16 -2 0.3225 -0.2116
-1 -16 -1 -0.0035 -0.1104
-1 -15 -8 -0.5444 0.5380
-1 -15 -7 -0.1011 -0.0728
-1 -15 -6 -0.2964 0.6247
-1 -15 -5 0.4728 0.3368
-1 -15 -4 -0.2103 0.1100
-1 -15 -3 0.9516 0.2771
-1 -15 -2 -0.2800 -0.0090
-1 -15 -1 -1.2118 0.0045
-1 -14 -8 -0.0831 0.2954
-1 -14 -7 0.4311 -0.4749
-1 -14 -6 0.1058 -0.0245
-1 -14 -5 0.1753 -0.3689
-1 -14 -4 -0.6772 -0.3605
-1 -14 -3 0.2252 -0.0311
-1 -14 -2 0.3500 -0.0820
-1 -14 -1 -0.0703 -0.3232
-1 -13 -7 0.1100 -0.2805
-1 -13 -6 -0.1442 0.3007
-1 -13 -5 -0.3194 -0.0040
-1 -13 -4 0.1311 -0.0256
-1 -13 -3 -0.2821 0.0646
-1 -13 -2 0.5982 0.1934
-1 -13 -1 -2.0299 -0.0635
-1 -12 -8 -0.6257 -0.0310
-1 -12 -7 0.1639 -0.0253
-1 -12 -6 0.2577 0.2737
-1 -12 -5 -0.0806 0.1562
-1 -12 -4 0.5981 0.2124
-1 -12 -3 -0.6191 0.1726
-1 -12 -2 0.8293 0.3452
-1 -12 -1 -1.7798 -0.4829
-1 -11 -8 -0.2345 -0.1635
-1 -11 -7 0.2331 0.0266
-1 -11 -5 -0.5021 -0.1251
-1 -11 -4 -0.2377 -0.5118
-1 -11 -3 0.0676 -0.4649
-1 -11 -2 0.6912 0.4152
-1 -11 -1 0.3491 -0.4089
-1 -10 -5 0.8647 0.1811
-1 -10 -4 -0.0436 -0.0321
-1 -10 -3 1.3088 -0.1934
-1 -10 -2 -1.3050 0.3867
-1 -10 -1 0.4940 -1.0124
-1 -9 -7 -0.5384 -0.0814
-1 -9 -5 -0.4949 0.1726
-1 -9 -4 -1.9549 0.2567
-1 -9 -3 0.8753 0.2725
-1 -9 -2 -2.6922 1.3340
-1 -9 -1 1.2202 0.0146
-1 -8 -11 0.6688 0.7914
-1 -8 -7 0.6768 -1.1724
-1 -8 -6 0.6537 0.4116
-1 -8 -5 1.0497 -0.6979
-1 -8 -4 -0.3511 -0.2506
-1 -8 -3 2.3767 -1.0296
-1 -8 -2 -0.3697 -0.3915
-1 -8 -1 2.1022 -1.3691
-1 -7 -13 1.9345 -1.5073
-1 -7 -11 0.8245 -1.2346
-1 -7 -10 -0.5638 -0.1764
-1 -7 -9 -0.3644 -0.7229
-1 -7 -8 -0.3705 0.4641
-1 -7 -7 -0.3107 -0.8226
-1 -7 -6 0.1465 0.6358
-1 -7 -5 0.3933 -0.4825
-1 -7 -4 -0.1348 0.5447
-1 -7 -3 0.3519 -0.0424
-1 -7 -2 0.9948 1.3911
-1 -7 -1 -2.2769 0.0614
-1 -6 -13 0.5442 -0.5626
-1 -6 -12 -1.1850 1.5258
-1 -6 -10 0.1566 1.1769
-1 -6 -9 -0.0545 0.0191
-1 -6 -8 -0.0333 1.0248
-1 -6 -7 -0.9877 0.1218
-1 -6 -6 -0.6249 1.0323
-1 -6 -5 -2.2444 -0.0610
-1 -6 -4 -0.6625 1.0135
-1 -6 -3 -4.3783 -0.9765
-1 -6 -2 2.1380 0.6900
-1 -6 -1 -8.9088 -1.1804
-1 -5 -15 0.2645 0.2989
-1 -5 -12 -0.3303 1.3883
-1 -5 -11 0.2028 -1.2698
-1 -5 -10 0.3820 0.4873
-1 -5 -9 0.1803 -1.2400
-1 -5 -8 1.2890 -0.6375
-1 -5 -7 0.8059 -1.4108
-1 -5 -6 3.7972 -0.5903
-1 -5 -5 0.5354 -1.8082
-1 -5 -4 6.6637 0.6724
-1 -5 -3 -0.9365 -1.8235
-1 -5 -2 12.1722 1.6880
-1 -5 -1 -4.5522 -0.7375
-1 -4 -14 -0.0909 -0.9874
-1 -4 -13 0.3541 -1.4699
-1 -4 -11 -0.7329 -1.4121
-1 -4 -10 -0.4072 1.0156
-1 -4 -9 -1.5498 0.2388
-1 -4 -8 -0.8484 1.3905
-1 -4 -7 -4.3150 1.2148
-1 -4 -6 -0.3112 2.1356
-1 -4 -5 -8.4204 0.1039
-1 -4 -4 0.1898 2.7039
-1 -4 -3 -13.6019 -1.9549
-1 -4 -2 1.7631 1.8136
-1 -4 -1 -20.9969 -1.7556
-1 -3 -16 -0.2199 0.2457
-1 -3 -11 0.9384 -0.0869
-1 -3 -10 2.2148 0.7199
-1 -3 -9 0.9770 -0.7630
-1 -3 -8 4.4804 -1.0617
-1 -3 -7 0.3199 -1.4812
-1 -3 -6 9.7924 -1.2531
-1 -3 -5 -0.2273 -2.5993
-1 -3 -4 16.2782 0.9925
-1 -3 -3 0.1780 -2.5328
-1 -3 -2 26.1691 2.5931
-1 -3 -1 -0.5786 -0.9413
-1 -2 -16 1.4240 -0.8989
-1 -2 -14 1.2043 -1.5606
-1 -2 -10 -1.6330 0.0103
-1 -2 -9 -4.4873 0.2105
-1 -2 -8 -0.8492 0.4248
-1 -2 -7 -10.1368 1.2948
-1 -2 -6 0.3250 1.2375
-1 -2 -5 -19.2169 0.4747
-1 -2 -4 0.1286 1.9210
-1 -2 -3 -32.7492 -1.6515
-1 -2 -2 -0.1563 1.3233
-1 -2 -1 -48.3324 -1.6153
-1 -1 -15 -2.6028 0.6715
-1 -1 -12 3.6032 0.4122
-1 -1 -10 4.1212 0.0571
-1 -1 -9 1.9493 0.0700
-1 -1 -8 8.5751 -0.3377
-1 -1 -7 0.4179 -0.0668
-1 -1 -6 19.0160 -0.4210
-1 -1 -5 -0.8675 -0.3102
-1 -1 -4 35.0249 0.2118
-1 -1 -3 -1.2181 -0.4129
-1 -1 -2 58.2275 0.8829
-1 -1 -1 -1.7353 -0.1986
0 -24 -2 0.1047 -0.3373
0 -24 -1 0.6603 -0.3554
0 -23 -4 -0.3721 0.0633
0 -23 -3 -0.2496 0.5735
0 -23 -2 -0.8492 0.3858
0 -23 -1 -0.0961 0.0129
0 -22 -4 0.3108 -0.2928
0 -22 -3 0.4043 -0.1118
0 -22 -2 0.3027 -0.0471
0 -22 -1 0.7913 -0.0908
0 -21 -4 0.0286 0.0173
0 -21 -3 -0.3605 -0.0692
0 -21 -2 -0.2991 -0.0086
0 -21 -1 -0.5772 -0.5076
0 -20 -6 0.2241 0.2225
0 -20 -5 -0.5282 -0.2768
0 -20 -4 0.1927 -0.1574
0 -20 -3 -0.2219 0.0413
0 -20 -2 0.4221 0.5261
0 -20 -1 0.4097 0.0837
0 -19 -6 0.9540 0.3430
0 -19 -5 -0.1615 0.3421
0 -19 -4 0.8244 0.0813
0 -19 -3 -0.1001 0.2068
0 -19 -2 0.0909 -0.2250
0 -19 -1 -0.4642 -0.5107
0 -18 -6 0.2195 -0.2272
0 -18 -5 -1.0418 -0.1183
0 -18 -4 0.0406 -0.6546
0 -18 -3 -0.5802 0.2829
0 -18 -2 0.1601 -0.1326
0 -18 -1 -0.0457 0.2636
0 -17 -7 -0.1205 0.2187
0 -17 -6 0.6449 -0.2021
0 -17 -5 -0.0234 0.2954
0 -17 -4 0.3690 -0.2495
0 -17 -3 0.0263 0.6425
0 -17 -2 0.1373 -0.4337
0 -17 -1 0.0047 -0.0250
0 -16 -7 -0.3723 0.3964
0 -16 -6 -0.1356 0.0148
0 -16 -5 0.0550 0.4311
0 -16 -4 -0.3357 -0.3902
0 -16 -3 0.5968 0.5093
0 -16 -2 -0.4527 -0.3879
0 -16 -1 -0.1101 0.2443
0 -15 -7 0.3466 0.0272
0 -15 -6 0.1318 -0.5482
0 -15 -5 0.5192 0.0965
0 -15 -4 -0.8937 -0.7706
0 -15 -3 0.8374 0.3996
0 -15 -2 -0.4958 -0.4504
0 -15 -1 0.8109 -0.0622
0 -14 -7 -0.1973 0.3601
0 -14 -6 -0.5032 -0.0745
0 -14 -5 0.1161 0.8240
0 -14 -4 -0.6427 -0.3035
0 -14 -3 0.5648 0.7631
0 -14 -2 -0.6919 -0.1824
0 -14 -1 -0.9504 0.2474
0 -13 -7 0.4669 0.1656
0 -13 -6 0.2269 -0.5123
0 -13 -5 0.3604 0.2431
0 -13 -4 0.1600 -0.7805
0 -13 -3 0.1853 0.4346
0 -13 -2 0.5440 -0.4141
0 -13 -1 -0.0578 -0.1328
0 -12 -7 0.2301 0.3681
0 -12 -6 -0.5789 -0.1719
0 -12 -5 -0.4476 0.7097
0 -12 -4 -0.3376 -0.6007
0 -12 -3 -0.1060 0.3772
0 -12 -2 -0.0645 -0.1592
0 -12 -1 -0.1479 -0.0136
0 -11 -7 0.8921 -0.0408
0 -11 -5 1.2077 0.4719
0 -11 -4 0.0182 -0.7313
0 -11 -3 1.5161 0.3200
0 -11 -2 -1.1992 0.1243
0 -11 -1 1.6312 -0.5242
0 -10 -7 -0.2510 0.6575
0 -10 -5 -0.3494 1.1914
0 -10 -4 -2.9609 -0.2225
0 -10 -3 1.1561 0.5029
0 -10 -2 -4.4034 0.8573
0 -10 -1 2.4250 -0.1356
0 -9 -5 3.1953 -0.3591
0 -9 -4 -0.4199 -1.1329
0 -9 -3 5.6127 -0.8112
0 -9 -2 -1.8280 -0.4528
0 -9 -1 7.5615 -1.2667
0 -8 -8 -1.7058 0.5574
0 -8 -7 -0.5538 -0.0687
0 -8 -6 -2.6657 0.8581
0 -8 -5 0.2013 0.6647
0 -8 -4 -4.5397 0.5032
0 -8 -3 1.3070 0.9245
0 -8 -2 -6.7087 1.2877
0 -8 -1 0.8373 0.3597
0 -7 -13 0.0939 -0.1584
0 -7 -10 0.3007 0.6256
0 -7 -9 0.9142 -0.0416
0 -7 -8 0.4187 0.4867
0 -7 -7 1.6998 -0.5058
0 -7 -6 -0.4592 0.2111
0 -7 -5 2.5243 -0.2639
0 -7 -4 -1.3891 -0.3663
0 -7 -3 3.3660 -0.4862
0 -7 -2 -0.1865 -0.4084
0 -7 -1 2.7365 -0.8151
0 -6 -15 0.3325 -0.3098
0 -6 -13 0.8661 -1.2366
0 -6 -11 -0.1145 -1.1816
0 -6 -9 -0.4505 -0.8210
0 -6 -8 -0.5306 -0.1491
0 -6 -7 0.5800 -0.8864
0 -6 -6 -0.3775 -0.1130
0 -6 -5 1.2639 -0.7077
0 -6 -4 0.0735 0.0773
0 -6 -3 0.2118 -0.5048
0 -6 -2 2.5923 0.4658
0 -6 -1 -3.1780 -0.1669
0 -5 -10 0.2567 1.0881
0 -5 -9 -0.4178 0.1009
0 -5 -8 -0.5378 1.2936
0 -5 -7 -1.3609 0.6736
0 -5 -6 -0.7944 1.7143
0 -5 -5 -3.0935 0.0712
0 -5 -4 -0.1366 1.9288
0 -5 -3 -6.0097 -0.6288
0 -5 -2 2.7923 1.2795
0 -5 -1 -11.3058 -0.6975
0 -4 -14 -0.0132 0.4338
0 -4 -10 1.2504 0.7813
0 -4 -9 0.6405 -1.1472
0 -4 -8 2.4855 -0.7650
0 -4 -7 0.5199 -1.9002
0 -4 -6 5.6349 -0.7964
0 -4 -5 -0.1797 -2.8980
0 -4 -4 9.2502 0.7236
0 -4 -3 -1.2117 -2.7427
0 -4 -2 15.8150 1.3865
0 -4 -1 -3.8552 -1.0167
0 -3 -12 -0.9311 -0.0104
0 -3 -11 -2.1446 -1.5542
0 -3 -10 -1.2326 0.6012
0 -3 -9 -3.2773 -0.0651
0 -3 -8 -0.7260 1.0933
0 -3 -7 -7.2689 1.2930
0 -3 -6 0.3369 2.3295
0 -3 -5 -13.2517 0.2623
0 -3 -4 0.4482 3.2179
0 -3 -3 -21.9703 -1.4930
0 -3 -2 1.2020 2.1031
0 -3 -1 -33.0681 -1.3195
0 -2 -16 0.7734 0.2379
0 -2 -14 2.3793 0.8197
0 -2 -12 3.0829 1.2875
0 -2 -11 1.8354 -0.0801
0 -2 -10 3.6672 0.7771
0 -2 -9 1.6165 -0.3227
0 -2 -8 7.3730 -0.6052
0 -2 -7 0.2151 -0.8793
0 -2 -6 15.8342 -0.9196
0 -2 -5 -0.7131 -1.9395
0 -2 -4 28.2862 0.4568
0 -2 -3 -0.7585 -1.9907
0 -2 -2 46.8131 1.3072
0 -2 -1 -1.4656 -0.7510
0 -1 -16 2.5240 -0.0359
0 -1 -14 2.1832 -0.1855
0 -1 -11 -3.8639 -0.4424
0 -1 -10 -2.5532 0.0402
0 -1 -9 -5.9165 -0.0832
0 -1 -8 -1.5744 0.1114
0 -1 -7 -14.4998 0.3246
0 -1 -6 0.3799 0.4184
0 -1 -5 -29.3648 0.0848
0 -1 -4 1.7196 0.6950
0 -1 -3 -52.5075 -0.4253
0 -1 -2 2.5905 0.4814
0 -1 -1 -77.2343 -0.4672
0 0 1 -3.9967 0.0029
0 0 2 74.6755 -0.0972
0 0 3 -3.0617 0.0063
0 0 4 44.6751 -0.1185
0 0 5 -1.4687 0.0051
0 0 6 23.4320 -0.0856
0 0 7 0.8468 0.0034
0 0 8 10.0276 -0.0701
0 0 9 2.6078 0.0025
0 0 10 4.4632 -0.0565
0 0 14 3.2599 -0.0147
0 1 0 3.0763 -0.0172
0 1 1 -77.2343 0.4672
0 1 2 2.5905 -0.4814
0 1 3 -52.5075 0.4253
0 1 4 1.7196 -0.6950
0 1 5 -29.3648 -0.0848
0 1 6 0.3799 -0.4184
0 1 7 -14.4998 -0.3246
0 1 8 -1.5744 -0.1114
0 1 9 -5.9165 0.0832
0 1 10 -2.5532 -0.0402
0 1 12 -1.1776 0.0804
0 1 14 2.1832 0.1855
0 1 15 -2.0853 0.2252
0 2 0 57.9822 -0.3809
0 2 1 -1.4656 0.7510
0 2 2 46.8131 -1.3072
0 2 3 -0.7585 1.9907
0 2 4 28.2862 -0.4568
0 2 5 -0.7131 1.9395
0 2 6 15.8342 0.9196
0 2 7 0.2151 0.8793
0 2 8 7.3730 0.6052
0 2 9 1.6165 0.3227
0 2 10 3.6672 -0.7771
0 2 13 -0.0330 -0.4469
0 2 16 0.7734 -0.2379
0 3 0 2.2609 0.0046
0 3 1 -33.0681 1.3195
0 3 2 1.2020 -2.1031
0 3 3 -21.9703 1.4930
0 3 4 0.4482 -3.2179
0 3 5 -13.2517 -0.2623
0 3 6 0.3369 -2.3295
0 3 7 -7.2689 -1.2930
0 3 8 -0.7260 -1.0933
0 3 9 -3.2773 0.0651
0 3 10 -1.2326 -0.6012
0 3 12 -0.9311 0.0104
0 3 13 -1.5327 1.3963
0 3 15 -0.7618 0.2976
0 3 16 0.6992 0.5067
0 4 0 20.7094 -0.4419
0 4 1 -3.8552 1.0167
0 4 2 15.8150 -1.3865
0 4 3 -1.2117 2.7427
0 4 4 9.2502 -0.7236
0 4 5 -0.1797 2.8980
0 4 6 5.6349 0.7964
0 4 7 0.5199 1.9002
0 4 8 2.4855 0.7650
0 4 9 0.6405 1.1472
0 4 10 1.2504 -0.7813
0 4 11 0.4407 0.8030
0 4 12 0.6537 -1.5287
0 4 13 0.3600 -0.0255
0 4 14 -0.0132 -0.4338
0 4 15 -0.2520 -0.7674
0 4 16 -0.2342 0.4734
0 5 0 5.3119 0.0156
0 5 1 -11.3058 0.6975
0 5 2 2.7923 -1.2795
0 5 3 -6.0097 0.6288
0 5 4 -0.1366 -1.9288
0 5 5 -3.0935 -0.0712
0 5 6 -0.7944 -1.7143
0 5 7 -1.3609 -0.6736
0 5 8 -0.5378 -1.2936
0 5 9 -0.4178 -0.1009
0 5 10 0.2567 -1.0881
0 5 12 -0.2445 -1.0590
0 5 13 0.3430 0.8026
0 5 15 0.5779 -0.5131
0 6 0 5.0174 -0.4053
0 6 1 -3.1780 0.1669
0 6 2 2.5923 -0.4658
0 6 3 0.2118 0.5048
0 6 4 0.0735 -0.0773
0 6 5 1.2639 0.7077
0 6 6 -0.3775 0.1130
0 6 7 0.5800 0.8864
0 6 8 -0.5306 0.1491
0 6 9 -0.4505 0.8210
0 6 10 -0.1487 -0.2781
0 6 11 -0.1145 1.1816
0 6 12 -0.2077 -0.7965
0 6 13 0.8661 1.2366
0 6 14 -0.3418 0.0386
0 6 15 0.3325 0.3098
0 7 0 1.4768 0.0042
0 7 1 2.7365 0.8151
0 7 2 -0.1865 0.4084
0 7 3 3.3660 0.4862
0 7 4 -1.3891 0.3663
0 7 5 2.5243 0.2639
0 7 6 -0.4592 -0.2111
0 7 7 1.6998 0.5058
0 7 8 0.4187 -0.4867
0 7 9 0.9142 0.0416
0 7 10 0.3007 -0.6256
0 7 11 0.3555 0.0948
0 7 12 -1.0715 -1.3624
0 7 13 0.0939 0.1584
0 7 14 -1.1200 -1.0144
0 7 15 -0.1585 -0.4806
0 8 0 -7.4026 -0.3968
0 8 1 0.8373 -0.3597
0 8 2 -6.7087 -1.2877
0 8 3 1.3070 -0.9245
0 8 4 -4.5397 -0.5032
0 8 5 0.2013 -0.6647
0 8 6 -2.6657 -0.8581
0 8 7 -0.5538 0.0687
0 8 8 -1.7058 -0.5574
0 8 9 -0.3824 0.1615
0 8 10 -0.7765 0.4820
0 8 11 0.6155 0.7916
0 8 12 -0.2746 0.2532
0 8 13 1.5070 1.3308
0 8 14 0.2406 0.3669
0 8 15 0.7606 0.4326
0 9 0 -2.0628 0.0032
0 9 1 7.5615 1.2667
0 9 2 -1.8280 0.4528
0 9 3 5.6127 0.8112
0 9 4 -0.4199 1.1329
0 9 5 3.1953 0.3591
0 9 6 0.6553 0.7398
0 9 7 2.0030 0.8366
0 9 8 0.3930 0.1878
0 9 9 1.0713 -0.2440
0 9 10 0.0563 -0.1344
0 9 11 0.4185 -0.5616
0 9 12 -0.8122 -1.1008
0 9 13 0.1722 -0.1470
0 9 14 -1.1146 -0.9352
0 9 15 -0.2239 -0.4843
0 10 0 -4.9596 -0.3785
0 10 1 2.4250 0.1356
0 10 2 -4.4034 -0.8573
0 10 3 1.1561 -0.5029
0 10 4 -2.9609 0.2225
0 10 5 -0.3494 -1.1914
0 10 6 -1.8272 -0.2120
0 10 7 -0.2510 -0.6575
0 10 8 -1.0646 -0.1481
0 10 9 -0.1521 -0.2623
0 10 10 -0.3116 0.3391
0 10 11 -0.1683 0.3310
0 10 12 -0.4374 -0.2924
0 10 13 0.6107 1.0487
0 10 14 -0.3160 -0.1130
0 11 0 -1.6120 0.0073
0 11 1 1.6312 0.5242
0 11 2 -1.1992 -0.1243
0 11 3 1.5161 -0.3200
0 11 4 0.0182 0.7313
0 11 5 1.2077 -0.4719
0 11 6 0.2216 0.8479
0 11 7 0.8921 0.0408
0 11 8 -0.2539 0.3866
0 11 9 0.1908 -0.1217
0 11 10 0.3172 0.3480
0 11 11 0.2462 0.5471
0 11 12 0.2224 -0.2624
0 11 13 0.8317 0.9202
0 11 14 -0.2858 -0.7302
0 12 0 0.1306 -0.3822
0 12 1 -0.1479 0.0136
0 12 2 -0.0645 0.1592
0 12 3 -0.1060 -0.3772
0 12 4 -0.3376 0.6007
0 12 5 -0.4476 -0.7097
0 12 6 -0.5789 0.1719
0 12 7 0.2301 -0.3681
0 12 8 -0.3023 0.1775
0 12 9 0.1625 -0.4882
0 12 10 0.0849 -0.2276
0 12 11 -0.5749 -0.6395
0 12 12 -0.7234 -1.1606
0 12 13 -0.3776 0.2023
0 12 14 -0.8706 -0.7621
0 13 0 1.4896 0.0108
0 13 1 -0.0578 0.1328
0 13 2 0.5440 0.4141
0 13 3 0.1853 -0.4346
0 13 4 0.1600 0.7805
0 13 5 0.3604 -0.2431
0 13 6 0.2269 0.5123
0 13 7 0.4669 -0.1656
0 13 8 -0.2113 0.3271
0 13 9 0.0136 -0.1900
0 13 10 0.4192 0.8101
0 13 11 0.1994 0.6834
0 13 12 0.8226 0.5187
0 13 13 0.9817 1.0160
0 14 0 -0.5444 -0.3464
0 14 1 -0.9504 -0.2474
0 14 2 -0.6919 0.1824
0 14 3 0.5648 -0.7631
0 14 4 -0.6427 0.3035
0 14 5 0.1161 -0.8240
0 14 6 -0.5032 0.0745
0 14 7 -0.1973 -0.3601
0 14 8 -0.3441 0.1929
0 14 9 -0.2970 -0.4146
0 14 10 -0.1210 -0.2118
0 14 11 -0.7665 -0.5963
0 14 12 -0.6461 -0.8350
0 14 13 -0.6684 -0.1388
0 15 0 0.6957 0.0157
0 15 1 0.8109 0.0622
0 15 2 -0.4958 0.4504
0 15 3 0.8374 -0.3996
0 15 4 -0.8937 0.7706
0 15 5 0.5192 -0.0965
0 15 6 0.1318 0.5482
0 15 7 0.3466 -0.0272
0 15 8 0.3533 0.2511
0 15 9 0.3321 0.0232
0 15 10 0.4619 0.2040
0 15 11 0.5130 0.5453
0 15 12 0.4045 0.1844
0 15 13 0.6851 0.4192
0 16 0 -0.4421 -0.3442
0 16 1 -0.1101 -0.2443
0 16 2 -0.4527 0.3879
0 16 3 0.5968 -0.5093
0 16 4 -0.3357 0.3902
0 16 5 0.0550 -0.4311
0 16 6 -0.1356 -0.0148
0 16 7 -0.3723 -0.3964
0 16 8 -0.1783 0.1669
0 16 9 -0.2324 -0.2726
0 16 10 -0.4240 -0.1181
0 16 11 -0.1232 0.0568
0 16 12 -0.4898 -0.3247
0 17 0 0.2255 0.0206
0 17 1 0.0047 0.0250
0 17 2 0.1373 0.4337
0 17 3 0.0263 -0.6425
0 17 4 0.3690 0.2495
0 17 5 -0.0234 -0.2954
0 17 6 0.6449 0.2021
0 17 7 -0.1205 -0.2187
0 17 8 0.2725 0.6085
0 17 9 0.0693 -0.3596
0 17 10 -0.0462 0.2282
0 17 11 0.2052 0.0246
0 17 12 -0.0638 -0.1329
0 18 0 0.3002 -0.3022
0 18 1 -0.0457 -0.2636
0 18 2 0.1601 0.1326
0 18 3 -0.5802 -0.2829
0 18 4 0.0406 0.6546
0 18 5 -1.0418 0.1183
0 18 6 0.2195 0.2272
0 18 7 -0.7128 -0.2348
0 18 8 0.2304 0.2898
0 18 9 0.0945 -0.5964
0 18 10 0.0099 0.1555
0 18 11 0.1734 -0.0165
0 19 0 -0.3848 0.0251
0 19 1 -0.4642 0.5107
0 19 2 0.0909 0.2250
0 19 3 -0.1001 -0.2068
0 19 4 0.8244 -0.0813
0 19 5 -0.1615 -0.3421
0 19 6 0.9540 -0.3430
0 19 7 -0.3077 0.1133
0 19 8 0.0731 0.1561
0 19 9 -0.0601 0.1374
0 19 10 -0.4820 0.2596
0 19 11 0.0154 0.1043
0 20 0 0.7278 -0.2691
0 20 1 0.4097 -0.0837
0 20 2 0.4221 -0.5261
0 20 3 -0.2219 -0.0413
0 20 4 0.1927 0.1574
0 20 5 -0.5282 0.2768
0 20 6 0.2241 -0.2225
0 20 7 -0.0490 0.2915
0 20 8 0.0629 -0.4389
0 20 9 0.6577 -0.0456
0 20 10 -0.1273 -0.3936
0 21 0 -0.6469 0.0208
0 21 1 -0.5772 0.5076
0 21 2 -0.2991 0.0086
0 21 3 -0.3605 0.0692
0 21 4 0.0286 -0.0173
0 21 5 -0.1980 0.0707
0 21 6 -0.2333 -0.0427
0 21 7 0.0582 0.3899
0 21 8 -0.7134 -0.0245
0 21 9 0.0483 0.3532
0 22 0 0.3230 -0.2749
0 22 1 0.7913 0.0908
0 22 2 0.3027 0.0471
0 22 3 0.4043 0.1118
0 22 4 0.3108 0.2928
0 22 5 0.2689 -0.1859
0 22 6 -0.0532 -0.1489
0 22 7 0.5715 -0.2374
0 22 8 -0.1674 -0.2098
0 23 0 -0.9508 0.0240
0 23 1 -0.0961 -0.0129
0 23 2 -0.8492 -0.3858
0 23 3 -0.2496 -0.5735
0 23 4 -0.3721 -0.0633
0 23 5 -0.2520 -0.2643
0 23 6 -0.1570 0.2822
0 24 0 0.0846 -0.2260
0 24 1 0.6603 0.3554
0 24 2 0.1047 0.3373
0 24 5 0.0682 -0.0757
1 1 0 71.7871 -0.1955
1 1 1 -1.7353 0.1986
1 1 2 58.2275 -0.8829
1 1 3 -1.2181 0.4129
1 1 4 35.0249 -0.2118
1 1 5 -0.8675 0.3102
1 1 6 19.0160 0.4210
1 1 7 0.4179 0.0668
1 1 8 8.5751 0.3377
1 1 9 1.9493 -0.0700
1 1 10 4.1212 -0.0571
1 1 12 3.6032 -0.4122
1 1 14 2.8525 -0.5336
1 2 0 0.1408 -0.0142
1 2 1 -48.3324 1.6153
1 2 2 -0.1563 -1.3233
1 2 3 -32.7492 1.6515
1 2 4 0.1286 -1.9210
1 2 5 -19.2169 -0.4747
1 2 6 0.3250 -1.2375
1 2 7 -10.1368 -1.2948
1 2 8 -0.8492 -0.4248
1 2 9 -4.4873 -0.2105
1 2 10 -1.6330 -0.0103
1 2 16 1.4240 0.8989
1 3 0 32.7808 -0.4379
1 3 1 -0.5786 0.9413
1 3 2 26.1691 -2.5931
1 3 3 0.1780 2.5328
1 3 4 16.2782 -0.9925
1 3 5 -0.2273 2.5993
1 3 6 9.7924 1.2531
1 3 7 0.3199 1.4812
1 3 8 4.4804 1.0617
1 3 9 0.9770 0.7630
1 3 10 2.2148 -0.7199
1 3 12 1.4212 -1.8504
1 3 13 0.1815 -1.2292
1 3 15 -0.9057 -1.6422
1 3 16 -0.2199 -0.2457
1 4 0 3.4249 0.0153
1 4 1 -20.9969 1.7556
1 4 2 1.7631 -1.8136
1 4 3 -13.6019 1.9549
1 4 4 0.1898 -2.7039
1 4 5 -8.4204 -0.1039
1 4 6 -0.3112 -2.1356
1 4 7 -4.3150 -1.2148
1 4 8 -0.8484 -1.3905
1 4 9 -1.5498 -0.2388
1 4 10 -0.4072 -1.0156
1 4 11 -0.7329 1.4121
1 4 13 0.3541 1.4699
1 4 15 0.9789 0.0667
1 4 16 0.2152 0.9159
1 5 0 16.4798 -0.4281
1 5 1 -4.5522 0.7375
1 5 2 12.1722 -1.6880
1 5 3 -0.9365 1.8235
1 5 5 0.5354 1.8082
1 5 6 3.7972 0.5903
1 5 7 0.8059 1.4108
1 5 8 1.2890 0.6375
1 5 9 0.1803 1.2400
1 5 10 0.3820 -0.4873
1 5 12 -0.3303 -1.3883
1 5 13 0.9160 0.6548
1 5 14 -1.1393 -0.3635
1 5 15 0.2645 -0.2989
1 6 0 4.9027 0.0078
1 6 1 -8.9088 1.1804
1 6 2 2.1380 -0.6900
1 6 3 -4.3783 0.9765
1 6 4 -0.6625 -1.0135
1 6 5 -2.2444 0.0610
1 6 6 -0.6249 -1.0323
1 6 7 -0.9877 -0.1218
1 6 8 -0.0333 -1.0248
1 6 9 -0.0545 -0.0191
1 6 12 -1.1850 -1.5258
1 6 13 0.5442 0.5626
1 6 14 -1.2225 -0.8636
1 6 15 0.6386 -0.4147
1 7 0 2.6932 -0.4251
1 7 1 -2.2769 -0.0614
1 7 2 0.9948 -1.3911
1 7 3 0.3519 0.0424
1 7 4 -0.1348 -0.5447
1 7 5 0.3933 0.4825
1 7 6 0.1465 -0.6358
1 7 7 -0.3107 0.8226
1 7 8 -0.3705 -0.4641
1 7 9 -0.3644 0.7229
1 7 10 -0.5638 0.1764
1 7 11 0.8245 1.2346
1 7 12 -0.3343 0.0400
1 7 13 1.9345 1.5073
1 7 14 0.0584 0.4048
1 7 15 0.9011 0.5937
1 8 0 0.6251 0.0018
1 8 1 2.1022 1.3691
1 8 2 -0.3697 0.3915
1 8 3 2.3767 1.0296
1 8 4 -0.3511 0.2506
1 8 5 1.0497 0.6979
1 8 6 0.6537 -0.4116
1 8 8 0.5094 -0.4098
1 8 9 0.9956 -0.0942
1 8 10 -0.1820 -0.4608
1 8 11 0.6688 -0.7914
1 8 12 -1.5964 -1.4110
1 8 13 -0.0966 -0.6523
1 8 14 -1.6608 -1.0753
1 8 15 -0.4796 -0.7823
1 9 0 -2.3370 -0.4098
1 9 1 1.2202 -0.0146
1 9 2 -2.6922 -1.3340
1 9 3 0.8753 -0.2725
1 9 4 -1.9549 -0.2567
1 9 5 -0.4949 -0.1726
1 9 6 -0.8333 -0.8182
1 9 7 -0.5384 0.0814
1 9 8 -0.9520 -0.4345
1 9 9 -0.1186 -0.1705
1 9 10 -0.8487 0.7946
1 9 11 0.5539 0.6286
1 9 12 -0.2838 0.6137
1 9 13 1.5654 1.4216
1 9 14 0.4131 0.6376
1 9 15 0.9623 0.4377
1 10 0 -1.5543 0.0078
1 10 1 0.4940 1.0124
1 10 2 -1.3050 -0.3867
1 10 3 1.3088 0.1934
1 10 4 -0.0436 0.0321
1 10 5 0.8647 -0.1811
1 10 6 0.4242 0.1209
1 10 7 0.5890 0.3560
1 10 8 -0.1131 0.3329
1 10 9 0.5710 -0.3738
1 10 10 -0.0315 0.2775
1 10 11 0.3787 -0.2078
1 10 12 -0.6975 -0.8905
1 10 13 0.0438 0.0943
1 10 14 -1.0726 -1.0552
1 11 0 1.6902 -0.3972
1 11 1 0.3491 0.4089
1 11 2 0.6912 -0.4152
1 11 3 0.0676 0.4649
1 11 4 -0.2377 0.5118
1 11 5 -0.5021 0.1251
1 11 6 -0.2691 0.0751
1 11 7 0.2331 -0.0266
1 11 8 -0.2345 0.1635
1 11 9 0.3889 -0.4910
1 11 10 -0.0657 0.0432
1 11 11 0.1033 -0.1583
1 11 12 -0.2825 -0.7737
1 11 13 0.5044 0.8656
1 11 14 0.0051 -0.4295
1 12 0 1.5705 0.0098
1 12 1 -1.7798 0.4829
1 12 2 0.8293 -0.3452
1 12 3 -0.6191 -0.1726
1 12 4 0.5981 -0.2124
1 12 5 -0.0806 -0.1562
1 12 6 0.2577 -0.2737
1 12 7 0.1639 0.0253
1 12 8 -0.6257 0.0310
1 12 9 -0.0877 -0.1485
1 12 10 -0.1979 0.5623
1 12 11 0.0119 0.7580
1 12 12 0.1228 -0.0459
1 12 13 0.4379 1.0490
1 12 14 0.1175 -0.7830
1 13 1 -2.0299 0.0635
1 13 2 0.5982 -0.1934
1 13 3 -0.2821 -0.0646
1 13 4 0.1311 0.0256
1 13 5 -0.3194 0.0040
1 13 6 -0.1442 -0.3007
1 13 7 0.1100 0.2805
1 13 8 -0.2167 -0.0570
1 13 9 0.3441 -0.1129
1 13 10 0.1312 -0.4480
1 13 11 -0.2934 -0.2876
1 13 12 -0.4063 -1.2193
1 13 13 -0.5223 0.4108
1 14 0 2.2591 0.0103
1 14 1 -0.0703 0.3232
1 14 2 0.3500 0.0820
1 14 3 0.2252 0.0311
1 14 4 -0.6772 0.3605
1 14 5 0.1753 0.3689
1 14 6 0.1058 0.0245
1 14 7 0.4311 0.4749
1 14 8 -0.0831 -0.2954
1 14 9 0.2699 0.4615
1 14 10 0.1304 -0.1589
1 14 11 0.3197 1.1517
1 14 12 0.4662 -0.2493
1 14 13 0.7973 0.9554
1 15 0 -0.1348 -0.3399
1 15 1 -1.2118 -0.0045
1 15 2 -0.2800 0.0090
1 15 3 0.9516 -0.2771
1 15 4 -0.2103 -0.1100
1 15 5 0.4728 -0.3368
1 15 6 -0.2964 -0.6247
1 15 7 -0.1011 0.0728
1 15 8 -0.5444 -0.5380
1 15 9 0.0308 0.4172
1 15 10 -0.5097 -0.9353
1 15 11 -0.1263 0.5623
1 15 12 -0.7882 -1.1278
1 15 13 -0.2436 0.3149
1 16 0 1.7231 0.0106
1 16 1 -0.0035 0.1104
1 16 2 0.3225 0.2116
1 16 3 0.0457 -0.3329
1 16 4 -0.4664 0.3272
1 16 5 0.0652 0.2461
1 16 6 0.1235 0.1897
1 16 7 0.3474 0.4272
1 16 8 -0.0788 0.0637
1 16 9 0.5066 0.3747
1 16 10 -0.1772 -0.4607
1 16 11 0.6215 0.8472
1 16 12 -0.0111 -0.5697
1 17 0 0.1848 -0.3406
1 17 1 -1.3197 -0.2262
1 17 2 0.0720 0.2775
1 17 3 -0.3643 -0.4161
1 17 4 0.0055 0.5356
1 17 5 -0.4913 -0.1668
1 17 6 -0.0341 -0.0820
1 17 7 -0.2514 -0.3208
1 17 8 -0.1743 0.0557
1 17 9 0.3386 -0.3165
1 17 10 -0.3146 -0.1874
1 17 11 0.2061 0.4296
1 17 12 -0.2869 -0.3974
1 18 0 0.9906 0.0218
1 18 1 -0.1789 0.3212
1 18 2 0.6900 0.4506
1 18 3 0.1177 -0.6195
1 18 4 0.7546 0.2733
1 18 5 -0.0533 -0.5628
1 18 6 0.8293 -0.0180
1 18 7 -0.2259 -0.0527
1 18 8 -0.1201 0.4996
1 18 9 -0.0040 -0.0934
1 18 10 -0.5517 0.2651
1 18 11 0.1358 0.1862
1 19 0 0.4439 -0.2983
1 19 1 -0.2590 -0.2162
1 19 2 0.0400 -0.3227
1 19 3 -0.4455 -0.3596
1 19 4 -0.0605 0.6831
1 19 5 -0.8446 0.1288
1 19 6 0.4009 0.1199
1 19 7 -0.2484 0.0714
1 19 8 0.3289 -0.1491
1 19 9 0.7850 -0.4673
1 19 10 -0.0980 -0.2084
1 19 11 0.5652 -0.1358
1 20 0 -0.2826 0.0176
1 20 1 -0.4939 0.7850
1 20 2 -0.0538 0.1831
1 20 3 -0.0308 0.0807
1 20 4 0.3707 0.0314
1 20 5 -0.2659 -0.2012
1 20 6 0.1984 -0.2595
1 20 7 -0.4332 0.2848
1 20 8 -0.7694 0.1733
1 20 9 -0.1183 0.2327
1 20 10 -0.9173 0.3806
1 21 0 0.5669 -0.2986
1 21 1 0.6383 0.0115
1 21 2 0.2499 -0.5955
1 21 3 0.1184 0.0266
1 21 4 0.1496 0.0974
1 21 5 -0.0503 0.0612
1 21 6 0.2366 -0.1831
1 21 7 0.6141 -0.1363
1 21 8 0.1760 -0.1085
1 21 9 0.9308 -0.3960
1 22 0 -1.1506 0.0230
1 22 1 -0.2154 0.4581
1 22 2 -0.7822 -0.2634
1 22 3 -0.0802 -0.0750
1 22 4 -0.0827 -0.1174
1 22 5 -0.1768 -0.1054
1 22 6 -0.1334 0.1844
1 22 7 0.0032 0.0892
1 22 8 -0.6099 0.3485
1 23 0 0.0937 -0.2672
1 23 1 1.1072 0.3118
1 23 2 -0.0195 -0.0151
1 23 3 0.5570 0.4182
1 23 4 0.1956 0.4030
1 23 5 -0.2048 -0.0186
1 23 6 0.1211 0.0299
1 24 0 -0.5647 0.0180
1 24 1 -0.0667 0.2008
1 24 2 -0.6370 -0.5444
2 1 0 -0.1010 -0.0161
2 1 2 -0.4524 0.7286
2 1 3 -30.5771 0.1785
2 1 4 -0.0696 1.1346
2 1 5 -17.9639 -0.0132
2 1 6 0.3972 0.7860
2 1 7 -9.7026 0.1202
2 1 8 -0.6363 0.3348
2 1 9 -4.5160 -0.3014
2 1 10 -1.5937 0.3382
2 1 14 1.0956 0.7330
2 1 16 1.3060 0.5566
2 2 0 30.8957 -0.3453
2 2 1 2.6319 -0.0097
2 2 2 24.6520 -1.7336
2 2 3 2.0476 0.0452
2 2 4 15.4516 -0.4334
2 2 5 0.1748 0.1715
2 2 6 9.6122 0.6041
2 2 7 -0.1094 0.1848
2 2 8 4.8081 0.6138
2 2 9 0.6873 0.0853
2 2 10 2.7539 0.1226
2 2 14 1.2697 -0.8109
2 2 16 0.2662 -0.4605
2 3 1 -17.0567 1.7592
2 3 2 -2.6278 -0.4149
2 3 3 -11.5205 1.6701
2 3 4 -1.2671 -0.8223
2 3 5 -7.9838 -0.2768
2 3 6 -0.0244 -0.8751
2 3 7 -4.5140 -1.0279
2 3 8 -0.3662 -0.7471
2 3 9 -2.0273 -0.5348
2 3 10 -0.3571 -0.3715
2 3 12 -0.3932 0.6893
2 3 14 0.3737 1.8074
2 3 15 0.5879 0.3685
2 3 16 0.4252 1.3938
2 4 0 13.1929 -0.4283
2 4 1 0.3628 0.3643
2 4 2 10.0304 -1.9499
2 4 3 1.2759 0.8872
2 4 4 6.5209 -0.4608
2 4 5 0.5687 0.9366
2 4 6 4.3415 0.9532
2 4 7 0.5368 0.9939
2 4 8 1.6385 1.0249
2 4 9 0.1684 0.9923
2 4 10 0.7956 -0.0750
2 4 13 0.4032 -0.5638
2 4 14 -1.4619 -0.5571
2 4 15 -0.1467 -1.2764
2 5 0 2.1237 0.0142
2 5 1 -9.9103 1.3721
2 5 2 0.2633 -0.7640
2 5 3 -5.7230 0.9365
2 5 4 -1.0676 -0.7411
2 5 5 -3.7696 -0.6457
2 5 6 -0.6836 -0.6656
2 5 7 -1.8641 -1.0262
2 5 8 -0.2194 -1.0144
2 5 9 -0.5742 -0.4994
2 5 10 0.3660 -1.0389
2 5 13 1.0794 0.9646
2 5 14 -0.6490 0.1080
2 5 15 1.6486 -0.1587
2 6 0 6.7659 -0.4284
2 6 1 -1.6008 0.2571
2 6 2 4.3225 -1.3428
2 6 3 0.9768 0.4253
2 6 4 2.2289 0.0918
2 6 5 0.8635 0.3607
2 6 6 1.7490 0.5418
2 6 7 0.0533 0.7795
2 6 8 0.5628 0.3012
2 6 9 -0.5844 1.0019
2 6 12 -0.2999 -0.6188
2 6 13 1.3445 0.8163
2 6 14 -0.7988 -0.1394
2 6 15 0.5403 0.2709
2 7 0 0.7317 -0.0019
2 7 1 -1.4773 1.3495
2 7 2 -0.6841 0.1676
2 7 3 -0.1331 0.7488
2 7 4 -0.9908 0.0510
2 7 5 -0.8294 -0.0143
2 7 6 0.2280 -0.5836
2 7 7 -0.5701 0.5374
2 7 8 0.6495 -0.8721
2 7 9 0.2659 0.0010
2 7 10 0.3364 -0.7371
2 7 11 0.3124 -0.3196
2 7 12 -1.2514 -1.0117
2 7 13 0.0717 -0.2330
2 7 14 -1.2956 -0.7122
2 7 15 0.1037 -0.4172
2 8 0 -0.4408 -0.4503
2 8 1 1.3328 -0.2131
2 8 2 -1.0759 -1.4414
2 8 3 1.3042 -0.4028
2 8 4 -0.3763 -0.1920
2 8 5 -0.2409 0.1820
2 8 6 0.5665 -0.7854
2 8 7 -0.6602 0.6943
2 8 8 -0.3578 -0.6670
2 8 9 -0.5329 0.3201
2 8 10 -0.7808 0.6626
2 8 11 0.4417 0.6397
2 8 12 -0.2206 0.8368
2 8 13 1.6261 1.0740
2 8 14 0.3927 0.7338
2 8 15 0.7860 0.3175
2 9 0 -2.2933 0.0012
2 9 1 -0.2390 1.3308
2 9 2 -1.9340 -0.0527
2 9 3 0.4897 0.4870
2 9 4 -0.2693 -0.0935
2 9 5 -0.3741 -0.0071
2 9 6 0.5527 -0.4553
2 9 7 -0.1538 0.7619
2 9 8 0.2499 -0.0611
2 9 9 0.7456 -0.2681
2 9 10 0.1426 0.1019
2 9 11 0.5905 -0.8320
2 9 12 -1.1149 -0.9384
2 9 13 -0.2291 -0.6819
2 9 14 -1.4000 -0.8814
2 9 15 -0.5307 -0.5338
2 10 0 2.7628 -0.4408
2 10 1 1.7609 0.4339
2 10 2 1.4298 -0.9242
2 10 3 0.6698 0.7073
2 10 4 0.5134 0.5128
2 10 5 -0.4417 0.6525
2 10 6 0.6410 0.0102
2 10 7 0.0756 0.2610
2 10 8 -0.0626 0.0270
2 10 9 0.1401 -0.5036
2 10 10 -0.4531 0.5099
2 10 11 0.4926 0.0656
2 10 12 -0.1337 0.1952
2 10 13 1.3864 1.0401
2 10 14 0.5553 0.2120
2 11 0 -0.0201 0.0098
2 11 1 -3.4889 0.8883
2 11 2 -0.0057 -0.9122
2 11 3 -1.5212 -0.0588
2 11 4 0.5928 -1.0808
2 11 5 -0.9147 -0.4817
2 11 6 0.1962 -0.8649
2 11 7 -0.5283 -0.0610
2 11 8 -0.6739 0.0713
2 11 9 -0.0545 -0.4113
2 11 10 -0.5414 0.5884
2 11 11 0.1134 0.0352
2 11 12 -0.9464 -0.3107
2 11 13 -0.1520 0.2889
2 11 14 -0.7652 -0.8300
2 12 0 3.3851 -0.3896
2 12 1 -1.5593 0.4227
2 12 2 2.2232 -0.5168
2 12 3 -0.7184 0.9234
2 12 4 1.1172 0.2153
2 12 5 -0.6416 1.1137
2 12 6 0.7469 -0.1000
2 12 7 0.4183 0.6834
2 12 8 0.2533 0.1863
2 12 9 0.8924 -0.3012
2 12 10 0.1648 0.1095
2 12 11 0.6895 -0.3334
2 12 12 -0.0868 -0.5291
2 12 13 0.5365 0.5319
2 12 14 0.1594 -0.3210
2 13 0 2.4950 0.0133
2 13 1 -1.7527 0.5892
2 13 2 0.8807 -0.5395
2 13 3 -0.8944 0.2172
2 13 4 0.0055 -0.7529
2 13 5 -0.7186 0.3486
2 13 6 0.1047 -0.8525
2 13 7 -0.1724 0.3888
2 13 8 -0.7044 -0.3914
2 13 9 -0.0247 0.0594
2 13 10 -0.6991 0.0765
2 13 11 0.0287 0.6213
2 13 12 -0.4106 -0.2344
2 13 13 0.3439 0.6430
2 14 0 0.9445 -0.3296
2 14 1 -1.6240 0.3316
2 14 2 0.5423 -0.3819
2 14 3 0.8471 0.5536
2 14 4 0.4715 -0.4262
2 14 5 0.4458 0.5347
2 14 6 0.2165 -0.8543
2 14 7 0.2475 0.5705
2 14 8 -0.3572 -0.5902
2 14 9 0.6478 0.5404
2 14 10 -0.2395 -0.8423
2 14 11 0.5023 0.5782
2 14 12 -0.5140 -1.0664
2 14 13 0.1224 0.5213
2 15 0 2.3733 0.0089
2 15 1 -0.6075 0.3341
2 15 2 0.1513 -0.5206
2 15 3 -0.4092 0.2321
2 15 4 -1.1373 -0.4325
2 15 5 -0.3493 0.8725
2 15 6 -0.2829 -0.3303
2 15 7 0.3714 0.9531
2 15 8 -0.5159 -0.5008
2 15 9 0.6086 0.8563
2 15 10 -0.6185 -0.9780
2 15 11 0.5552 1.2817
2 15 12 -0.3510 -0.8637
2 15 13 0.6183 0.6998
2 16 0 0.7877 -0.3426
2 16 1 -2.1907 0.2119
2 16 2 0.6009 -0.0127
2 16 3 0.2508 0.3277
2 16 4 0.4484 -0.2721
2 16 5 0.3071 0.2246
2 16 6 -0.0698 -0.9072
2 16 7 0.3038 0.0726
2 16 8 -0.6342 -0.5898
2 16 9 0.6963 0.4913
2 16 10 -0.5454 -0.8505
2 16 11 0.4238 1.1162
2 16 12 -0.4658 -0.8934
2 17 0 2.8444 0.0155
2 17 1 -0.6666 0.2071
2 17 2 1.3186 -0.0039
2 17 3 -0.3513 -0.3661
2 17 4 0.1831 -0.0249
2 17 5 -0.1594 0.1900
2 17 6 0.2148 -0.0354
2 17 7 0.2639 0.4721
2 17 8 -0.5087 0.1661
2 17 9 0.4193 0.2563
2 17 10 -0.5805 -0.5099
2 17 11 0.2606 0.6260
2 17 12 -0.0212 -0.8433
2 18 0 0.6119 -0.3146
2 18 1 -1.8252 -0.1130
2 18 2 0.2269 0.0259
2 18 3 -0.6001 -0.2789
2 18 4 0.0482 0.6126
2 18 5 -0.5674 0.0362
2 18 6 0.1726 -0.2203
2 18 7 -0.0636 0.0015
2 18 8 -0.0545 -0.2707
2 18 9 0.7502 -0.1502
2 18 10 -0.2134 -0.3403
2 18 11 0.3676 0.4769
2 19 0 1.2213 0.0158
2 19 1 -0.4494 0.6040
2 19 2 0.6604 0.2454
2 19 3 0.0801 -0.2726
2 19 4 0.3788 0.1627
2 19 5 -0.2136 -0.2176
2 19 6 0.3307 -0.3001
2 19 7 -0.3761 0.4999
2 19 8 -0.6408 0.0388
2 19 9 0.0150 0.3518
2 19 10 -0.8855 0.0646
2 19 11 0.2386 0.3968
2 20 0 0.6287 -0.3167
2 20 1 -0.3705 -0.0406
2 20 2 0.1419 -0.6352
2 20 3 -0.1476 -0.1237
2 20 4 -0.0025 0.1512
2 20 5 -0.1385 0.1861
2 20 6 0.3655 -0.4416
2 20 7 0.4841 0.1718
2 20 8 0.2646 -0.3796
2 20 9 1.0730 -0.2630
2 20 10 -0.1045 -0.2759
2 21 0 -0.3321 0.0165
2 21 1 -0.2943 0.7597
2 21 2 -0.2309 -0.1202
2 21 3 0.1055 0.2529
2 21 4 0.0160 -0.1427
2 21 5 -0.0970 0.2119
2 21 6 -0.2119 -0.1202
2 21 7 -0.1826 0.3724
2 21 8 -0.8406 0.2897
2 21 9 -0.1464 -0.0374
2 22 0 0.0921 -0.2988
2 22 1 0.9055 0.2131
2 22 2 -0.1739 -0.4685
2 22 3 0.3481 0.3429
2 22 4 -0.0583 0.0505
2 22 5 -0.2085 0.1548
2 22 6 0.0992 -0.2532
2 22 7 0.1789 -0.1519
2 22 8 0.0548 0.0464
2 23 0 -1.0393 0.0201
2 23 1 0.1475 0.4853
2 23 2 -0.8164 -0.4944
2 23 3 0.1974 0.0194
2 23 4 0.0985 -0.3147
2 23 5 -0.2170 -0.0678
2 23 6 0.4769 -0.0515
2 24 0 -0.0074 -0.2352
2 24 1 0.4874 0.3230
2 24 2 -0.1796 -0.3639
3 1 0 24.2914 -0.1706
3 1 2 18.9785 0.1163
3 1 3 0.8316 -2.4330
3 1 4 11.6640 0.2596
3 1 5 -0.1318 -2.3524
3 1 6 7.5429 -0.6192
3 1 7 -0.1441 -1.2582
3 1 8 3.9470 -0.3611
3 1 9 0.6212 -0.5842
3 1 10 2.3758 0.7665
3 1 11 0.9331 -0.5117
3 1 16 0.5052 -0.3332
3 2 0 -3.2069 -0.0166
3 2 1 -9.3833 0.8717
3 2 2 -3.1222 1.6701
3 2 3 -6.0501 0.4874
3 2 4 -1.3933 2.0016
3 2 5 -4.9249 0.1368
3 2 6 0.2944 1.0905
3 2 7 -3.2960 0.2484
3 2 8 0.0341 0.2754
3 2 9 -1.8607 -0.3740
3 2 10 -0.2749 0.1516
3 2 13 -0.7536 -0.0124
3 2 14 0.3553 1.0186
3 2 15 -0.2132 0.1927
3 2 16 0.2855 0.8404
3 3 0 2.4840 -0.4097
3 3 1 3.5815 -0.8744
3 3 2 1.4681 -0.9989
3 3 3 2.6707 -1.8277
3 3 4 1.8206 -0.0894
3 3 5 0.3754 -1.2534
3 3 6 2.2332 0.0865
3 3 7 -0.0648 -0.1079
3 3 8 0.9580 0.4343
3 3 9 -0.0215 0.3758
3 3 10 0.8374 0.5039
3 3 14 -0.9074 -0.0137
3 3 15 -0.2734 -1.2331
3 4 1 -1.2437 0.8160
3 4 2 -2.0187 1.1273
3 4 3 -0.3817 0.0670
3 4 4 -1.2465 1.5259
3 4 5 -1.3586 -0.6770
3 4 6 -0.1969 0.6427
3 4 7 -0.7141 -0.7492
3 4 8 -0.1038 -0.4849
3 4 9 -0.2555 -0.8264
3 4 10 0.2876 -0.5346
3 4 11 -0.1680 0.0653
3 4 13 1.2177 0.3756
3 4 14 -0.2451 0.6530
3 4 15 1.7698 -0.4311
3 5 0 1.7019 -0.4034
3 5 1 0.1862 -0.3646
3 5 2 0.2920 -0.3386
3 5 3 1.6377 -1.1731
3 5 4 0.0792 1.0324
3 5 5 0.8168 -1.2737
3 5 6 0.6280 1.1755
3 5 7 0.1190 -0.0027
3 5 8 0.1313 0.9681
3 5 9 -0.5298 0.7056
3 5 10 0.3637 0.3756
3 5 13 0.7706 -0.0120
3 5 14 -1.4637 -0.0881
3 5 15 0.2512 -0.2528
3 6 0 -0.0898 0.0068
3 6 1 1.0248 0.6950
3 6 2 -1.5007 0.9208
3 6 3 1.7826 -0.4996
3 6 4 -1.6548 1.4876
3 6 5 0.3464 -1.2551
3 6 6 -0.1816 0.5902
3 6 7 -0.0667 -0.6257
3 6 8 0.6547 -0.6429
3 6 9 -0.1525 -0.5154
3 6 13 0.3435 0.1918
3 6 14 -0.6144 -0.0520
3 6 15 0.8054 -0.1527
3 7 0 -3.4347 -0.4408
3 7 1 2.1466 -0.7377
3 7 2 -3.6190 -0.4941
3 7 3 2.3661 -1.7070
3 7 4 -1.8977 0.8989
3 7 5 0.5230 -1.1144
3 7 6 -0.1705 0.2240
3 7 7 -0.5732 0.3726
3 7 8 -0.2684 -0.1094
3 7 9 -1.0706 0.5055
3 7 10 -0.0780 0.5749
3 7 11 -0.2535 -0.0094
3 7 12 0.1200 0.5238
3 7 13 0.7841 0.0786
3 7 14 0.0769 0.3604
3 7 15 0.2961 0.0630
3 8 0 -3.6946 -0.0054
3 8 1 3.5855 0.9767
3 8 2 -3.2955 1.3477
3 8 3 2.7424 -0.2158
3 8 4 -1.2124 1.4751
3 8 5 0.4826 -0.5493
3 8 6 0.3058 0.1486
3 8 7 0.1843 0.5740
3 8 8 0.7436 -0.3885
3 8 9 0.5559 -0.2123
3 8 10 0.9530 0.1086
3 8 11 0.1862 -0.9429
3 8 12 -0.3686 -0.1458
3 8 13 -0.3493 -0.8147
3 8 14 -0.7255 -0.2585
3 8 15 -0.2425 -0.4147
3 9 0 -0.9544 -0.4719
3 9 1 4.0024 -0.3467
3 9 2 -1.3468 -0.6578
3 9 3 2.0336 -0.8965
3 9 4 -0.5528 1.0069
3 9 5 0.0700 -0.4274
3 9 6 0.3063 0.1379
3 9 7 -0.1598 0.2034
3 9 8 -0.2689 -0.2119
3 9 9 -0.7823 -0.2544
3 9 10 -0.3978 0.6091
3 9 11 -0.3057 -0.1009
3 9 12 0.1122 0.7563
3 9 13 0.9671 0.5826
3 9 14 0.6260 0.5467
3 10 0 -3.0521 0.0030
3 10 1 -1.6223 0.9625
3 10 2 -2.0561 -0.0670
3 10 3 -0.4681 -0.5004
3 10 4 -0.1774 -0.0475
3 10 5 -0.6732 -1.1448
3 10 6 -0.0071 -0.3809
3 10 7 -0.5015 -0.0602
3 10 8 -0.0219 0.0374
3 10 9 0.0097 -0.2537
3 10 10 0.3902 0.4749
3 10 11 0.0439 -0.3979
3 10 12 -0.7437 -0.2815
3 10 13 -0.4994 -0.3563
3 10 14 -0.8862 -0.6145
3 11 0 3.1907 -0.4487
3 11 1 0.7494 0.2292
3 11 2 2.0276 -0.4064
3 11 3 -0.1253 0.4801
3 11 4 1.0906 1.1466
3 11 5 -0.4941 0.7908
3 11 6 1.0126 0.5263
3 11 7 0.3753 0.5967
3 11 8 0.5245 0.1594
3 11 9 0.2459 -0.3067
3 11 10 0.1702 0.3314
3 11 11 0.5324 -0.3189
3 11 12 0.1307 0.1976
3 11 13 1.0315 0.4526
3 11 14 0.6460 0.0537
3 12 0 0.7787 0.0113
3 12 1 -2.3603 0.6670
3 12 2 0.4420 -0.3549
3 12 3 -1.3120 -0.3979
3 12 4 0.5855 -0.7711
3 12 5 -1.1728 -0.6408
3 12 6 0.0989 -1.0266
3 12 7 -0.7404 -0.0019
3 12 8 -0.6826 -0.3317
3 12 9 -0.3162 -0.2629
3 12 10 -0.6714 0.3397
3 12 11 -0.0309 -0.1818
3 12 12 -1.0180 -0.0204
3 12 13 -0.0538 -0.0529
3 12 14 -0.4629 -0.4298
3 13 0 1.4431 -0.3601
3 13 1 -0.7625 0.2137
3 13 2 0.9578 -0.2195
3 13 3 0.3432 0.5742
3 13 4 0.9276 0.4299
3 13 5 -0.0228 0.8999
3 13 6 0.8265 -0.1468
3 13 7 0.4281 0.7322
3 13 8 0.1436 -0.1644
3 13 9 0.8537 0.2059
3 13 10 -0.0403 -0.0889
3 13 11 1.0500 0.1091
3 13 12 -0.3484 -0.1950
3 13 13 0.8535 0.3397
3 14 0 1.1164 0.0146
3 14 1 -0.6521 0.3824
3 14 2 -0.5156 -0.6364
3 14 3 -0.5454 -0.0915
3 14 4 -1.0548 -0.8109
3 14 5 -0.8237 0.2208
3 14 6 -0.3434 -0.6693
3 14 7 -0.1064 0.5595
3 14 8 -0.8043 -0.4972
3 14 9 0.3589 0.5082
3 14 10 -1.0854 -0.6461
3 14 11 0.4666 0.7022
3 14 12 -1.1614 -0.5719
3 14 13 0.5564 0.2737
3 15 0 0.8042 -0.3368
3 15 1 -1.1182 0.4646
3 15 2 0.6337 -0.1010
3 15 3 1.0787 0.9152
3 15 4 0.7604 -0.2118
3 15 5 0.7136 0.6576
3 15 6 0.3253 -0.7302
3 15 7 0.6858 0.2580
3 15 8 -0.5398 -0.5739
3 15 9 1.1173 0.6372
3 15 10 -0.5726 -0.8306
3 15 11 1.1287 1.0534
3 15 12 -0.5703 -0.6956
3 15 13 0.6700 0.4651
3 16 0 2.6589 0.0147
3 16 1 -0.9978 0.2224
3 16 2 0.7342 -0.6626
3 16 3 -0.7748 -0.0514
3 16 4 -0.5517 -0.6619
3 16 5 -0.5387 0.5384
3 16 6 -0.4127 -0.1341
3 16 7 0.3351 0.5317
3 16 8 -1.0466 0.0298
3 16 9 0.6418 0.3437
3 16 10 -1.0058 -0.8435
3 16 11 0.3762 0.6793
3 16 12 -0.5349 -0.9184
3 17 0 1.1013 -0.3067
3 17 1 -2.3574 0.2070
3 17 2 0.7743 0.0833
3 17 3 -0.2717 0.3262
3 17 4 0.5177 0.1606
3 17 5 0.0139 0.1523
3 17 6 0.1078 -0.4576
3 17 7 0.5247 -0.2528
3 17 8 -0.4603 -0.1262
3 17 9 1.0024 0.0364
3 17 10 -0.3245 -0.2572
3 17 11 0.4283 0.8559
3 17 12 -0.0146 -0.3127
3 18 0 2.3512 0.0213
3 18 1 -0.8409 0.3128
3 18 2 1.0353 -0.0332
3 18 3 -0.3263 -0.4201
3 18 4 0.0731 0.0634
3 18 5 -0.3298 -0.0206
3 18 6 0.0309 -0.0041
3 18 7 -0.0447 0.4417
3 18 8 -0.7619 0.1725
3 18 9 0.2748 0.1566
3 18 10 -0.7114 -0.2959
3 18 11 0.0988 0.3256
3 19 0 0.9286 -0.2998
3 19 1 -1.3863 0.0086
3 19 2 0.4080 -0.2315
3 19 3 -0.1588 -0.1531
3 19 4 0.1603 0.3006
3 19 5 0.0405 0.0272
3 19 6 0.3215 -0.5748
3 19 7 0.4412 0.1283
3 19 8 0.0133 -0.4618
3 19 9 0.9389 0.0068
3 19 10 -0.2007 -0.3184
3 20 0 1.1070 0.0141
3 20 1 -0.6400 0.6369
3 20 2 0.4740 -0.0312
3 20 3 -0.0374 0.0783
3 20 4 -0.1703 -0.0090
3 20 5 -0.0939 0.3899
3 20 6 -0.3875 -0.2096
3 20 7 -0.0901 0.7305
3 20 8 -0.8475 0.0131
3 20 9 0.0600 0.1796
3 20 10 -0.6377 -0.0198
3 21 0 0.4474 -0.3062
3 21 1 -0.2946 0.1230
3 21 2 0.0240 -0.4642
3 21 3 0.1058 0.1887
3 21 4 -0.1603 -0.1242
3 21 5 0.2190 0.2100
3 21 6 -0.0802 -0.7115
3 21 7 0.4707 0.0368
3 21 8 -0.0815 -0.1884
3 21 9 0.5479 -0.1881
3 22 0 -0.3253 0.0227
3 22 1 0.0750 0.5047
3 22 2 -0.3861 -0.3299
3 22 3 0.3088 0.0507
3 22 4 -0.1079 -0.3071
3 22 5 0.0364 0.2830
3 22 6 0.1288 -0.1891
3 22 7 0.1122 0.4022
3 22 8 -0.1393 0.0833
3 23 0 -0.1493 -0.2707
3 23 1 0.5391 0.2477
3 23 2 -0.3553 -0.3682
3 23 3 0.3696 0.3936
3 23 5 -0.3365 0.2572
3 23 6 0.1753 -0.3172
3 24 0 -0.1598 0.0166
3 24 1 0.1968 0.5135
3 24 2 -0.3163 -0.3478
4 1 0 1.5344 -0.0191
4 1 1 -8.5836 0.1270
4 1 2 0.3459 2.0499
4 1 3 -4.8466 -0.2933
4 1 4 -0.2826 2.8166
4 1 5 -3.4460 0.3209
4 1 6 -0.0373 2.0971
4 1 7 -2.1467 0.9347
4 1 8 -0.2821 1.1631
4 1 9 -1.1525 -0.0083
4 1 10 -0.0186 0.6335
4 1 13 -0.4564 -0.6759
4 1 14 0.2270 -0.0814
4 2 1 1.6672 -1.3460
4 2 2 -1.9244 -0.4390
4 2 3 1.4729 -2.8877
4 2 4 -0.6942 -0.1949
4 2 5 0.1031 -2.3032
4 2 6 0.5754 -0.8816
4 2 7 -0.0145 -1.1131
4 2 8 0.1935 -0.4533
4 2 9 -0.1341 -0.3308
4 2 10 0.5863 0.4991
4 2 12 0.2750 0.6295
4 2 13 -0.2319 -0.1470
4 3 0 -1.5892 -0.0009
4 3 1 4.9113 0.4521
4 3 2 -1.5571 2.5351
4 3 3 3.5600 -0.1237
4 3 4 -0.3524 2.9073
4 3 5 0.7796 0.2519
4 3 6 0.2724 1.5250
4 3 7 0.4924 0.4816
4 3 8 -0.1148 0.2420
4 3 9 0.3112 -0.3453
4 3 10 0.2613 -0.1978
4 3 11 -0.0366 -0.4041
4 3 12 -0.0050 -0.1470
4 3 14 0.1682 0.0669
4 3 15 1.1858 -0.5564
4 4 0 -3.2265 -0.4075
4 4 1 -0.4477 -1.2118
4 4 2 -3.4403 0.3096
4 4 3 0.1862 -2.7706
4 4 4 -1.8176 0.8265
4 4 5 -0.3622 -2.3934
4 4 6 -0.5269 0.2340
4 4 7 0.0210 -0.7110
4 4 8 -0.6994 0.4656
4 4 9 -0.0340 0.2444
4 4 10 -0.0406 0.4372
4 4 11 0.1876 0.1496
4 4 13 0.4893 0.1232
4 4 14 -1.5458 0.3654
4 4 15 -0.0118 -0.0718
4 5 0 2.0746 0.0193
4 5 1 2.7857 0.0552
4 5 2 0.6278 1.9118
4 5 3 3.0908 -1.1784
4 5 4 -0.1151 2.7411
4 5 5 1.3604 -1.1754
4 5 6 0.2280 1.5865
4 5 7 0.7310 -0.6785
4 5 8 0.1815 -0.0850
4 5 9 0.1336 -0.6581
4 5 13 0.6990 0.2120
4 5 14 -0.3530 -0.0116
4 5 15 1.0644 -0.3137
4 6 0 -4.7602 -0.3998
4 6 1 -0.6921 -1.2209
4 6 2 -5.0606 0.5321
4 6 3 0.7787 -2.8254
4 6 4 -3.3927 1.4425
4 6 5 0.0723 -2.3593
4 6 6 -1.3330 0.6982
4 6 7 -0.4200 -0.3562
4 6 8 -0.5787 0.4661
4 6 9 -0.5536 0.2316
4 6 12 0.1464 0.0910
4 6 13 0.5578 -0.5543
4 6 14 -0.2272 0.0758
4 6 15 0.0915 0.0111
4 7 0 -1.2240 0.0007
4 7 1 6.9723 0.2603
4 7 2 -1.7424 2.7106
4 7 3 5.4722 -1.0065
4 7 4 -0.8971 3.1010
4 7 5 2.3919 -0.8218
4 7 6 0.3027 1.1456
4 7 7 1.1433 0.0720
4 7 8 0.6060 -0.2604
4 7 9 0.4418 -0.5180
4 7 10 0.6024 0.4943
4 7 12 -0.2696 0.9271
4 7 13 -0.3045 -0.5580
4 7 14 -0.1999 0.3176
4 7 15 -0.0203 -0.1901
4 8 0 -6.4556 -0.4467
4 8 1 3.2434 -1.4819
4 8 2 -5.8300 0.1240
4 8 3 2.0367 -3.1369
4 8 4 -3.2440 1.2139
4 8 5 0.2348 -2.0742
4 8 6 -1.3141 0.1349
4 8 7 -0.2325 -0.2029
4 8 8 -0.9139 0.0255
4 8 9 -0.8524 -0.2531
4 8 10 -0.2321 0.8537
4 8 11 -0.4587 -0.8437
4 8 12 0.2720 0.9626
4 8 13 0.3978 -0.3384
4 8 14 0.4635 0.5998
4 9 0 -3.8969 0.0010
4 9 1 3.5476 0.5875
4 9 2 -2.8896 1.8973
4 9 3 2.9021 -0.9684
4 9 4 -0.8337 2.2300
4 9 5 1.2606 -1.2104
4 9 6 -0.1754 0.8153
4 9 7 0.6674 -0.0674
4 9 8 0.4078 0.1573
4 9 9 0.2727 -0.3795
4 9 10 1.0170 0.6653
4 9 11 -0.1740 -0.7111
4 9 12 -0.1541 0.3161
4 9 13 -0.6060 -0.7299
4 9 14 -0.5082 -0.2065
4 10 0 -0.6287 -0.4663
4 10 1 2.4991 -0.6347
4 10 2 -1.0708 -0.0076
4 10 3 0.8567 -1.5136
4 10 4 -0.8807 1.7186
4 10 5 0.0495 -0.9955
4 10 6 -0.2343 0.8034
4 10 7 0.1424 -0.0515
4 10 8 0.0953 0.1186
4 10 9 -0.8135 -0.3061
4 10 10 0.3285 0.3560
4 10 11 -0.3870 -0.4769
4 10 12 0.4614 0.5614
4 10 13 0.6260 0.1877
4 10 14 0.8559 0.3384
4 11 0 -1.0694 0.0058
4 11 1 -0.4810 0.5597
4 11 2 -0.4268 0.9114
4 11 3 0.1208 -1.0932
4 11 4 0.4706 0.9308
4 11 5 -0.0909 -1.4451
4 11 6 0.0206 -0.0132
4 11 7 -0.3473 -0.1729
4 11 8 0.1513 -0.2013
4 11 9 -0.5278 -0.1829
4 11 10 0.5631 0.3581
4 11 11 -0.3308 -0.4805
4 11 12 -0.4105 0.1653
4 11 13 -0.5021 -0.5044
4 11 14 -0.3451 -0.2760
4 12 0 0.4233 -0.4087
4 12 1 0.2442 -0.4782
4 12 2 0.1141 0.2207
4 12 3 -0.1846 -0.8980
4 12 4 0.2124 1.5370
4 12 5 -0.4299 -0.1921
4 12 6 0.4389 0.5129
4 12 7 0.0704 0.4549
4 12 8 0.4033 -0.0715
4 12 9 -0.2321 0.1204
4 12 10 0.2858 0.2959
4 12 11 0.1989 -0.1983
4 12 12 -0.0575 0.5026
4 12 13 0.6461 0.1257
4 13 0 -0.4790 0.0140
4 13 1 0.3131 0.2207
4 13 2 -0.7931 0.5218
4 13 3 0.1301 -1.0848
4 13 4 -0.2615 0.3365
4 13 5 -0.4390 -0.9882
4 13 6 0.0434 -0.2867
4 13 7 -0.2483 0.1390
4 13 8 -0.1267 -0.4531
4 13 9 -0.0349 0.2137
4 13 10 -0.2105 -0.2800
4 13 11 0.3108 -0.0243
4 13 12 -0.9355 -0.1989
4 13 13 0.3973 -0.2459
4 14 0 -0.4753 -0.3626
4 14 1 0.7683 -0.0291
4 14 2 -0.4076 0.4174
4 14 3 1.2770 0.0182
4 14 4 0.2269 1.0281
4 14 5 0.3337 0.1822
4 14 6 0.3349 0.1526
4 14 7 0.3046 0.2947
4 14 8 -0.2119 -0.4415
4 14 9 0.4601 0.5841
4 14 10 -0.4421 -0.5767
4 14 11 0.9671 0.6674
4 14 12 -0.7043 -0.2089
4 14 13 1.0490 0.2951
4 15 0 0.3569 0.0127
4 15 1 0.0653 0.0876
4 15 2 -0.6814 -0.3587
4 15 3 -0.1355 -0.6437
4 15 4 -0.7396 -0.4177
4 15 5 -0.4362 -0.3195
4 15 6 -0.3577 -0.0798
4 15 7 0.1460 0.1870
4 15 8 -0.8199 -0.1286
4 15 9 0.5462 0.4669
4 15 10 -0.8948 -0.8034
4 15 11 0.6241 0.5627
4 15 12 -1.0801 -0.6726
4 16 0 0.4727 -0.3209
4 16 1 -0.9031 0.2371
4 16 2 0.3561 0.2421
4 16 3 0.3540 0.4717
4 16 4 0.4480 0.4089
4 16 5 0.2091 0.1363
4 16 6 0.1516 -0.0055
4 16 7 0.7954 -0.4019
4 16 8 -0.4697 0.0674
4 16 9 1.0539 0.0710
4 16 10 -0.4795 -0.2229
4 16 11 0.7373 0.7726
4 16 12 -0.3130 -0.1333
4 17 0 1.4376 0.0232
4 17 1 -0.6399 0.1479
4 17 2 0.3558 -0.2264
4 17 3 -0.3925 -0.4829
4 17 4 -0.1608 -0.0579
4 17 5 -0.4096 -0.2115
4 17 6 -0.2904 0.3823
4 17 7 0.0554 -0.1040
4 17 8 -1.0491 0.5670
4 17 9 0.3795 -0.2498
4 17 10 -0.7303 -0.2118
4 17 11 0.1636 0.0508
4 17 12 -0.1940 -0.5127
4 18 0 0.8277 -0.2710
4 18 1 -0.7901 0.0554
4 18 2 0.4737 0.0737
4 18 3 0.2345 -0.1113
4 18 4 0.3698 0.4782
4 18 5 0.1585 -0.3029
4 18 6 0.3850 -0.1217
4 18 7 0.6146 -0.4572
4 18 8 -0.0817 0.0935
4 18 9 0.9284 -0.2634
4 18 10 -0.1922 0.0561
4 18 11 0.2887 0.3230
4 19 0 0.9629 0.0189
4 19 1 -0.7883 0.4034
4 19 2 0.1920 0.0389
4 19 3 -0.2941 -0.2208
4 19 4 -0.3836 0.2814
4 19 5 -0.3259 0.1193
4 19 6 -0.4317 0.2382
4 19 7 -0.1465 0.3962
4 19 8 -0.8534 0.2706
4 19 9 0.1340 -0.0558
4 19 10 -0.5770 -0.0510
4 20 0 0.8620 -0.2873
4 20 1 -0.8110 0.0489
4 20 2 0.4149 -0.2602
4 20 3 0.1164 -0.0609
4 20 4 0.0510 0.0014
4 20 5 0.5055 -0.1239
4 20 6 -0.0600 -0.6409
4 20 7 0.6573 -0.1716
4 20 8 -0.1849 -0.0808
4 20 9 0.6126 -0.1510
4 21 0 0.7547 0.0250
4 21 1 -0.3971 0.3748
4 21 2 0.2535 -0.1192
4 21 3 0.0638 -0.1165
4 21 4 -0.3439 -0.0580
4 21 5 0.1998 0.3351
4 21 6 -0.3771 0.0054
4 21 7 0.3831 0.3896
4 21 8 -0.3418 0.1582
4 21 9 0.1687 -0.2525
4 22 0 0.1448 -0.2718
4 22 1 -0.2044 0.0940
4 22 2 -0.1302 -0.0152
4 22 3 0.2675 0.1654
4 22 4 -0.1111 0.2028
4 22 5 0.1369 0.1407
4 22 6 -0.1550 -0.4058
4 22 7 -0.0732 0.0812
4 22 8 -0.3157 -0.0099
4 23 0 0.1618 0.0237
4 23 1 0.0950 0.3020
4 23 2 -0.2133 -0.1558
4 23 3 0.1510 -0.1300
4 23 5 -0.2157 0.0899
4 23 6 0.1950 -0.1698
4 24 0 -0.0520 -0.2047
4 24 1 -0.1310 0.0703
4 24 2 -0.1880 -0.3283
5 1 0 2.2999 -0.1723
5 1 1 -1.4564 -0.7443
5 1 2 0.6745 -0.3038
5 1 3 0.4086 -1.6816
5 1 4 -0.3745 -0.2499
5 1 5 0.8295 -1.5875
5 1 6 -0.2236 -0.7972
5 1 7 0.6511 -1.2633
5 1 8 -0.3940 -0.5739
5 1 9 -0.3815 -0.7804
5 1 10 0.2365 0.3616
5 1 11 -0.8210 -0.5808
5 1 12 0.1125 0.9183
5 1 15 -0.3385 0.2801
5 2 0 -0.7963 -0.0177
5 2 1 4.6529 0.5898
5 2 2 -1.0270 1.7828
5 2 3 3.8179 0.4334
5 2 4 -0.6740 1.8973
5 2 5 1.8361 0.8386
5 2 6 -0.4750 1.2359
5 2 7 1.4282 0.9670
5 2 8 -0.1461 0.6904
5 2 9 0.6674 0.1192
5 2 10 0.9953 0.1112
5 2 12 0.8512 -0.0925
5 2 14 0.7082 -0.3170
5 2 15 0.7091 -0.1820
5 3 0 -4.2434 -0.4211
5 3 1 -0.0693 -1.1103
5 3 2 -3.9627 -0.1926
5 3 3 -0.1780 -2.2237
5 3 4 -2.1318 -0.1967
5 3 5 -0.3683 -1.7281
5 3 6 -1.2251 -0.8094
5 3 7 0.3532 -0.8494
5 3 8 -1.3439 -0.3202
5 3 9 -0.1965 -0.1097
5 3 11 -0.5729 0.2792
5 3 13 -0.3937 0.5358
5 3 14 -1.1949 0.5670
5 3 15 -0.6796 0.4442
5 4 0 2.9650 0.0168
5 4 1 1.0406 0.2176
5 4 2 2.1266 1.5855
5 4 3 1.4787 -0.4142
5 4 4 1.2980 2.0435
5 4 5 0.7043 -0.0337
5 4 6 0.3524 1.3836
5 4 7 0.9773 0.1309
5 4 8 -0.2657 0.3127
5 4 9 0.5401 -0.0718
5 4 14 0.2892 -0.5286
5 4 15 0.9524 -0.4518
5 5 0 -0.1192 -0.3975
5 5 1 -4.1792 -0.8610
5 5 2 -1.2730 0.2179
5 5 3 -2.0077 -1.9171
5 5 4 -1.4614 0.5399
5 5 5 -1.0094 -1.8306
5 5 6 -0.8480 0.1218
5 5 7 -0.1202 -0.6554
5 5 8 -0.6063 0.1649
5 5 9 0.1447 -0.0277
5 5 11 0.6125 -0.5623
5 5 13 0.3442 -0.2432
5 5 14 -0.2969 -0.1843
5 5 15 -0.3686 0.3532
5 6 0 3.9204 0.0126
5 6 1 3.0862 0.2466
5 6 2 2.3536 2.0946
5 6 3 3.3688 -0.3660
5 6 4 1.0539 2.3392
5 6 5 1.8478 -0.0457
5 6 6 0.6305 1.1197
5 6 7 1.0254 0.1284
5 6 8 -0.0123 -0.0271
5 6 9 0.2739 -0.1885
5 6 11 -0.2267 0.0388
5 6 13 -0.2756 0.2094
5 6 14 0.1335 0.2624
5 6 15 -0.1098 0.1759
5 7 0 -5.4628 -0.4114
5 7 1 -1.4939 -1.6224
5 7 2 -5.2742 -0.0417
5 7 3 -0.5851 -3.0403
5 7 4 -3.3462 0.1026
5 7 5 -0.6727 -1.9018
5 7 6 -1.6331 -0.4893
5 7 7 -0.1091 -0.2611
5 7 8 -1.0472 0.0504
5 7 9 0.2707 -0.3075
5 7 10 -0.2550 0.5450
5 7 11 0.6976 -1.3233
5 7 12 0.1565 0.3892
5 7 13 0.4784 -0.8748
5 7 14 0.3717 0.1127
5 7 15 -0.0107 0.0050
5 8 0 -0.1088 0.0038
5 8 1 5.4432 0.4618
5 8 2 -0.2431 2.6755
5 8 3 4.2518 -0.2258
5 8 4 0.1990 2.6567
5 8 5 2.1610 0.0527
5 8 6 0.0872 0.9888
5 8 7 1.3948 0.1969
5 8 8 -0.2319 0.2168
5 8 9 0.7083 -0.5439
5 8 10 -0.2897 0.9602
5 8 11 0.0937 -0.6223
5 8 12 -0.8463 0.9707
5 8 13 -0.3134 -0.5275
5 8 14 -0.5099 0.0826
5 9 0 -3.6202 -0.4348
5 9 1 0.6586 -1.2362
5 9 2 -3.5151 -0.1960
5 9 3 0.1416 -2.4965
5 9 4 -2.4221 0.6621
5 9 5 -0.0437 -1.7047
5 9 6 -1.3581 0.1397
5 9 7 0.2710 -0.4404
5 9 8 -0.6793 0.2894
5 9 9 -0.1290 -0.4987
5 9 10 -0.0271 0.4618
5 9 11 0.4121 -0.8600
5 9 12 0.2562 0.5147
5 9 13 0.9433 -0.1412
5 9 14 0.5941 0.3996
5 10 0 -0.1030 0.0086
5 10 1 1.8004 0.6154
5 10 2 0.2072 1.7403
5 10 3 1.8899 -0.5594
5 10 4 0.4597 2.0076
5 10 5 1.2751 -0.7733
5 10 6 -0.0851 0.8585
5 10 7 0.5156 -0.1372
5 10 8 0.2006 0.1302
5 10 9 -0.2348 -0.3262
5 10 10 0.3864 0.5311
5 10 11 -0.3051 -0.4457
5 10 12 -0.6156 0.4104
5 10 13 -0.5601 -0.6029
5 10 14 -0.5241 -0.2273
5 11 0 -0.9612 -0.4105
5 11 1 -0.5664 -0.9732
5 11 2 -1.1442 -0.0513
5 11 3 -0.8958 -2.0592
5 11 4 -1.0285 1.0922
5 11 5 -0.5459 -1.3955
5 11 6 -0.5240 0.2783
5 11 7 -0.1838 -0.1542
5 11 8 0.2055 0.0695
5 11 9 -0.7817 -0.0400
5 11 10 0.4186 0.4963
5 11 11 -0.2096 -0.4582
5 11 12 0.1824 0.7602
5 11 13 0.4256 -0.0588
5 11 14 0.5528 0.3763
5 12 0 0.0667 0.0129
5 12 1 1.2336 0.3440
5 12 2 0.2539 1.7071
5 12 3 1.0204 -0.9545
5 12 4 0.6611 1.8183
5 12 5 0.5450 -0.8750
5 12 6 0.4508 0.6024
5 12 7 0.1211 0.1285
5 12 8 0.7096 -0.2034
5 12 9 -0.2805 -0.1666
5 12 10 0.8617 0.0425
5 12 11 0.0466 -0.6006
5 12 12 -0.1412 0.1610
5 12 13 0.0589 -0.6142
5 13 0 -1.7101 -0.3787
5 13 1 0.9101 -0.8104
5 13 2 -1.4734 0.5068
5 13 3 0.3969 -1.6000
5 13 4 -0.7544 1.3969
5 13 5 -0.4379 -1.0060
5 13 6 -0.3008 0.3216
5 13 7 -0.5707 -0.0021
5 13 8 -0.0912 -0.3113
5 13 9 -0.9513 0.4242
5 13 10 -0.1472 -0.0914
5 13 11 -0.2519 0.2300
5 13 12 -0.5253 0.2965
5 13 13 0.4864 0.1447
5 14 0 -1.1626 0.0127
5 14 1 1.6129 0.0001
5 14 2 -1.1609 0.8360
5 14 3 1.0782 -1.1885
5 14 4 -0.1402 0.8443
5 14 5 0.3886 -0.9580
5 14 6 0.4481 0.3400
5 14 7 0.2795 0.1318
5 14 8 0.5116 -0.3288
5 14 9 0.3024 0.5917
5 14 10 0.4884 -0.7008
5 14 11 0.6090 0.3936
5 14 12 -0.4800 -0.4307
5 14 13 0.4922 -0.1781
5 15 0 -1.0960 -0.3619
5 15 1 0.6307 -0.2316
5 15 2 -0.9803 0.5328
5 15 3 0.4484 -0.3865
5 15 4 -0.4892 1.0186
5 15 5 -0.3509 -0.3432
5 15 6 -0.2504 0.3734
5 15 7 -0.0262 -0.2049
5 15 8 -0.3763 -0.2327
5 15 9 -0.1403 0.4284
5 15 10 -0.5162 -0.5606
5 15 11 0.0902 0.7011
5 15 12 -0.6018 -0.1360
5 16 0 -0.1304 0.0146
5 16 1 0.5191 0.0415
5 16 2 -0.3623 0.1558
5 16 3 0.4551 -0.7121
5 16 4 0.1565 0.2237
5 16 5 0.1472 -0.5920
5 16 6 0.0467 0.4520
5 16 7 0.2067 -0.2706
5 16 8 -0.4795 0.3428
5 16 9 0.3833 -0.0026
5 16 10 -0.0403 -0.3332
5 16 11 0.4485 0.1580
5 16 12 -0.1487 -0.4346
5 17 0 -0.1450 -0.2793
5 17 1 0.5856 -0.0869
5 17 2 -0.2727 0.2479
5 17 3 0.4469 -0.2783
5 17 4 -0.0954 0.6548
5 17 5 -0.1122 -0.4692
5 17 6 0.1557 0.3167
5 17 7 0.5091 -0.6378
5 17 8 -0.0759 0.3359
5 17 9 0.5065 -0.3248
5 17 10 -0.2689 0.1226
5 17 11 0.0034 0.2344
5 18 0 -0.8992 0.0193
5 18 1 -0.0624 0.2402
5 18 2 -0.9484 0.2410
5 18 3 0.0608 -0.4076
5 18 4 -0.3799 0.5398
5 18 5 -0.2800 -0.2499
5 18 6 -0.2502 0.5712
5 18 7 -0.3084 -0.0513
5 18 8 -0.7157 0.5269
5 18 9 0.0287 -0.2420
5 18 10 -0.3284 0.1141
5 18 11 0.1092 -0.0429
5 19 0 0.4118 -0.2695
5 19 1 0.6257 -0.0840
5 19 2 0.1820 -0.1530
5 19 3 0.6284 -0.3961
5 19 4 0.1169 0.1703
5 19 5 0.3805 -0.5262
5 19 6 0.2300 -0.2941
5 19 7 0.5795 -0.4739
5 19 8 0.0983 0.0992
5 19 9 0.5738 -0.3169
5 19 10 0.0163 0.1408
5 20 0 0.0651 0.0201
5 20 1 -0.4344 0.3877
5 20 2 -0.1372 0.1300
5 20 3 -0.0834 -0.0676
5 20 4 -0.4107 0.3286
5 20 5 0.0965 0.2344
5 20 6 -0.4854 0.3717
5 20 7 0.2081 0.1694
5 20 8 -0.4709 0.3925
5 20 9 0.0311 -0.3735
5 21 0 0.3655 -0.2665
5 21 1 -0.3076 -0.0446
5 21 2 0.1251 0.0156
5 21 3 0.1447 -0.1235
5 21 4 -0.0995 0.2560
5 21 5 0.3530 -0.1726
5 21 6 -0.3480 -0.2107
5 21 7 0.1902 -0.2248
5 21 8 -0.3551 0.3081
5 22 0 0.3956 0.0302
5 22 1 -0.1224 0.1354
5 22 2 0.0428 0.0961
5 22 3 0.0138 -0.5082
5 22 4 -0.3026 0.1053
5 22 5 -0.0343 -0.2133
5 22 6 -0.0184 0.0231
5 22 7 0.2988 -0.0398
5 23 0 0.1509 -0.2364
5 23 1 -0.3162 -0.0899
5 23 2 0.0115 0.1198
5 23 3 0.2857 -0.1451
5 23 5 0.2136 -0.0749
5 23 6 0.1730 0.0287
5 24 0 0.4903 0.0223
5 24 1 -0.0684 0.2005
6 1 0 0.1053 -0.0134
6 1 1 2.9212 0.3091
6 1 2 -0.9812 0.3255
6 1 3 3.4251 0.3489
6 1 4 -1.8019 0.2796
6 1 5 2.7004 0.5423
6 1 6 -1.2536 0.4471
6 1 7 2.0561 0.4494
6 1 8 0.0901 0.6033
6 1 9 0.8209 0.0499
6 1 12 0.4658 0.6786
6 1 14 0.1802 0.3307
6 1 15 0.3600 0.1608
6 2 0 -5.4416 -0.3461
6 2 1 2.1181 -0.3696
6 2 2 -4.9569 -0.4671
6 2 3 1.7391 -0.5408
6 2 4 -3.3940 -0.5692
6 2 5 1.1929 -0.2972
6 2 6 -2.6122 -0.7985
6 2 7 0.6959 -0.4438
6 2 8 -1.9238 -0.3283
6 2 9 -0.8724 -0.2070
6 2 11 -1.2465 0.0456
6 2 12 -0.2656 0.7915
6 2 15 -0.8745 0.2738
6 3 0 -0.7884 0.0016
6 3 1 1.7517 0.4653
6 3 2 -0.5008 0.4558
6 3 3 1.5447 0.2325
6 3 4 -0.1357 0.4531
6 3 5 1.2454 0.5104
6 3 6 -0.5633 0.5099
6 3 7 1.7700 0.4294
6 3 8 -0.1156 0.3176
6 3 9 0.8582 0.1403
6 3 10 0.9251 -0.0992
6 3 11 0.0207 -0.0253
6 3 14 0.9202 -0.5388
6 3 15 0.8009 -0.6228
6 4 1 -2.1519 -0.0409
6 4 2 1.7860 -0.4495
6 4 3 -1.3354 -0.1129
6 4 4 0.3850 -0.2354
6 4 5 -0.4062 -0.5082
6 4 6 -0.5950 -0.2540
6 4 7 0.3320 -0.5144
6 4 8 -0.8044 -0.1887
6 4 9 -0.2817 -0.0770
6 4 13 -0.4022 0.1727
6 4 14 -0.2923 0.0577
6 4 15 -1.1352 0.4626
6 5 0 4.1929 0.0221
6 5 1 -3.4006 0.7663
6 5 2 2.9490 0.0954
6 5 3 -0.9749 0.7229
6 5 4 1.3042 0.2343
6 5 5 0.1376 0.5308
6 5 6 0.2201 0.5193
6 5 7 0.5496 0.2863
6 5 8 -0.0658 0.1310
6 5 9 -0.0502 0.4335
6 5 12 -0.1678 0.7716
6 5 13 -0.4871 0.6490
6 5 14 0.9482 -0.0112
6 5 15 -0.2911 0.3335
6 6 0 1.3690 -0.4078
6 6 1 -3.7382 -0.5271
6 6 2 0.1234 -1.1486
6 6 3 -1.9320 -0.6422
6 6 4 -0.7129 -1.2173
6 6 5 -0.8570 -0.3810
6 6 6 -0.6709 -0.9196
6 6 7 0.0600 -0.1214
6 6 8 -0.4761 -0.3346
6 6 9 0.3760 -0.2178
6 6 11 0.6776 -1.1534
6 6 12 0.4672 -0.5122
6 6 13 -0.1150 -0.8422
6 6 14 0.6960 -0.6115
6 6 15 -0.7577 0.1538
6 7 0 3.0390 0.0059
6 7 1 1.4437 0.9836
6 7 2 2.1045 1.2660
6 7 3 1.7102 1.3919
6 7 4 1.1499 0.6928
6 7 5 1.0229 1.4530
6 7 6 0.2123 0.1242
6 7 7 0.9338 0.6455
6 7 8 -0.6675 0.0777
6 7 9 0.5407 -0.0597
6 7 10 -1.0730 0.8614
6 7 11 0.0768 0.1198
6 7 12 -1.0873 1.1338
6 7 13 -0.3669 0.3259
6 7 14 -0.0300 0.1444
6 8 0 -2.0155 -0.4218
6 8 1 -1.9795 -0.8197
6 8 2 -2.1615 -1.2153
6 8 3 -1.1840 -1.0396
6 8 4 -1.5223 -1.2326
6 8 5 -0.4434 -0.3115
6 8 6 -1.0159 -0.8803
6 8 7 0.5827 -0.0731
6 8 8 -0.8701 0.0872
6 8 9 1.0838 -0.4531
6 8 10 -0.4061 0.0278
6 8 11 1.6968 -0.9226
6 8 13 1.3845 -0.2458
6 8 14 0.3544 -0.1847
6 9 0 2.1970 0.0107
6 9 1 1.4993 1.0131
6 9 2 1.6757 0.8464
6 9 3 1.6261 0.9678
6 9 4 0.7915 0.5854
6 9 5 1.1134 0.7268
6 9 6 -0.2197 0.2341
6 9 7 0.7386 0.1402
6 9 8 -0.7088 0.1340
6 9 9 0.3004 -0.1767
6 9 10 -1.2942 0.5243
6 9 11 0.1867 0.2614
6 9 12 -1.9765 0.3857
6 9 13 -0.1868 0.0479
6 9 14 -1.1453 -0.3753
6 10 0 -0.7535 -0.3929
6 10 1 -2.5370 -0.5054
6 10 2 -1.0561 -1.0789
6 10 3 -1.6532 -0.8845
6 10 4 -1.1138 -0.5908
6 10 5 -0.4529 -0.6386
6 10 6 -0.6895 -0.4836
6 10 7 0.2448 -0.1594
6 10 8 -0.1065 0.1486
6 10 9 0.4476 -0.0781
6 10 10 -0.0268 0.1360
6 10 11 1.3541 -0.4388
6 10 12 -0.1170 0.1407
6 10 13 1.4193 0.0127
6 10 14 0.3970 0.1533
6 11 0 2.4990 0.0139
6 11 1 0.8338 0.9274
6 11 2 2.0981 1.0984
6 11 3 0.9593 0.6470
6 11 4 1.2134 1.2143
6 11 5 0.7647 0.5637
6 11 6 0.3242 0.6237
6 11 7 0.2616 0.3137
6 11 8 0.1902 -0.0141
6 11 9 -0.0826 -0.4578
6 11 10 -0.1827 0.1908
6 11 11 0.2960 -0.5278
6 11 12 -0.9315 0.3175
6 11 13 0.0910 -0.4914
6 12 0 -1.4044 -0.3550
6 12 1 -1.1585 -0.7757
6 12 2 -1.2882 -0.6463
6 12 3 -1.0118 -1.5325
6 12 4 -0.9462 -0.2106
6 12 5 -0.8145 -1.1808
6 12 6 -0.5697 -0.5110
6 12 7 -0.6151 -0.3322
6 12 8 -0.1491 0.0766
6 12 9 -0.7371 0.0832
6 12 10 -0.2479 0.5483
6 12 11 -0.0383 -0.1897
6 12 12 -0.5415 0.5694
6 12 13 0.4751 -0.0144
6 13 0 -0.1639 0.0192
6 13 1 1.9017 0.4980
6 13 2 -0.0453 1.2136
6 13 3 1.4325 -0.0690
6 13 4 0.6494 1.3359
6 13 5 0.8499 0.0186
6 13 6 0.9493 0.7464
6 13 7 0.4623 0.2735
6 13 8 1.0829 -0.0656
6 13 9 0.2812 0.0143
6 13 10 0.9671 -0.2674
6 13 11 0.5905 -0.1034
6 13 12 -0.0510 -0.0786
6 13 13 0.3986 -0.3116
6 14 0 -1.9330 -0.3713
6 14 1 0.4728 -0.5463
6 14 2 -1.7413 -0.0325
6 14 3 -0.1758 -0.9988
6 14 4 -1.1807 0.3782
6 14 5 -1.0803 -0.8161
6 14 6 -0.6658 0.0050
6 14 7 -1.0010 -0.2726
6 14 8 -0.4035 -0.2728
6 14 9 -1.2176 0.4344
6 14 10 -0.4962 -0.4461
6 14 11 -0.6962 0.4275
6 14 12 -0.5851 -0.0635
6 15 0 -0.2121 0.0127
6 15 1 1.4314 0.2496
6 15 2 -0.0022 0.5617
6 15 3 1.2938 -0.2723
6 15 4 0.9510 0.5729
6 15 5 0.8372 -0.2877
6 15 6 0.9323 0.4944
6 15 7 0.4755 -0.0662
6 15 8 0.6731 0.0094
6 15 9 0.4269 0.2977
6 15 10 1.0673 -0.4760
6 15 11 0.5722 0.3446
6 15 12 0.4182 -0.3176
6 16 0 -0.9666 -0.3128
6 16 1 0.4829 -0.2454
6 16 2 -1.0676 0.0180
6 16 3 -0.2578 -0.4237
6 16 4 -0.8985 0.3063
6 16 5 -0.8882 -0.4445
6 16 6 -0.4233 0.2561
6 16 7 -0.2017 -0.4048
6 16 8 -0.2728 0.1887
6 16 9 -0.5357 0.0085
6 16 10 -0.4343 -0.1115
6 16 11 -0.8420 0.2669
6 16 12 -0.3892 -0.0064
6 17 0 -1.5513 0.0171
6 17 1 0.7665 0.2235
6 17 2 -1.0530 0.3720
6 17 3 0.8153 -0.2216
6 17 4 0.2032 0.5015
6 17 5 0.3336 -0.1869
6 17 6 0.2405 0.4395
6 17 7 -0.0556 -0.1478
6 17 8 -0.1260 0.2978
6 17 9 0.1328 -0.1486
6 17 10 0.5173 0.0158
6 17 11 0.3208 0.0294
6 18 0 -0.4886 -0.2675
6 18 1 1.9746 -0.2117
6 18 2 -0.5679 -0.1134
6 18 3 0.8631 -0.5616
6 18 4 -0.3559 0.0979
6 18 5 -0.0562 -0.5277
6 18 6 0.1644 -0.2362
6 18 7 0.2185 -0.3012
6 18 8 0.2376 -0.0338
6 18 9 0.0850 -0.1722
6 18 10 -0.0494 -0.0148
6 18 11 -0.2466 0.0437
6 19 0 -1.6730 0.0112
6 19 1 0.2070 0.4049
6 19 2 -1.1662 0.3768
6 19 3 0.2864 0.1061
6 19 4 -0.3552 0.5581
6 19 5 0.1273 0.3880
6 19 6 -0.2083 0.3508
6 19 7 -0.1310 0.3971
6 19 8 -0.2882 0.2341
6 19 9 -0.1947 -0.0357
6 19 10 -0.0150 0.0753
6 20 0 0.0116 -0.2696
6 20 1 0.7164 -0.1681
6 20 2 -0.0894 -0.2687
6 20 3 0.3425 -0.3859
6 20 4 -0.2475 -0.1357
6 20 5 0.2652 -0.3200
6 20 6 -0.2937 -0.4871
6 20 7 0.2120 -0.2230
6 20 8 -0.0391 0.0450
6 20 9 0.0556 -0.1942
6 21 0 -0.2702 0.0252
6 21 1 -0.0042 0.2708
6 21 2 -0.1557 0.2816
6 21 3 0.1008 -0.2250
6 21 4 -0.2006 0.2598
6 21 5 0.2145 0.0109
6 21 6 -0.0961 0.0808
6 21 8 0.0981 0.0748
6 22 0 0.0668 -0.2618
6 22 1 0.0117 -0.2137
6 22 2 0.0006 0.1573
6 22 3 0.1623 -0.3307
6 22 4 0.1213 0.5349
6 22 5 0.1320 -0.1124
6 22 6 0.0167 0.1518
6 22 7 -0.1915 0.1099
6 23 0 0.2389 0.0234
6 23 1 -0.1365 0.1557
6 23 2 -0.0040 0.3319
6 23 3 -0.1611 -0.3786
6 23 5 -0.3614 -0.3695
7 1 0 -7.8412 -0.1593
7 1 1 2.1503 0.2090
7 1 2 -7.0285 0.3457
7 1 3 2.3729 0.6249
7 1 4 -5.0088 -0.0031
7 1 5 1.4849 0.5635
7 1 6 -3.5142 -0.0239
7 1 7 0.2118 -0.0795
7 1 8 -2.1085 0.1762
7 1 9 -0.8595 -0.1878
7 1 10 -0.5029 0.1297
7 1 11 -0.3294 -0.4502
7 1 13 0.4994 -0.7566
7 2 0 -3.7522 -0.0127
7 2 1 6.9535 -0.0515
7 2 2 -3.0100 -0.3030
7 2 3 4.8388 -0.3482
7 2 4 -1.6951 -0.5961
7 2 5 3.3149 0.1253
7 2 6 -0.8668 -0.2511
7 2 7 2.8493 0.0157
7 2 8 0.2935 0.0631
7 2 9 1.1783 -0.0710
7 2 15 0.5319 -0.6423
7 3 0 -1.5116 -0.4090
7 3 1 2.1855 0.3138
7 3 2 -1.2750 0.2004
7 3 3 1.1379 0.6564
7 3 4 -1.0626 0.2757
7 3 5 0.6881 0.2635
7 3 6 -1.7949 0.0407
7 3 7 0.3632 -0.1278
7 3 8 -1.5087 -0.0383
7 3 9 -0.7332 0.0876
7 3 10 -0.1032 -0.1819
7 3 13 -0.1851 0.0920
7 3 14 -0.5209 0.8070
7 3 15 -1.1018 0.1034
7 4 0 -0.0243 0.0194
7 4 1 -3.5725 0.5475
7 4 2 0.0021 -0.9495
7 4 3 -1.7006 0.2193
7 4 4 -0.1614 -0.6803
7 4 5 0.1420 -0.0266
7 4 6 -0.4287 0.2209
7 4 7 1.0407 0.0415
7 4 8 0.3286 0.0623
7 4 9 0.0972 0.4715
7 4 13 -0.2391 -0.0963
7 4 14 1.1590 0.0345
7 4 15 -0.1069 -0.2063
7 5 0 5.2573 -0.4096
7 5 1 -1.2233 0.4521
7 5 2 3.4852 -1.2568
7 5 3 -0.3970 0.9975
7 5 4 0.8982 -0.9135
7 5 5 0.1668 0.2203
7 5 6 -0.5060 -0.4237
7 5 7 0.0535 -0.2291
7 5 8 -0.2941 -0.4443
7 5 9 -0.6641 -0.0334
7 5 11 -0.3100 -0.7520
7 5 12 0.7144 -0.2919
7 5 13 -0.8594 -0.7259
7 5 14 0.8197 -0.3713
7 6 0 1.4616 0.0135
7 6 1 -3.1043 1.3216
7 6 2 0.8488 -0.3723
7 6 3 -1.1601 1.8905
7 6 4 0.1678 -0.7072
7 6 5 0.1300 1.3679
7 6 6 -0.1981 -0.0423
7 6 7 0.6022 0.6285
7 6 8 0.0695 0.0870
7 6 9 -0.0398 0.3140
7 6 11 -0.4502 0.1895
7 6 12 0.0564 1.1010
7 6 13 -0.7641 0.4370
7 6 14 1.0818 0.3376
7 6 15 -0.7203 0.6614
7 7 0 1.5226 -0.4288
7 7 1 -0.9979 -0.0728
7 7 2 0.7622 -1.8896
7 7 3 -0.3710 0.6095
7 7 4 0.0078 -1.8896
7 7 5 0.0860 0.6818
7 7 6 -0.5456 -1.0372
7 7 7 0.4558 0.0101
7 7 8 -0.5686 -0.1966
7 7 9 0.3457 -0.3264
7 7 10 -0.0388 -0.1957
7 7 11 0.8383 -0.8384
7 7 12 0.1996 -0.4661
7 7 13 0.4495 -0.4154
7 7 14 0.5813 -0.6901
7 8 0 1.3284 0.0074
7 8 1 -0.4799 1.2967
7 8 2 0.8081 -0.4610
7 8 3 0.1273 1.7192
7 8 4 0.0986 -1.1352
7 8 5 0.3677 1.1705
7 8 6 -0.5076 -0.4635
7 8 7 0.6196 0.2480
7 8 8 -0.6383 0.0754
7 8 9 0.3026 0.1703
7 8 10 -1.1656 0.3941
7 8 11 0.1296 0.8117
7 8 12 -1.8783 0.2999
7 8 13 -0.1888 0.7969
7 8 14 -0.9051 -0.4095
7 9 0 0.5421 -0.4133
7 9 1 -1.9857 0.3315
7 9 2 0.0483 -1.5416
7 9 3 -0.8587 1.1438
7 9 4 -0.3711 -1.1684
7 9 5 0.1868 0.8804
7 9 6 -0.4011 -0.5260
7 9 7 0.5472 0.2042
7 9 8 -0.1990 -0.0231
7 9 9 0.8752 0.0794
7 9 10 -0.1669 -0.6948
7 9 11 2.1097 -0.1741
7 9 12 -0.1934 -0.9758
7 9 13 2.0483 0.2413
7 9 14 0.3054 -0.5215
7 10 0 2.9967 0.0119
7 10 1 -0.3176 1.2400
7 10 2 2.1541 -0.6722
7 10 3 0.2252 1.4282
7 10 4 0.6256 -0.8463
7 10 5 0.3456 1.0267
7 10 6 -0.2345 -0.2609
7 10 7 0.0905 0.3092
7 10 8 -0.4342 -0.2805
7 10 9 0.0574 0.0047
7 10 10 -1.3871 -0.1011
7 10 11 0.5169 0.5519
7 10 12 -2.1879 0.0876
7 10 13 0.1891 0.4057
7 11 0 -0.1086 -0.3484
7 11 1 -2.5004 0.1284
7 11 2 -0.2766 -1.5945
7 11 3 -1.3404 0.3901
7 11 4 -0.4107 -1.4243
7 11 5 -0.2794 0.0964
7 11 6 -0.2477 -1.0064
7 11 7 0.0778 0.0173
7 11 8 -0.0859 0.1622
7 11 9 0.4897 0.2407
7 11 10 -0.5494 0.2867
7 11 11 1.4373 -0.1290
7 11 12 -0.7984 -0.0593
7 11 13 1.3780 0.0422
7 12 0 1.3945 0.0185
7 12 1 0.9669 1.1571
7 12 2 1.0210 0.0415
7 12 3 0.8162 1.4719
7 12 4 0.5803 0.0930
7 12 5 0.5448 1.3056
7 12 6 0.3557 0.3151
7 12 7 0.3172 0.4135
7 12 8 0.1806 -0.0317
7 12 9 0.4585 -0.4804
7 12 10 -0.3582 -0.0738
7 12 11 0.9179 -0.1756
7 12 12 -0.9735 0.0874
7 12 13 0.5893 -0.0571
7 13 0 -1.6006 -0.3480
7 13 1 -0.3600 -0.1457
7 13 2 -1.4440 -1.2416
7 13 3 -0.4495 -0.1764
7 13 4 -0.9983 -1.1327
7 13 5 -0.8114 -0.3714
7 13 6 -0.5556 -0.7450
7 13 7 -0.6618 -0.3012
7 13 8 -0.4498 0.0352
7 13 9 -0.4614 0.1985
7 13 10 -0.7173 -0.0224
7 13 11 0.0902 0.0964
7 13 12 -0.7276 -0.0911
7 13 13 0.4570 0.0772
7 14 0 0.4629 0.0189
7 14 1 1.5391 0.8360
7 14 2 0.5231 0.1536
7 14 3 1.3652 1.0038
7 14 4 1.1234 0.1748
7 14 5 0.8493 0.7001
7 14 6 1.0767 0.4412
7 14 7 0.4867 0.1208
7 14 8 0.6633 0.0405
7 14 9 0.5661 0.1377
7 14 10 0.6998 -0.3157
7 14 11 0.6788 0.3725
7 14 12 0.1980 -0.0930
7 15 0 -1.0804 -0.3322
7 15 1 -0.6900 -0.0726
7 15 2 -1.2217 -0.8623
7 15 3 -1.0994 0.0048
7 15 4 -1.0999 -0.7398
7 15 5 -1.3896 -0.2254
7 15 6 -0.5961 -0.0895
7 15 7 -0.5511 -0.3673
7 15 8 -0.4721 0.2425
7 15 9 -0.6818 0.1170
7 15 10 -0.6230 -0.1912
7 15 11 -0.9459 0.1608
7 15 12 -0.4113 -0.1054
7 16 0 -0.0387 0.0204
7 16 1 0.8210 0.5627
7 16 2 0.2611 -0.0059
7 16 3 1.0734 0.6615
7 16 4 1.0865 0.0182
7 16 5 0.7091 0.2899
7 16 6 0.6721 0.3057
7 16 7 0.3104 -0.3902
7 16 8 0.1450 0.1963
7 16 9 0.4680 -0.3271
7 16 10 0.9564 -0.0474
7 16 11 0.4987 0.0338
7 16 12 0.8276 -0.0243
7 17 0 -0.6421 -0.2723
7 17 1 1.1689 -0.0500
7 17 2 -0.8401 -0.4554
7 17 3 0.0967 -0.1085
7 17 4 -0.7538 -0.3924
7 17 5 -0.6440 -0.1971
7 17 6 -0.1737 -0.0753
7 17 7 -0.0331 -0.1702
7 17 8 -0.0966 0.3170
7 17 9 -0.3198 -0.0388
7 17 10 -0.3517 0.1311
7 17 11 -0.8254 0.0093
7 18 0 -1.8667 0.0144
7 18 1 0.5591 0.4054
7 18 2 -1.1676 0.2107
7 18 3 0.6564 0.3658
7 18 4 0.0618 0.3206
7 18 5 0.3210 0.5259
7 18 6 0.1778 0.1446
7 18 7 -0.0873 0.3097
7 18 8 -0.0507 -0.0112
7 18 9 -0.0107 -0.0062
7 18 10 0.3696 -0.0356
7 19 0 -0.3130 -0.2699
7 19 1 1.2209 -0.1535
7 19 2 -0.3927 -0.4326
7 19 3 0.3499 -0.3625
7 19 4 -0.4763 -0.5568
7 19 5 -0.0356 -0.2352
7 19 6 -0.2654 -0.8315
7 19 7 0.0636 0.0007
7 19 8 0.0681 -0.3319
7 19 9 -0.0584 0.0127
7 20 0 -0.6952 0.0163
7 20 1 0.1903 0.4133
7 20 2 -0.2918 0.3078
7 20 3 0.3324 0.2962
7 20 4 -0.0701 0.2619
7 20 5 0.4857 0.6781
7 20 6 -0.0964 -0.0288
7 20 7 0.2897 0.6035
7 20 8 0.0562 -0.0492
7 20 9 -0.1254 0.0882
7 21 0 -0.1114 -0.2693
7 21 1 0.2578 -0.2454
7 21 2 -0.1621 -0.1283
7 21 3 0.0484 -0.3638
7 21 4 -0.2170 -0.0089
7 21 5 0.1271 -0.0075
7 21 6 -0.2623 -0.4342
7 21 8 -0.0863 -0.1378
7 22 0 -0.2007 0.0233
7 22 1 0.0129 0.2241
7 22 2 -0.0880 0.4471
7 22 3 0.0098 -0.2750
7 22 4 -0.1556 0.2577
7 22 5 -0.1412 -0.1111
7 22 6 0.0527 -0.2157
7 22 7 -0.0376 0.1072
7 23 0 0.1689 -0.2324
7 23 1 0.0266 -0.2811
7 23 2 0.0650 -0.0436
8 1 0 -3.0394 -0.0117
8 1 1 10.6513 -0.8090
8 1 2 -2.6002 -0.6401
8 1 3 7.2930 -1.0833
8 1 4 -1.2088 -1.1668
8 1 5 4.3373 -0.3985
8 1 6 0.0589 -0.6806
8 1 7 2.9619 -0.6280
8 1 8 0.5050 -0.0648
8 1 9 1.2888 -0.0123
8 1 11 0.3798 0.0858
8 1 13 0.3971 -0.4898
8 1 15 0.0750 -0.0399
8 2 0 -9.0904 -0.3267
8 2 1 3.4292 0.2418
8 2 2 -6.9773 1.4614
8 2 3 1.6924 0.7538
8 2 4 -3.8188 1.0483
8 2 5 0.2899 0.8106
8 2 6 -2.9303 0.4917
8 2 7 -0.1991 0.3198
8 2 8 -1.9813 0.2327
8 2 10 -0.4689 -0.2524
8 2 11 0.4593 -0.0625
8 2 15 -0.2661 -0.1602
8 3 1 2.7219 -0.4927
8 3 2 -1.5411 -0.6564
8 3 3 1.4710 -1.4144
8 3 4 -0.3680 -0.5909
8 3 5 1.4037 -0.8714
8 3 6 0.0081 -0.1384
8 3 7 1.8082 -0.2773
8 3 8 0.4036 -0.2310
8 3 15 0.2689 -0.6584
8 4 0 2.1439 -0.4079
8 4 1 0.7479 0.4950
8 4 2 1.6199 0.2903
8 4 3 0.4202 0.8020
8 4 4 0.3299 0.6522
8 4 5 0.1808 -0.0258
8 4 6 -1.0336 0.3063
8 4 7 -0.2713 -0.1210
8 4 8 -0.7199 -0.4295
8 4 12 0.1721 0.3559
8 4 13 -0.2661 -0.5727
8 4 15 -1.2433 -0.2743
8 5 0 -0.3424 0.0196
8 5 1 -3.4482 0.7198
8 5 2 -0.4289 -0.6198
8 5 3 -1.6747 0.5667
8 5 4 -0.4249 -0.3442
8 5 5 0.2076 0.2486
8 5 6 -0.1040 0.4250
8 5 7 0.8496 0.4246
8 5 8 0.7342 -0.0420
8 5 12 0.3767 0.9530
8 5 14 1.3732 0.5799
8 6 0 2.9699 -0.4114
8 6 1 0.7360 0.0979
8 6 2 2.0969 -1.3080
8 6 3 0.7206 0.5294
8 6 4 0.5712 -1.0434
8 6 5 0.4526 0.0115
8 6 6 -0.6991 -0.6233
8 6 7 -0.1017 -0.3641
8 6 10 0.2346 0.2626
8 6 11 -0.4012 -0.7507
8 6 12 0.2658 0.5866
8 6 14 0.6280 -0.1197
8 7 0 -1.0822 0.0058
8 7 1 -1.6612 1.0492
8 7 2 -1.0633 -0.4562
8 7 3 -0.8403 1.1537
8 7 4 -0.7903 -0.7911
8 7 5 0.1871 0.6136
8 7 6 -0.4695 0.1186
8 7 7 0.8080 0.2253
8 7 8 0.3864 0.2795
8 7 9 0.1329 0.0469
8 7 10 0.4328 0.3799
8 7 11 -0.1084 -0.0521
8 7 12 -0.4771 0.5128
8 7 14 0.0212 -0.0463
8 8 0 1.1951 -0.4359
8 8 1 0.7440 0.4216
8 8 2 0.7611 -0.9028
8 8 3 0.8695 1.3070
8 8 4 0.0829 -0.2452
8 8 5 0.7790 0.7021
8 8 6 -0.5664 0.0982
8 8 7 0.0907 -0.1576
8 8 8 -0.3381 -0.0522
8 8 9 -0.5157 -0.0690
8 8 10 0.1336 -0.5965
8 8 11 0.7404 -0.2369
8 8 12 0.0438 -0.8435
8 8 13 1.3213 0.1217
8 8 14 0.3449 -0.6606
8 9 0 0.4040 0.0110
8 9 1 -0.8196 0.7840
8 9 2 -0.0094 -1.2796
8 9 3 -0.1850 0.2523
8 9 4 -0.6181 -1.3827
8 9 5 0.2904 -0.2638
8 9 6 -0.4153 -0.2508
8 9 7 0.2437 -0.1227
8 9 8 0.4580 -0.2119
8 9 9 -0.1376 0.4304
8 9 10 -0.2498 -0.1418
8 9 11 0.1052 1.1349
8 9 12 -1.7560 0.0448
8 9 13 -0.0574 0.9693
8 10 0 0.6193 -0.3854
8 10 1 -1.1036 0.7036
8 10 2 0.2964 -0.7986
8 10 3 -0.1316 1.4850
8 10 4 -0.1680 -0.1403
8 10 5 0.4964 0.6712
8 10 6 -0.2062 -0.1047
8 10 7 -0.0929 0.2301
8 10 8 0.0876 0.0338
8 10 9 -0.1805 0.4852
8 10 10 -0.2490 -0.4438
8 10 11 1.2604 -0.0290
8 10 12 -0.5450 -0.8981
8 11 0 1.0304 0.0119
8 11 1 0.1283 0.9819
8 11 2 0.5151 -1.0602
8 11 3 0.3110 0.8758
8 11 4 -0.3364 -0.9556
8 11 5 0.3786 0.6435
8 11 6 -0.3043 -0.1795
8 11 7 0.1527 0.1837
8 11 8 0.1528 -0.3852
8 11 9 0.2776 -0.3149
8 11 10 -0.5538 -0.2133
8 11 11 0.8893 0.3364
8 11 12 -1.4653 0.1251
8 11 13 0.5810 0.5653
8 12 0 -1.0095 -0.3478
8 12 1 -0.0946 0.4423
8 12 2 -0.9404 -1.2796
8 12 3 0.3104 0.9222
8 12 4 -0.7587 -1.0347
8 12 5 0.3517 0.3447
8 12 6 -0.4694 -0.7215
8 12 7 0.0162 0.0820
8 12 8 -0.3479 0.1501
8 12 9 0.1211 0.3262
8 12 10 -0.7543 0.0117
8 12 11 0.8959 -0.0213
8 12 12 -0.8699 -0.4923
8 12 13 1.0330 0.0774
8 13 0 0.0007 0.0182
8 13 1 1.4824 1.0302
8 13 2 -0.1378 -0.5788
8 13 3 1.2505 1.2573
8 13 4 -0.0239 -0.5417
8 13 5 0.7613 0.9343
8 13 6 0.1291 0.0350
8 13 7 0.4152 0.2955
8 13 8 -0.0115 -0.1747
8 13 9 0.5548 0.1305
8 13 10 -0.3213 -0.2408
8 13 11 0.7555 0.5953
8 13 12 -0.6843 0.0114
8 14 0 -1.2822 -0.3437
8 14 1 -0.6468 0.2326
8 14 2 -1.3203 -1.2736
8 14 3 -0.5812 0.5875
8 14 4 -1.0347 -1.1120
8 14 5 -0.6292 0.1415
8 14 6 -0.4813 -0.3708
8 14 7 -0.0172 -0.1342
8 14 8 -0.4368 -0.0047
8 14 9 0.1857 0.2707
8 14 10 -0.6465 -0.5255
8 14 11 0.0878 0.0856
8 14 12 -0.4254 -0.4135
8 15 0 1.1068 0.0200
8 15 1 0.8137 0.8812
8 15 2 0.9608 -0.5038
8 15 3 1.0398 1.2532
8 15 4 1.0203 -0.4752
8 15 5 0.6337 0.5510
8 15 6 0.3111 0.1586
8 15 7 0.3348 -0.4226
8 15 8 -0.4601 0.0468
8 15 9 0.5953 -0.1676
8 15 10 0.1262 -0.1423
8 15 11 0.5529 0.2970
8 15 12 0.3803 0.1034
8 16 0 -0.4025 -0.2872
8 16 1 -0.3975 0.2826
8 16 2 -0.7194 -0.9590
8 16 3 -0.6464 0.5920
8 16 4 -0.7364 -0.8069
8 16 5 -0.6784 0.1356
8 16 6 -0.2472 0.2982
8 16 7 0.3979 -0.1860
8 16 8 -0.3796 0.8209
8 16 9 0.2544 0.0424
8 16 10 -0.5925 0.2508
8 16 11 -0.6042 -0.0560
8 17 0 -0.6009 0.0238
8 17 1 0.3961 0.5297
8 17 2 -0.2849 -0.3918
8 17 3 0.6485 0.6950
8 17 4 0.4795 -0.2355
8 17 5 0.2923 0.2608
8 17 6 0.1523 0.0894
8 17 7 0.0729 -0.5639
8 17 8 -0.4510 -0.0104
8 17 9 0.3652 -0.5685
8 17 10 0.2511 -0.0545
8 17 11 0.2831 -0.1032
8 18 0 -0.2154 -0.2720
8 18 1 0.6803 0.1271
8 18 2 -0.3778 -0.5012
8 18 3 -0.0250 0.1206
8 18 4 -0.4119 -0.5626
8 18 5 -0.3868 -0.0968
8 18 6 -0.1433 -0.2455
8 18 7 0.1314 -0.0270
8 18 8 -0.1141 0.2346
8 18 9 0.1203 0.1011
8 18 10 -0.1101 0.1478
8 19 0 -0.2170 0.0168
8 19 1 0.1064 0.4309
8 19 2 0.0743 -0.0236
8 19 3 0.3193 0.5163
8 19 4 0.2843 0.1067
8 19 5 0.4436 0.7162
8 19 6 0.0462 0.0678
8 19 7 0.3008 0.3992
8 19 8 -0.1207 -0.0319
8 19 9 0.0392 -0.0024
8 20 0 0.0058 -0.2620
8 20 1 -0.3117 -0.0704
8 20 2 -0.1173 -0.3580
8 20 3 -0.3369 -0.1406
8 20 4 -0.3806 -0.4741
8 20 5 0.0343 -0.0271
8 20 7 0.0563 0.1192
8 20 8 -0.2371 -0.2624
8 21 0 0.2674 0.0256
8 21 1 -0.0154 0.2824
8 21 2 0.3296 0.2989
8 21 3 0.1439 0.0209
8 21 4 -0.0313 0.1761
8 21 5 0.1966 0.3545
8 21 6 -0.1111 -0.2142
8 22 0 0.1722 -0.2577
8 22 1 -0.1604 -0.2906
8 22 2 0.0044 -0.0267
8 22 3 -0.0314 -0.4246
8 22 4 0.0328 0.1177
8 22 5 0.2054 -0.0175
8 22 6 0.1316 -0.2963
8 23 0 0.0593 0.0183
8 23 1 -0.2102 0.2220
8 23 2 0.0626 0.3999
9 1 0 -10.8212 -0.1397
9 1 1 3.0148 0.1089
9 1 2 -8.5681 1.6211
9 1 3 1.3624 0.9002
9 1 4 -4.7484 0.7675
9 1 5 -0.3813 1.4204
9 1 6 -2.9202 0.5781
9 1 7 -0.5682 0.6675
9 1 8 -1.7625 0.3564
9 2 0 -2.8677 -0.0160
9 2 1 8.0500 -1.1059
9 2 2 -1.7422 -0.2396
9 2 3 4.5588 -1.9464
9 2 4 0.1331 -0.8969
9 2 5 2.4183 -0.9150
9 2 6 0.7390 -0.9101
9 2 7 1.9832 -0.4660
9 2 8 0.2949 -0.4098
9 3 0 -3.7058 -0.3928
9 3 1 1.0204 0.0945
9 3 2 -2.5287 1.6933
9 3 3 0.0198 0.2910
9 3 4 -1.1417 1.6109
9 3 5 -0.7490 0.3304
9 3 6 -1.3170 0.6237
9 3 7 -0.6242 0.4246
9 4 0 0.0788 0.0121
9 4 1 -0.3082 -0.2377
9 4 2 0.1576 -0.0904
9 4 3 -0.2883 -1.0820
9 4 4 0.4464 0.1206
9 4 5 0.4363 -0.6301
9 4 6 0.7041 0.1977
9 4 7 0.8943 0.3669
9 4 8 0.5914 -0.4272
9 5 0 1.7298 -0.3916
9 5 1 -0.1955 -0.1529
9 5 2 1.3869 -0.0994
9 5 3 -0.1044 -0.2274
9 5 4 0.4720 0.0184
9 5 5 -0.4176 -0.5585
9 5 6 -0.6470 -0.4626
9 5 14 0.3451 0.6586
9 6 0 -0.4994 0.0073
9 6 1 -1.4805 0.5340
9 6 2 -0.4695 0.3315
9 6 3 -1.0404 0.3912
9 6 4 -0.0652 0.3051
9 6 5 0.0195 0.4834
9 6 6 0.2473 0.6369
9 6 7 0.8189 0.7107
9 6 8 0.6146 0.1001
9 6 14 0.6276 0.3699
9 7 0 1.0138 -0.4134
9 7 1 1.1647 -0.1410
9 7 2 0.9101 -0.2103
9 7 3 0.7546 0.0915
9 7 4 0.4580 0.1368
9 7 5 0.1784 -0.3148
9 7 6 -0.6083 -0.1569
9 7 7 -0.3463 -0.5487
9 7 8 -0.5807 -0.3483
9 7 9 -1.0043 -0.1047
9 7 13 0.4458 -0.2394
9 7 14 0.0650 0.1268
9 8 0 -1.1526 0.0077
9 8 1 -0.6571 0.1728
9 8 2 -1.0244 -0.3818
9 8 3 -0.4425 -0.8336
9 8 4 -0.5689 -0.3005
9 8 5 0.1814 -0.8964
9 8 6 0.0862 0.5143
9 8 7 0.5843 -0.0447
9 8 8 1.1800 0.1553
9 8 9 -0.0703 0.4217
9 8 10 0.9543 0.0881
9 8 12 -0.7413 0.2814
9 8 13 0.0046 0.2851
9 9 0 0.5435 -0.4093
9 9 1 0.4806 0.3740
9 9 2 0.3911 0.5883
9 9 3 0.4801 0.7210
9 9 4 0.0281 1.5298
9 9 5 0.1951 -0.1432
9 9 6 -0.3411 0.7334
9 9 7 -0.9388 -0.2336
9 9 8 0.0205 -0.1290
9 9 9 -1.6132 0.2599
9 9 10 0.1522 -0.5563
9 9 11 -0.0415 -0.2956
9 9 12 -0.1803 -0.7059
9 9 13 1.1176 -0.1771
9 10 0 -0.0829 0.0120
9 10 1 -0.1930 0.1858
9 10 2 -0.1795 -0.7995
9 10 3 -0.0005 -1.0101
9 10 4 -0.3891 -0.3891
9 10 5 0.2976 -0.9949
9 10 6 0.2255 0.2645
9 10 7 0.1398 -0.2309
9 10 8 1.4631 -0.3215
9 10 9 -0.0850 -0.1030
9 10 10 0.9333 -0.0227
9 10 11 0.4536 0.4234
9 10 12 -0.7170 0.4656
9 10 13 0.2942 0.6527
9 11 0 -0.5337 -0.3698
9 11 1 0.5219 0.4896
9 11 2 -0.4992 -0.0422
9 11 3 0.6624 0.7892
9 11 4 -0.5799 0.6664
9 11 5 0.5487 0.0537
9 11 6 -0.5302 0.1600
9 11 7 -0.5874 0.1043
9 11 8 -0.1404 0.3009
9 11 9 -1.1337 0.2953
9 11 10 -0.4058 0.1372
9 11 11 0.0436 -0.3842
9 11 12 -0.7057 -0.5861
9 11 13 0.8394 -0.1485
9 12 0 -1.0128 0.0152
9 12 1 1.3433 0.5523
9 12 2 -0.9952 -0.6821
9 12 3 1.1430 -0.0579
9 12 4 -0.9259 -0.4587
9 12 5 0.9430 -0.0779
9 12 6 -0.2650 -0.0544
9 12 7 0.5046 0.1317
9 12 8 0.6207 -0.3341
9 12 9 0.2751 -0.0113
9 12 10 0.3133 0.0376
9 12 11 0.5717 0.5603
9 12 12 -0.6095 0.2798
9 13 0 -1.6942 -0.3627
9 13 1 0.5700 0.2660
9 13 2 -1.5715 -0.4700
9 13 3 0.6304 0.5109
9 13 4 -1.2395 -0.0156
9 13 5 0.4512 0.1625
9 13 6 -0.7243 -0.2231
9 13 7 0.0555 0.2146
9 13 8 -0.3120 -0.4092
9 13 9 -0.0891 0.3327
9 13 10 -0.3289 -0.8023
9 13 11 0.3394 -0.1586
9 13 12 -0.2957 -0.7261
9 14 0 0.5379 0.0162
9 14 1 1.3185 0.6033
9 14 2 0.2697 -0.3814
9 14 3 1.2912 0.3945
9 14 4 -0.0049 -0.3228
9 14 5 0.8153 0.0726
9 14 6 -0.3093 -0.0700
9 14 7 0.3479 0.1241
9 14 8 -0.5336 -0.3642
9 14 9 0.3119 0.6501
9 14 10 -0.3721 -0.1952
9 14 11 0.3230 0.8387
9 14 12 -0.2747 0.1726
9 15 0 -0.7042 -0.3167
9 15 1 -0.8469 0.2674
9 15 2 -0.9420 -0.6244
9 15 3 -0.4055 0.5278
9 15 4 -0.8623 -0.2648
9 15 5 0.0376 0.1723
9 15 6 -0.3280 0.3650
9 15 7 0.8833 0.1445
9 15 8 -0.3057 0.2386
9 15 9 0.8263 0.3778
9 15 10 -0.4350 -0.3792
9 15 11 0.1431 -0.0252
9 16 0 0.3694 0.0222
9 16 1 0.4688 0.4594
9 16 2 0.1907 -0.5691
9 16 3 0.7487 0.4013
9 16 4 0.1764 -0.3817
9 16 5 0.3303 -0.2718
9 16 6 -0.4456 -0.0434
9 16 7 0.1174 -0.8865
9 16 8 -1.1070 -0.3073
9 16 9 0.4060 -0.4440
9 16 10 -0.3758 -0.2407
9 16 11 0.3303 0.0424
9 17 0 -0.2426 -0.2919
9 17 1 0.2217 0.3252
9 17 2 -0.4559 -0.2900
9 17 3 -0.0281 0.4193
9 17 4 -0.3621 -0.0280
9 17 5 -0.1901 -0.0218
9 17 6 0.0111 0.6541
9 17 7 0.5905 0.0916
9 17 8 -0.1644 0.7876
9 17 9 0.6541 0.3616
9 17 10 -0.2301 0.2978
9 18 0 0.0108 0.0189
9 18 1 0.1466 0.3045
9 18 2 0.1333 -0.3541
9 18 3 0.2730 0.1885
9 18 4 0.4137 0.0313
9 18 5 0.1427 -0.0678
9 18 6 0.1027 0.1907
9 18 7 0.1155 -0.4568
9 18 8 -0.4551 -0.1570
9 18 9 0.1100 -0.3590
9 18 10 -0.2051 -0.2127
9 19 0 0.0411 -0.2763
9 19 1 -0.6749 0.1956
9 19 2 -0.0625 -0.3097
9 19 3 -0.6118 0.1168
9 19 4 -0.2251 -0.2414
9 19 5 -0.2774 -0.2265
9 19 6 -0.3342 -0.0704
9 19 7 0.1262 -0.0998
9 19 8 -0.2528 0.1814
9 19 9 0.2678 0.0685
9 20 0 0.9733 0.0260
9 20 1 -0.0840 0.3390
9 20 2 0.8695 -0.1189
9 20 3 0.0923 0.1742
9 20 4 0.2957 0.1061
9 20 5 0.2701 0.2234
9 20 7 0.3722 0.0935
9 20 8 -0.1701 -0.0171
9 21 0 0.1891 -0.2571
9 21 1 -0.7971 -0.0558
9 21 2 0.0271 -0.1007
9 21 3 -0.4097 -0.1893
9 21 4 -0.0398 0.0569
9 21 5 0.1727 -0.1439
9 21 6 -0.0647 -0.1776
9 21 7 0.1219 0.1056
9 22 0 0.5392 0.0245
9 22 1 -0.2271 0.1923
9 22 2 0.4269 0.3062
9 22 3 0.0373 -0.1571
9 22 4 -0.1117 0.3208
9 22 5 -0.1360 0.0145
9 23 0 0.4102 -0.1739
10 1 0 -3.2317 -0.0051
10 1 1 6.8918 -0.7915
10 1 2 -2.1899 -0.0711
10 1 3 4.3324 -0.8224
10 1 4 -0.1272 -1.2488
10 1 5 2.3772 -0.1079
10 1 7 1.6182 -0.3708
10 2 0 -5.9033 -0.2889
10 2 1 2.1316 -0.1536
10 2 2 -4.3105 1.4097
10 2 3 0.5760 0.3002
10 2 4 -1.9965 1.0140
10 2 5 -0.7544 1.1491
10 2 7 -0.5176 0.9094
10 3 0 -0.6497 -0.0004
10 3 1 2.4194 -0.4998
10 3 2 -0.3115 0.2365
10 3 3 1.1811 -1.3994
10 3 4 0.5575 -0.1565
10 3 5 0.6633 -0.8074
10 3 6 0.9566 -0.6072
10 3 7 0.6654 0.1110
10 4 0 -0.1849 -0.3955
10 4 1 -0.6933 -0.3136
10 4 2 -0.0295 0.4890
10 4 3 -0.5185 -0.4410
10 4 4 0.0282 0.5841
10 4 5 -0.9785 -0.1596
10 4 6 -0.3439 -0.1703
10 4 7 -0.7757 0.3430
10 5 0 1.0801 0.0145
10 5 1 -0.7027 0.3014
10 5 2 0.7416 0.6816
10 5 3 -0.6531 0.1061
10 5 4 0.7929 0.4911
10 5 5 -0.1959 0.5374
10 5 6 0.8614 0.2304
10 5 14 0.8797 0.4472
10 6 0 0.6422 -0.3783
10 6 1 -0.4878 -0.5134
10 6 2 0.7234 -0.2425
10 6 3 -0.4396 -0.5166
10 6 4 0.7002 -0.4813
10 6 5 -0.7444 -0.3547
10 6 6 -0.1401 -1.0240
10 6 7 -0.2745 -0.2047
10 6 8 -0.4069 -0.8605
10 6 14 -0.1113 0.6883
10 7 0 -0.0934 0.0021
10 7 1 -0.4098 0.1025
10 7 2 -0.0522 0.4315
10 7 3 -0.6473 -0.3388
10 7 4 0.4495 0.1920
10 7 5 -0.3035 0.2288
10 7 6 0.4476 0.4530
10 7 7 0.4897 0.8699
10 7 8 0.3262 0.0851
10 7 9 0.1315 0.5480
10 7 13 0.3086 -0.6135
10 7 14 -0.2940 0.1329
10 8 0 0.2964 -0.3889
10 8 1 0.1581 -0.1904
10 8 2 0.4015 0.7862
10 8 3 -0.2563 -0.1306
10 8 4 0.5129 1.0568
10 8 5 -0.6784 -0.4630
10 8 6 -0.0822 -0.0678
10 8 7 -0.7368 -0.3324
10 8 8 -0.1857 -0.7544
10 8 9 -1.0203 0.1332
10 8 10 0.1295 -0.5113
10 8 12 -0.1774 -0.0240
10 8 13 0.7088 -0.3743
10 9 0 0.0803 0.0125
10 9 1 -0.3240 -0.2212
10 9 2 0.3413 0.0338
10 9 3 -0.4687 -1.4565
10 9 4 0.7716 0.3363
10 9 5 -0.2931 -0.9280
10 9 6 0.9863 0.5855
10 9 7 0.0409 0.2250
10 9 8 1.4409 -0.1887
10 9 9 -0.1028 0.3280
10 9 10 1.1623 0.1420
10 9 11 0.2298 0.2307
10 9 12 -0.2273 0.7375
10 9 13 0.2010 0.0938
10 10 0 -0.0013 -0.3665
10 10 1 -0.0349 0.1046
10 10 2 0.1263 0.6186
10 10 3 -0.5007 0.0309
10 10 4 0.1789 1.2074
10 10 5 -0.7057 -0.5122
10 10 6 -0.0780 0.2566
10 10 7 -1.2625 -0.0841
10 10 8 -0.0103 0.1526
10 10 9 -1.6905 0.1525
10 10 10 -0.2508 0.2758
10 10 11 -0.6830 -0.7586
10 10 12 -0.6002 -0.1586
10 10 13 0.3833 -0.5409
10 11 0 -0.7590 0.0150
10 11 1 0.7086 0.2424
10 11 2 -0.3350 -0.3045
10 11 3 0.4470 -0.7025
10 11 4 0.0441 0.0522
10 11 5 0.4977 -0.4921
10 11 6 0.5199 0.2085
10 11 7 0.3879 -0.0499
10 11 8 1.4540 -0.1757
10 11 9 0.1449 -0.4538
10 11 10 1.2896 0.4926
10 11 11 0.5247 0.0265
10 11 12 0.0924 0.7537
10 12 0 -1.5284 -0.3685
10 12 1 0.9163 0.1576
10 12 2 -1.2671 0.0512
10 12 3 0.4627 0.1822
10 12 4 -0.9920 0.6338
10 12 5 0.1591 -0.0684
10 12 6 -0.8293 -0.0674
10 12 7 -0.6749 0.1614
10 12 8 -0.2965 -0.2011
10 12 9 -1.1872 -0.0993
10 12 10 -0.1266 -0.3143
10 12 11 -0.4637 -0.7580
10 12 12 -0.2223 -0.5576
10 13 0 -0.2589 0.0188
10 13 1 1.6077 0.2950
10 13 2 -0.1804 -0.0464
10 13 3 1.2949 -0.4683
10 13 4 -0.2159 0.0421
10 13 5 0.9919 -0.3127
10 13 6 -0.0339 -0.1180
10 13 7 0.5390 0.5282
10 13 8 0.4636 -0.2959
10 13 9 0.0520 0.9052
10 13 10 0.3591 0.3474
10 13 11 0.0115 0.9021
10 13 12 -0.1278 0.4832
10 14 0 -1.2075 -0.3417
10 14 1 -0.7044 -0.0017
10 14 2 -1.1991 0.0586
10 14 3 -0.2396 -0.0271
10 14 4 -0.9941 0.5094
10 14 5 0.2318 0.0176
10 14 6 -0.5914 0.0369
10 14 7 0.3686 0.3915
10 14 8 -0.2239 -0.7391
10 14 9 0.2227 0.2690
10 14 10 -0.0613 -1.0289
10 14 11 0.2064 -0.3459
10 15 0 0.9448 0.0188
10 15 1 0.7585 0.1778
10 15 2 0.5165 -0.1445
10 15 3 0.9160 -0.3271
10 15 4 -0.0963 -0.0495
10 15 5 0.5744 -0.5304
10 15 6 -0.6358 -0.2399
10 15 7 0.2621 -0.1687
10 15 8 -0.8563 -0.5930
10 15 9 0.2161 0.4573
10 15 10 -0.4797 -0.1774
10 15 11 0.1865 0.4372
10 16 0 -0.4498 -0.3133
10 16 1 -0.2223 0.1840
10 16 2 -0.6779 0.2139
10 16 3 0.1082 0.1505
10 16 4 -0.5771 0.5798
10 16 5 0.2864 -0.0003
10 16 6 -0.1483 0.7359
10 16 7 0.7946 0.4743
10 16 8 -0.1618 0.3126
10 16 9 0.7641 0.6324
10 16 10 -0.1918 -0.0840
10 16 11 0.2515 0.0876
10 17 0 -0.0599 0.0174
10 17 1 0.4044 -0.0005
10 17 2 -0.1388 -0.2090
10 17 3 0.4886 -0.5005
10 17 4 0.0524 0.2067
10 17 5 0.1336 -0.7006
10 17 6 -0.0823 0.0175
10 17 7 0.0033 -0.6014
10 17 8 -0.5586 -0.6067
10 17 9 0.0499 -0.1625
10 17 10 -0.3744 -0.4663
10 18 0 -0.2415 -0.3132
10 18 1 -0.2512 0.1924
10 18 2 -0.2905 0.1861
10 18 3 -0.3002 -0.0745
10 18 4 -0.1900 0.4357
10 18 5 -0.3783 -0.4268
10 18 6 -0.0749 0.4705
10 18 7 -0.0002 0.1197
10 18 8 -0.0356 0.2034
10 18 9 0.2993 0.4753
10 19 0 0.7581 0.0195
10 19 1 0.1464 0.2235
10 19 2 0.6850 -0.2306
10 19 3 0.1373 -0.1202
10 19 4 0.4596 0.3037
10 19 5 0.1560 -0.2569
10 19 6 0.2113 0.2536
10 19 7 0.2166 -0.1990
10 19 8 -0.0734 -0.2004
10 20 0 -0.0704 -0.2795
10 20 1 -0.8494 0.1987
10 20 2 -0.0836 -0.1418
10 20 3 -0.5725 0.0013
10 20 4 -0.0354 0.1959
10 20 5 -0.1166 -0.3089
10 20 7 0.0029 0.0346
10 20 8 -0.1646 0.1407
10 21 0 0.6606 0.0266
10 21 1 -0.0033 0.2673
10 21 2 0.5993 -0.0431
10 21 3 0.0360 -0.1614
10 21 4 0.1312 0.3235
10 21 5 -0.1474 -0.2726
10 21 6 -0.0847 0.1691
10 22 0 0.1915 -0.2105
10 22 1 -0.4363 -0.0397
10 22 2 -0.0534 -0.0396
10 22 4 0.0118 0.2630
11 1 0 -3.1946 -0.0700
11 1 1 2.2854 -0.1405
11 1 2 -2.4557 0.2577
11 1 3 0.8943 0.4254
11 1 4 -1.3932 -0.1967
11 1 6 -1.0794 -0.0390
11 1 7 -0.0224 0.9005
11 2 0 -2.0825 -0.0068
11 2 1 2.1490 -0.0477
11 2 2 -1.4645 0.1500
11 2 3 1.1164 -0.4360
11 2 4 -0.1028 -0.5390
11 2 5 0.6348 -0.3362
11 2 6 0.4376 -1.0436
11 2 7 0.5051 -0.0819
11 3 0 -0.5786 -0.3709
11 3 1 0.7822 -0.2312
11 3 2 -0.3578 0.0786
11 3 3 0.4589 -0.2738
11 3 4 -0.1236 0.5601
11 3 5 -0.4708 0.2843
11 3 6 -0.1625 0.3143
11 3 7 -0.5504 0.6047
11 4 0 0.3703 0.0203
11 4 1 -0.5528 0.5375
11 4 2 0.0309 0.5039
11 4 3 -0.4185 0.1536
11 4 4 0.2684 0.3029
11 4 5 -0.2494 -0.0287
11 4 6 0.7595 -0.1392
11 4 7 -0.1565 0.3345
11 4 14 0.7375 0.1276
11 5 0 0.7861 -0.3759
11 5 1 -0.6734 -0.4051
11 5 2 0.6974 -0.7336
11 5 3 -0.2642 -0.3760
11 5 4 0.6440 -0.6757
11 5 5 -0.6712 -0.0440
11 5 7 -0.2549 0.0406
11 6 0 0.5460 0.0089
11 6 1 -0.4864 0.5263
11 6 2 0.2464 0.3908
11 6 3 -0.6175 0.6576
11 6 4 0.4555 -0.1214
11 6 5 -0.5647 1.0172
11 6 6 0.2524 0.0046
11 6 7 0.0055 1.0192
11 6 8 -0.4116 0.1018
11 6 13 0.2728 -0.7380
11 6 14 0.1483 0.1968
11 7 0 0.2772 -0.3626
11 7 1 -0.1823 -0.3123
11 7 2 0.3292 -0.0249
11 7 3 -0.3182 -0.0196
11 7 4 0.6411 -0.3464
11 7 5 -0.5510 0.0953
11 7 6 0.2279 -1.0268
11 7 7 0.2786 -0.1130
11 7 8 -0.0668 -1.0342
11 7 9 0.2745 -0.0658
11 7 12 -0.0895 0.2528
11 7 13 0.3673 -0.3902
11 8 0 0.3426 0.0094
11 8 1 -0.3614 -0.0367
11 8 2 0.5253 0.3300
11 8 3 -0.5986 -0.4798
11 8 4 1.0354 0.0852
11 8 5 -0.7107 0.3284
11 8 6 0.5220 0.1900
11 8 7 -0.1248 1.0353
11 8 8 -0.1366 -0.1641
11 8 9 -0.1491 0.8548
11 8 10 0.0759 0.1775
11 8 11 -0.0518 0.3093
11 8 12 -0.2943 0.6876
11 8 13 0.0885 -0.1913
11 9 0 0.4819 -0.3357
11 9 1 -0.6425 -0.2413
11 9 2 0.5782 0.2856
11 9 3 -1.3346 -0.2641
11 9 4 0.8941 0.2059
11 9 5 -1.3169 -0.3142
11 9 6 0.5635 -0.6411
11 9 7 -0.4119 0.0908
11 9 8 0.1055 -0.5422
11 9 9 -0.2442 0.2391
11 9 10 -0.1320 -0.1187
11 9 11 -0.1442 -0.7059
11 9 12 -0.4116 0.0700
11 10 0 0.1565 0.0145
11 10 1 -0.1939 0.3920
11 10 2 0.8232 0.0725
11 10 3 -0.4949 0.0782
11 10 4 1.3874 0.1329
11 10 5 -0.5144 0.4325
11 10 6 0.8079 0.0722
11 10 7 -0.0712 0.3814
11 10 8 0.4316 -0.3109
11 10 9 0.1751 -0.3585
11 10 10 0.5037 0.4178
11 10 11 0.6216 -0.2386
11 10 12 0.1407 0.9017
11 11 0 -0.6355 -0.3383
11 11 1 0.2498 0.0743
11 11 2 -0.3719 -0.6278
11 11 3 -0.7335 0.1716
11 11 4 -0.0654 -0.4002
11 11 5 -0.7284 0.0718
11 11 6 -0.2733 -0.5671
11 11 7 -0.4745 0.2041
11 11 8 -0.2780 0.0917
11 11 9 -0.6420 -0.2140
11 11 10 -0.3187 0.2423
11 11 11 -0.5050 -0.9471
11 11 12 -0.4687 -0.1692
11 12 0 -0.4282 0.0194
11 12 1 1.1855 0.6725
11 12 2 0.1978 -0.1232
11 12 3 0.6894 0.3855
11 12 4 0.5867 -0.1700
11 12 5 0.5735 0.4281
11 12 6 0.3699 -0.2464
11 12 7 0.5774 0.5778
11 12 8 0.5076 -0.0250
11 12 9 0.1491 0.3999
11 12 10 0.5193 0.8157
11 12 11 0.0721 0.5410
11 12 12 0.2214 0.7206
11 13 0 -1.3021 -0.3411
11 13 1 -0.6065 -0.0315
11 13 2 -1.0104 -0.4024
11 13 3 -0.7979 0.0098
11 13 4 -0.6295 -0.0685
11 13 5 -0.3862 0.2033
11 13 6 -0.6340 -0.5313
11 13 7 -0.1804 0.3142
11 13 8 -0.3642 -0.9506
11 13 9 -0.1873 -0.3048
11 13 10 0.0622 -1.0409
11 13 11 -0.0631 -0.8296
11 14 0 1.3555 0.0213
11 14 1 0.8536 0.3614
11 14 2 1.1780 0.0102
11 14 3 0.6540 -0.0055
11 14 4 0.5483 -0.0882
11 14 5 0.4898 0.0267
11 14 6 -0.0849 -0.3825
11 14 7 0.4855 0.5731
11 14 8 -0.2709 -0.2925
11 14 9 0.2055 1.0150
11 14 10 -0.2663 0.3939
11 14 11 -0.0170 0.6828
11 15 0 -0.4929 -0.3134
11 15 1 -1.1428 0.0815
11 15 2 -0.5909 0.0240
11 15 3 -0.5471 0.0985
11 15 4 -0.4849 0.2356
11 15 5 0.0624 0.2163
11 15 6 -0.3652 0.1000
11 15 7 0.4705 0.5347
11 15 8 -0.3861 -0.3605
11 15 9 0.5113 0.2660
11 15 10 -0.2060 -0.4963
11 15 11 0.3392 -0.2501
11 16 0 0.5981 0.0191
11 16 1 0.3926 -0.0107
11 16 2 0.3049 -0.1178
11 16 3 0.5139 -0.4324
11 16 4 0.0622 0.0878
11 16 5 0.2618 -0.3968
11 16 6 -0.1178 -0.2540
11 16 7 0.2498 -0.1446
11 16 8 -0.3907 -0.6119
11 16 9 0.2487 0.1859
11 16 10 -0.3818 -0.2387
11 17 0 -0.2871 -0.3294
11 17 1 -0.2178 0.0792
11 17 2 -0.3942 0.4533
11 17 3 -0.1206 -0.2388
11 17 4 -0.2707 0.5148
11 17 5 -0.3178 -0.3363
11 17 6 -0.1112 0.2480
11 17 7 -0.1579 0.3549
11 17 8 -0.1306 -0.1488
11 17 9 0.1693 0.5502
11 17 10 0.0268 -0.1128
11 18 0 0.4160 0.0161
11 18 1 0.2870 -0.0124
11 18 2 0.3223 0.0102
11 18 3 0.2490 -0.4372
11 18 4 0.3940 0.5525
11 18 5 0.1416 -0.2573
11 18 6 0.5047 0.1889
11 18 7 0.1427 0.1416
11 18 8 0.2351 -0.4341
11 19 0 -0.2894 -0.3132
11 19 1 -0.5108 0.1773
11 19 2 -0.2279 0.0526
11 19 3 -0.4039 -0.1744
11 19 4 -0.1067 0.2510
11 19 5 -0.3694 -0.4354
11 19 6 -0.1581 0.0226
11 19 7 -0.3921 0.1822
11 19 8 -0.0751 -0.2727
11 20 0 0.3674 0.0240
11 20 1 0.2507 0.2760
11 20 2 0.3977 -0.1852
11 20 3 0.0830 -0.1433
11 20 4 0.2486 0.3591
11 20 7 0.0440 0.0015
11 21 0 -0.1742 -0.2560
11 21 1 -0.1729 0.1466
11 21 2 -0.1730 -0.0977
11 21 3 -0.2619 -0.1749
11 21 4 0.0896 0.3433
11 21 5 -0.1192 -0.4120
11 22 0 -0.0356 0.0157
11 22 1 0.1113 0.2446
12 1 0 -0.8968 -0.0046
12 1 1 0.5032 0.2506
12 1 2 -0.7107 -0.2036
12 1 3 0.2634 0.4027
12 1 4 0.0469 -0.7361
12 1 5 0.3850 0.2606
12 1 6 0.1318 -0.9066
12 1 7 0.4552 0.1498
12 2 0 0.1288 -0.2634
12 2 1 1.0558 0.0245
12 2 2 0.2127 -0.5051
12 2 3 0.6550 0.0681
12 2 4 0.1271 0.1139
12 2 5 -0.1182 0.4484
12 2 6 -0.1215 0.2334
12 2 7 -0.0997 0.7103
12 3 0 -0.5099 0.0083
12 3 1 -1.0792 0.8327
12 3 2 -0.6761 0.1652
12 3 3 -0.7386 0.2753
12 3 4 -0.2647 0.2870
12 3 5 -0.3566 -0.5508
12 3 6 0.3747 -0.1596
12 3 7 -0.2839 -0.2417
12 4 0 1.5329 -0.3957
12 4 1 -0.0074 -0.0963
12 4 2 1.2469 -1.0880
12 4 3 0.3647 -0.2680
12 4 4 0.8079 -0.1251
12 4 5 -0.2435 -0.2651
12 4 6 0.5478 0.2973
12 4 7 -0.3967 -0.0069
12 5 0 0.2192 0.0222
12 5 1 -1.1772 0.9968
12 5 2 -0.1976 -0.0057
12 5 3 -0.9050 0.9649
12 5 4 -0.1060 -0.0886
12 5 5 -0.7142 0.3626
12 5 7 -0.4532 0.0287
12 6 0 0.7576 -0.3689
12 6 1 0.2202 -0.0007
12 6 2 0.5839 -0.8156
12 6 3 0.4181 0.3930
12 6 4 0.5996 -0.7156
12 6 5 0.1319 0.2290
12 6 6 0.3943 -0.5644
12 6 7 0.5576 -0.3130
12 6 8 0.2962 -0.2248
12 7 0 -0.2761 0.0089
12 7 1 -0.5192 0.3462
12 7 2 -0.3531 -0.0450
12 7 3 -0.4342 0.2768
12 7 4 -0.0213 -0.3682
12 7 5 -0.5426 0.5979
12 7 6 -0.4194 0.1079
12 7 7 -0.2350 0.7430
12 7 8 -0.8276 0.2870
12 7 9 -0.4684 0.5472
12 7 13 -0.0510 0.0368
12 8 0 0.8440 -0.3269
12 8 1 -0.0219 -0.2469
12 8 2 0.6750 -0.0433
12 8 3 -0.4859 -0.0686
12 8 4 0.8357 -0.2998
12 8 5 -0.4203 -0.0347
12 8 6 0.6419 -0.7903
12 8 7 0.7499 -0.0578
12 8 8 0.3437 -0.7134
12 8 9 0.7279 -0.0826
12 8 10 0.3698 -0.3887
12 8 12 0.0593 -0.0651
12 8 13 0.3047 -0.6033
12 9 0 0.1129 0.0166
12 9 1 -0.9682 0.4204
12 9 2 0.6675 0.3116
12 9 3 -0.9393 0.4943
12 9 4 1.1529 0.0821
12 9 5 -0.9950 0.8573
12 9 6 0.0042 -0.0319
12 9 7 -0.4699 0.6322
12 9 8 -1.0269 -0.2998
12 9 9 -0.1379 0.0192
12 9 10 -0.6066 0.3229
12 9 11 0.2842 -0.1493
12 9 12 -0.2462 0.8280
12 10 0 0.6219 -0.2937
12 10 1 0.0429 -0.1011
12 10 2 0.5851 -1.1029
12 10 3 -1.0021 0.0666
12 10 4 0.6875 -1.2066
12 10 5 -0.5812 0.2096
12 10 6 0.3861 -0.8963
12 10 7 0.7602 0.3628
12 10 8 0.0240 0.0902
12 10 9 0.9142 0.0540
12 10 10 -0.3064 0.3699
12 10 11 0.2959 -0.7095
12 11 0 -0.6728 0.0162
12 11 1 0.1630 1.1084
12 11 2 0.2230 -0.1770
12 11 3 -0.0276 1.5114
12 11 4 0.7105 -0.4369
12 11 5 0.0177 1.2123
12 11 6 -0.2976 -0.4587
12 11 7 0.2977 0.4494
12 11 8 -0.8801 -0.1718
12 11 9 0.1586 -0.0693
12 11 10 -0.4809 0.5739
12 11 11 0.3179 0.1927
12 12 0 -0.7693 -0.3133
12 12 1 0.0061 0.0590
12 12 2 -0.5184 -1.4139
12 12 3 -0.8265 0.3413
12 12 4 -0.2261 -1.1966
12 12 5 -0.2762 0.5588
12 12 6 -0.5019 -0.8727
12 12 7 0.5726 0.3640
12 12 8 -0.4031 -0.6063
12 12 9 0.6800 -0.3690
12 12 10 0.0299 -0.7624
12 12 11 0.2058 -0.7461
12 13 0 0.7978 0.0211
12 13 1 0.7219 0.9211
12 13 2 1.1709 -0.1521
12 13 3 0.2826 1.0953
12 13 4 0.9185 -0.4555
12 13 5 0.2617 0.8055
12 13 6 -0.1172 -0.5551
12 13 7 0.6064 0.7661
12 13 8 -0.7013 -0.0630
12 13 9 0.2191 1.0698
12 13 10 -0.6316 0.6027
12 13 11 -0.1651 0.8420
12 14 0 -0.5115 -0.2949
12 14 1 -1.4541 0.1379
12 14 2 -0.3591 -0.9159
12 14 3 -1.2434 0.4029
12 14 4 -0.0910 -0.7692
12 14 5 -0.3268 0.5715
12 14 6 -0.3829 -0.4527
12 14 7 0.5163 0.4197
12 14 8 -0.5999 -0.6142
12 14 9 0.8093 -0.1337
12 14 10 -0.1518 -0.8297
12 14 11 0.4668 -0.4331
12 15 0 1.2461 0.0194
12 15 1 0.2550 0.5103
12 15 2 1.0528 -0.4040
12 15 3 0.2039 0.6595
12 15 4 0.5431 -0.4553
12 15 5 0.1263 0.4021
12 15 6 -0.1144 -0.4438
12 15 7 0.5426 0.0649
12 15 8 -0.5993 -0.2345
12 15 9 0.5290 0.3063
12 15 10 -0.5975 0.1405
12 16 0 -0.0765 -0.3094
12 16 1 -0.7056 0.2139
12 16 2 -0.2032 -0.2462
12 16 3 -0.4655 0.2333
12 16 4 -0.1137 -0.3893
12 16 5 -0.3279 0.1111
12 16 6 -0.2253 -0.1182
12 16 7 0.0318 0.2209
12 16 8 -0.5500 -0.0530
12 16 9 0.3707 0.1164
12 16 10 -0.2820 -0.0873
12 17 0 0.5812 0.0181
12 17 1 0.0727 0.1221
12 17 2 0.4130 -0.1031
12 17 3 0.1420 0.1122
12 17 4 0.4335 0.2477
12 17 5 0.0884 0.3276
12 17 6 0.4840 0.1168
12 17 7 0.3566 0.2861
12 17 8 0.1287 -0.1141
12 17 9 0.2967 0.2782
12 18 0 -0.0893 -0.3197
12 18 1 -0.5212 0.1231
12 18 2 -0.1189 -0.0474
12 18 3 -0.3494 -0.1624
12 18 4 -0.0916 -0.2618
12 18 5 -0.4531 -0.3628
12 18 6 -0.2525 -0.4542
12 18 7 -0.4683 0.0036
12 18 8 -0.3124 -0.5328
12 19 0 0.4305 0.0245
12 19 1 0.1568 0.2613
12 19 2 0.3336 -0.1789
12 19 3 0.0631 0.1410
12 19 4 0.2178 0.2780
12 19 6 0.3497 0.0568
12 19 7 0.2797 0.4731
12 20 0 -0.1716 -0.2825
12 20 1 -0.1627 0.2174
12 20 2 -0.0911 -0.1893
12 20 3 -0.1946 -0.0539
12 20 4 0.0892 -0.0064
12 21 0 -0.1192 0.0203
12 21 1 0.1212 0.2797
12 21 2 0.1036 -0.1084
12 21 3 0.0088 -0.0634
12 21 4 0.1893 0.4101
12 21 5 -0.1771 -0.1106
13 1 0 0.0224 -0.0855
13 1 1 -0.3021 0.2532
13 1 2 -0.0342 -0.5114
13 1 3 0.1674 0.5748
13 1 4 -0.1749 -0.2870
13 1 5 -0.1688 0.7146
13 1 6 -0.3357 -0.2359
13 1 7 0.0224 0.7075
13 2 0 0.1607 -0.0090
13 2 1 -0.7180 0.7258
13 2 2 -0.2397 -0.1906
13 2 3 -0.3951 0.3037
13 2 4 -0.1931 -0.0180
13 2 5 -0.0864 -0.3028
13 2 6 0.1965 -0.3615
13 2 7 -0.0632 0.1097
13 3 0 1.5203 -0.3887
13 3 1 -0.3066 0.0971
13 3 2 1.2108 -0.9215
13 3 3 0.2403 -0.2410
13 3 4 0.6743 0.3135
13 3 5 -0.1518 -0.4100
13 3 7 -0.3828 0.2435
13 4 0 0.6591 0.0218
13 4 1 -1.5722 1.0660
13 4 2 0.1548 -0.1411
13 4 3 -1.1280 0.5818
13 4 4 -0.0411 0.3229
13 4 5 -0.7856 -0.4558
13 4 6 0.3011 0.3639
13 4 7 -0.5986 -0.5082
13 5 0 1.2175 -0.3981
13 5 1 -0.2339 0.2738
13 5 2 0.9875 -1.0101
13 5 3 0.2900 0.4085
13 5 4 0.7506 -0.2458
13 5 6 0.5818 0.2505
13 5 7 0.1030 -0.3647
13 6 0 -0.1881 0.0111
13 6 1 -0.6991 0.6088
13 6 2 -0.4987 -0.5394
13 6 3 -0.4314 0.3927
13 6 4 -0.5315 -0.3965
13 6 5 -0.3953 0.0557
13 6 6 -0.5579 0.3934
13 6 7 -0.3382 -0.0084
13 6 8 -0.3133 0.4264
13 6 13 0.0874 0.1508
13 7 0 0.8791 -0.3611
13 7 1 0.4252 0.0694
13 7 2 0.5663 -0.0874
13 7 3 0.4086 0.3011
13 7 4 0.4638 0.0303
13 7 5 0.4144 -0.1626
13 7 6 0.3868 -0.1096
13 7 7 0.8087 -0.5111
13 7 8 0.5162 -0.3154
13 7 9 0.1931 -0.3695
13 8 0 -0.2347 0.0152
13 8 1 -1.2610 0.2018
13 8 2 0.0011 0.2131
13 8 3 -0.8978 -0.0120
13 8 4 0.2498 0.1687
13 8 5 -0.8248 0.1562
13 8 6 -0.5325 0.3727
13 8 7 -0.5781 0.2356
13 8 8 -0.9544 0.1764
13 8 9 -0.6278 0.1703
13 8 10 -0.3948 0.4913
13 8 12 -0.3825 0.6935
13 9 0 1.6310 -0.2867
13 9 1 0.1721 -0.2378
13 9 2 1.2719 -0.5553
13 9 3 -0.5285 -0.2185
13 9 4 0.9994 -0.5495
13 9 5 -0.0438 -0.1480
13 9 6 0.7195 -0.3349
13 9 7 1.1459 0.0363
13 9 8 0.5140 0.1167
13 9 9 1.1324 -0.0793
13 9 10 0.1380 0.3392
13 9 11 0.6349 -0.6913
13 9 12 -0.3842 0.2442
13 10 0 -0.8274 0.0170
13 10 1 -1.1294 0.9004
13 10 2 -0.0794 0.0520
13 10 3 -0.6893 1.1814
13 10 4 0.1885 -0.1527
13 10 5 -0.3809 0.7462
13 10 6 -0.9617 -0.2285
13 10 7 -0.2188 0.0387
13 10 8 -1.4958 -0.1848
13 10 9 -0.2500 -0.3311
13 10 10 -1.0262 0.4066
13 10 11 0.3555 -0.1896
13 11 0 0.4816 -0.2842
13 11 1 0.7722 0.0281
13 11 2 0.2823 -1.4476
13 11 3 -0.0905 0.2709
13 11 4 -0.0309 -1.0738
13 11 5 0.6044 0.4410
13 11 6 -0.3202 -0.4328
13 11 7 1.4324 0.3463
13 11 8 0.0083 -0.1214
13 11 9 1.3032 -0.1806
13 11 10 0.1629 -0.3129
13 11 11 0.6472 -0.4961
13 12 0 -0.4329 0.0193
13 12 1 0.0754 1.0463
13 12 2 0.2230 -0.1326
13 12 3 0.0840 1.1973
13 12 4 0.1235 -0.4216
13 12 5 0.3788 0.5868
13 12 6 -0.9613 -0.5281
13 12 7 0.5058 0.4317
13 12 8 -1.3279 -0.1342
13 12 9 -0.1391 0.8324
13 12 10 -1.0305 0.4011
13 12 11 -0.2234 0.7323
13 13 0 -0.2544 -0.2763
13 13 1 -0.5910 0.0749
13 13 2 -0.1228 -1.1695
13 13 3 -0.8449 0.3201
13 13 4 -0.0445 -0.7596
13 13 5 0.1546 0.5538
13 13 6 -0.4798 -0.3036
13 13 7 1.0207 0.4483
13 13 8 -0.4020 -0.6384
13 13 9 1.2226 -0.0252
13 13 10 0.1950 -1.0246
13 13 11 0.6602 -0.2190
13 14 0 0.8067 0.0180
13 14 1 0.1711 0.8047
13 14 2 0.9562 -0.3892
13 14 3 0.0024 1.0455
13 14 4 0.4848 -0.5351
13 14 5 0.0842 0.4175
13 14 6 -0.4778 -0.4948
13 14 7 0.5764 -0.0258
13 14 8 -1.0043 -0.2652
13 14 9 0.3202 0.4896
13 14 10 -0.8961 -0.0069
13 15 0 -0.0242 -0.2740
13 15 1 -0.6069 0.3032
13 15 2 -0.0739 -0.8881
13 15 3 -0.5463 0.5265
13 15 4 0.0465 -0.8472
13 15 5 -0.0805 0.3413
13 15 6 -0.2461 0.0489
13 15 7 0.4937 0.1795
13 15 8 -0.6245 0.2562
13 15 9 0.7398 0.1041
13 15 10 -0.2001 -0.1831
13 16 0 0.3620 0.0156
13 16 1 -0.0854 0.4610
13 16 2 0.3228 -0.3711
13 16 3 -0.0014 0.8299
13 16 4 0.3168 -0.1457
13 16 5 -0.0368 0.5546
13 16 6 0.0878 0.0964
13 16 7 0.4499 -0.2033
13 16 8 -0.3401 0.1112
13 16 9 0.4624 -0.0773
13 17 0 0.1716 -0.2976
13 17 1 -0.3121 0.1712
13 17 2 0.0477 -0.4871
13 17 3 -0.2264 0.0973
13 17 4 0.0470 -0.8545
13 17 5 -0.2810 -0.2195
13 17 6 -0.2031 -0.4106
13 17 7 -0.0553 -0.3226
13 17 8 -0.5159 -0.1165
13 17 9 0.2420 -0.2300
13 18 0 0.3821 0.0245
13 18 1 -0.0614 0.3729
13 18 2 0.2058 -0.2434
13 18 3 -0.0155 0.6928
13 18 4 0.0763 0.0372
13 18 5 0.0954 0.7798
13 18 6 0.0773 0.1997
13 18 7 0.4570 0.4201
13 18 8 -0.0329 0.2978
13 19 0 0.0303 -0.2769
13 19 1 -0.2513 0.2511
13 19 2 0.0441 -0.4877
13 19 3 -0.0347 0.2271
13 19 6 -0.2261 -0.5170
13 19 7 0.0011 -0.0243
13 20 0 0.1556 0.0269
13 20 1 -0.0985 0.3628
13 20 2 0.1643 -0.3044
13 20 4 0.0099 0.0328
14 1 0 0.6457 -0.0062
14 1 1 0.5145 0.3619
14 1 2 -0.2371 -0.4448
14 1 3 0.6915 0.3109
14 1 4 -0.4964 -0.6147
14 1 5 0.5211 0.1826
14 1 6 0.1849 -0.6390
14 1 7 0.2430 0.4282
14 2 0 0.2279 -0.3037
14 2 1 -0.3977 0.1286
14 2 2 -0.0458 -0.5205
14 2 3 0.4299 -0.0018
14 2 4 -0.2753 0.2014
14 2 5 0.0216 -0.0113
14 2 6 -0.0195 0.0878
14 2 7 -0.4092 0.5116
14 3 0 1.0340 0.0107
14 3 1 -0.7156 0.7457
14 3 2 0.3773 0.0352
14 3 3 -0.3084 0.0949
14 3 4 -0.0463 0.4756
14 3 5 -0.2673 -0.5437
14 3 6 0.4051 0.2200
14 3 7 -0.3814 -0.2155
14 4 0 0.7734 -0.4162
14 4 1 -1.0456 0.1579
14 4 2 0.5691 -0.6272
14 4 3 -0.2073 -0.0022
14 4 4 0.4010 0.1966
14 4 5 -0.1626 -0.4434
14 4 6 0.5088 0.3674
14 4 7 -0.3088 -0.0793
14 5 0 0.8120 0.0190
14 5 1 -0.2852 0.5526
14 5 2 0.3002 -0.4929
14 5 3 -0.1066 0.1756
14 5 4 -0.1974 -0.1242
14 5 5 -0.2343 -0.1520
14 5 6 -0.1589 0.4031
14 5 7 -0.3417 -0.0742
14 6 0 0.1565 -0.3961
14 6 1 -0.2026 0.2593
14 6 2 -0.0681 0.0112
14 6 3 0.3040 0.4544
14 6 4 -0.0665 0.2048
14 6 5 0.4638 -0.2532
14 6 6 0.1326 0.0713
14 6 7 0.3678 -0.4148
14 6 8 0.3780 -0.3423
14 7 0 0.1782 0.0090
14 7 1 -0.5071 -0.0298
14 7 2 0.0366 -0.0318
14 7 3 -0.2359 -0.4836
14 7 4 -0.1085 0.1557
14 7 5 -0.3171 -0.2961
14 7 6 -0.4205 0.6167
14 7 7 -0.3903 0.1234
14 7 8 -0.2070 0.1483
14 7 9 -0.6929 0.5827
14 7 12 -0.1092 0.2003
14 8 0 1.3531 -0.3229
14 8 1 -0.2323 -0.2454
14 8 2 1.0219 0.2609
14 8 3 -0.4370 -0.3351
14 8 4 0.8262 0.3111
14 8 5 -0.0825 -0.4963
14 8 6 0.6966 0.1609
14 8 7 0.4938 -0.3026
14 8 8 0.6913 -0.1647
14 8 9 0.2835 -0.0211
14 8 12 0.0281 0.0912
14 9 0 -0.1788 0.0161
14 9 1 -1.5944 0.3319
14 9 2 0.2398 0.2805
14 9 3 -1.0419 0.1549
14 9 4 0.3016 0.2321
14 9 5 -0.7546 -0.0793
14 9 6 -0.4750 0.1853
14 9 7 -0.6724 -0.1541
14 9 8 -0.7219 -0.0577
14 9 9 -0.6144 -0.0585
14 9 10 -0.6155 0.3213
14 9 11 0.1692 -0.2320
14 10 0 1.4814 -0.2813
14 10 1 0.5732 -0.0293
14 10 2 0.9967 -0.7143
14 10 3 0.0338 0.0730
14 10 4 0.3432 -0.2116
14 10 5 0.6120 0.0877
14 10 6 0.1624 0.1831
14 10 7 0.9490 0.1379
14 10 8 0.5931 0.0065
14 10 9 0.7710 -0.1515
14 10 10 0.3056 -0.1077
14 11 0 -0.8527 0.0167
14 11 1 -0.8324 0.7399
14 11 2 -0.3115 -0.1633
14 11 3 -0.1916 0.4514
14 11 4 -0.4982 -0.2558
14 11 5 0.3714 -0.2170
14 11 6 -1.1030 -0.2873
14 11 7 0.0619 0.0449
14 11 8 -0.8310 -0.0682
14 11 9 -0.6501 0.6291
14 11 10 -0.7527 0.4184
14 11 11 -0.1106 0.4292
14 12 0 0.4817 -0.2819
14 12 1 0.1711 0.0775
14 12 2 0.2886 -0.5955
14 12 3 -0.1130 0.1963
14 12 4 -0.2137 0.2022
14 12 5 0.7445 0.3235
14 12 6 -0.5535 0.2379
14 12 7 0.8622 0.3795
14 12 8 0.1482 -0.6495
14 12 9 0.7529 -0.0465
14 12 10 0.5741 -0.9500
14 13 0 0.1482 0.0212
14 13 1 -0.1881 0.5461
14 13 2 0.4765 -0.1993
14 13 3 -0.0765 0.1576
14 13 4 0.0086 -0.2326
14 13 5 0.3176 -0.4274
14 13 6 -0.6552 -0.4182
14 13 7 0.3904 -0.0579
14 13 8 -0.6172 -0.4176
14 13 9 -0.2776 0.7464
14 13 10 -0.7137 -0.1092
14 14 0 0.1080 -0.2559
14 14 1 -0.2068 0.2097
14 14 2 0.0622 -0.4749
14 14 3 -0.3160 0.2749
14 14 4 -0.0160 0.0191
14 14 5 0.2414 0.1678
14 14 6 -0.3010 0.5534
14 14 7 0.3950 0.3680
14 14 8 -0.2066 0.2014
14 14 9 0.4732 0.4372
14 14 10 0.2008 -0.3319
14 15 0 -0.1800 0.0144
14 15 1 -0.1554 0.3863
14 15 2 -0.0064 -0.2901
14 15 3 -0.0280 0.3971
14 15 4 0.0094 0.0153
14 15 5 -0.0070 -0.1467
14 15 8 -0.2030 -0.2148
14 15 9 0.0781 -0.2470
14 16 0 0.3069 -0.2666
14 16 1 0.3075 0.1182
14 16 2 0.1217 -0.3458
14 16 3 0.1214 -0.0366
14 16 5 -0.0126 -0.3974
14 16 6 -0.0174 0.2594
14 16 7 0.0644 -0.3056
14 16 8 -0.2169 0.4569
14 16 9 0.1819 0.0606
14 17 0 -0.2987 0.0210
14 17 1 -0.1810 0.2745
14 17 2 -0.3125 -0.0491
14 17 3 -0.0454 0.5551
14 17 4 -0.1879 0.2273
14 17 5 -0.0407 0.4447
14 17 6 -0.1436 0.4198
14 17 7 0.2131 -0.1384
14 18 0 0.0657 -0.2550
14 18 1 0.2750 0.1194
14 18 2 0.0162 -0.4648
14 18 3 0.3876 0.1452
14 18 5 0.4128 -0.0321
14 18 6 -0.1669 -0.2730
14 18 7 0.3809 -0.2535
14 19 0 -0.1407 0.0278
14 19 1 -0.0684 0.3830
14 19 2 -0.2244 -0.3288
14 19 3 -0.1027 0.6103
14 19 4 -0.4165 -0.2693
14 19 6 -0.4987 -0.1175
14 20 0 0.2169 -0.1908
15 1 0 -0.7220 -0.1207
15 1 1 0.2030 0.1603
15 1 2 -0.8763 -0.3933
15 1 3 0.9765 0.3567
15 1 4 -0.7825 -0.1458
15 1 5 0.2657 0.4227
15 1 6 -0.2580 -0.1540
15 1 7 -0.4888 0.4566
15 2 0 0.2358 0.0020
15 2 1 0.3224 0.4968
15 2 2 -0.3150 0.0836
15 2 3 0.5708 0.0534
15 2 4 -0.4685 0.2351
15 2 5 0.2594 -0.2786
15 2 6 0.3635 0.0284
15 2 7 -0.1485 0.0038
15 3 0 -0.0161 -0.3935
15 3 1 -0.6703 -0.0888
15 3 2 -0.1885 -0.3249
15 3 3 0.0034 -0.3625
15 3 4 -0.2000 0.3263
15 3 5 -0.1374 -0.4854
15 3 6 0.2519 0.2964
15 3 7 -0.5813 -0.1419
15 4 0 1.0131 0.0282
15 4 1 0.3459 0.4084
15 4 2 0.5666 -0.0094
15 4 3 0.4262 -0.0202
15 4 4 -0.0013 0.2294
15 4 5 0.0331 -0.1350
15 4 6 0.1635 0.4077
15 4 7 -0.2372 -0.0035
15 5 0 -0.7740 -0.4000
15 5 1 -0.6729 0.0958
15 5 2 -0.9001 0.0862
15 5 3 0.0377 0.2068
15 5 4 -0.6752 0.0738
15 5 5 0.3320 -0.2624
15 5 6 -0.0814 -0.1729
15 5 7 0.0934 -0.2385
15 6 0 0.5762 0.0148
15 6 1 0.8483 -0.1553
15 6 2 0.2029 -0.0057
15 6 3 0.9197 -0.5122
15 6 4 -0.3065 0.1001
15 6 5 0.4176 -0.0628
15 6 7 -0.0110 0.3854
15 6 8 0.0335 -0.1913
15 7 0 -0.1464 -0.3528
15 7 1 -0.5999 -0.3274
15 7 2 -0.3181 0.7508
15 7 3 -0.3262 -0.3969
15 7 4 -0.1055 0.4819
15 7 5 -0.0248 -0.5447
15 7 6 0.1912 0.0622
15 7 7 0.1341 -0.3307
15 7 8 0.3299 -0.6171
15 7 9 -0.1950 0.5153
15 8 0 0.6084 0.0150
15 8 1 -0.5709 -0.2090
15 8 2 0.6882 0.6213
15 8 3 -0.4379 -0.5412
15 8 4 0.6059 0.4662
15 8 5 -0.6334 -0.3024
15 8 6 0.1635 0.3817
15 8 7 -0.5721 0.0610
15 8 8 -0.0596 -0.1826
15 8 9 -0.4798 0.6094
15 8 11 -0.1353 0.1656
15 9 0 1.0443 -0.2863
15 9 1 -0.2342 -0.2717
15 9 2 0.7350 0.0552
15 9 3 -0.4952 -0.2482
15 9 4 0.5671 0.2414
15 9 5 -0.2110 -0.1264
15 9 6 0.6192 0.2695
15 9 7 0.0063 0.0667
15 9 8 0.6972 -0.3940
15 9 9 0.1671 0.1701
15 9 10 0.2456 -0.5089
15 10 0 -0.3199 0.0121
15 10 1 -0.8658 0.3831
15 10 2 -0.0032 -0.0983
15 10 3 -0.2930 -0.0236
15 10 4 -0.1148 -0.2099
15 10 5 -0.0691 -0.4740
15 10 6 -0.2484 -0.1527
15 10 7 -0.4593 0.1193
15 10 8 0.0470 -0.1096
15 10 9 -0.7561 0.9653
15 10 10 -0.3127 0.2504
15 11 0 0.7349 -0.3019
15 11 1 0.1507 0.1963
15 11 2 0.3805 -0.2248
15 11 3 0.0052 0.4112
15 11 4 -0.2067 0.6174
15 11 5 0.4862 0.3308
15 11 6 -0.2400 0.3557
15 11 7 0.0231 0.2530
15 11 8 0.6048 -0.9805
15 11 9 -0.0384 -0.1612
15 11 10 0.6294 -1.1690
15 12 0 0.1126 0.0201
15 12 1 -0.4023 0.3544
15 12 2 0.3953 -0.4371
15 12 3 -0.0628 -0.4335
15 12 4 -0.0533 -0.3930
15 12 5 0.4085 -0.8378
15 12 6 -0.1942 -0.4124
15 12 7 0.0871 0.2956
15 12 8 0.2867 -0.2814
15 12 9 -0.6752 1.2502
15 12 10 -0.2428 0.1762
15 13 0 0.2228 -0.2801
15 13 1 -0.3239 0.3252
15 13 2 0.1719 0.0065
15 13 3 -0.4303 0.4379
15 13 4 -0.1043 0.7918
15 13 5 0.0551 0.2640
15 13 6 -0.3298 0.5764
15 13 7 -0.3556 0.4898
15 13 8 0.1852 -0.4109
15 13 9 -0.2215 0.3524
15 13 10 0.4070 -0.5929
15 14 0 -0.1014 0.0190
15 14 1 -0.1891 0.1985
15 14 2 0.1798 -0.4539
15 14 3 -0.0467 -0.3469
15 14 4 0.1345 -0.0496
15 14 5 0.1139 -0.7656
15 14 6 0.3025 -0.0522
15 14 7 0.0505 -0.5796
15 14 8 0.6271 -0.4847
15 14 9 -0.2736 -0.0122
15 15 0 0.3899 -0.2585
15 15 1 0.3830 0.2077
15 15 2 0.1934 0.1302
15 15 3 0.0514 -0.0230
15 15 4 0.0526 0.4068
15 15 5 -0.1971 -0.4863
15 15 6 0.0781 0.7331
15 15 7 -0.6137 -0.0669
15 15 8 0.1741 0.6019
15 15 9 -0.4661 0.4054
15 16 0 -0.6419 0.0202
15 16 1 -0.3698 -0.0265
15 16 2 -0.4719 0.0778
15 16 3 -0.1026 -0.2208
15 16 4 -0.1073 0.5695
15 16 5 -0.1379 -0.2936
15 16 6 0.2743 0.5743
15 16 7 -0.1807 -0.5640
15 16 8 0.3798 0.0247
15 17 0 0.2037 -0.2343
15 17 1 0.7367 -0.0804
15 17 2 0.0649 0.1629
15 17 3 0.5656 -0.3106
15 17 4 0.0152 0.0039
15 17 5 0.2525 -0.4474
15 17 6 0.0974 0.2158
15 17 7 0.0252 -0.2705
15 18 0 -0.7748 0.0270
15 18 1 0.0574 0.0557
15 18 3 0.0518 0.0526
15 18 5 -0.0114 0.0399
15 19 0 -0.0303 -0.1812
15 19 1 0.5858 0.0400
16 1 0 -0.3543 0.0005
16 1 1 0.3680 0.4041
16 1 2 -0.5713 -0.1740
16 1 3 0.3813 0.3546
16 1 4 -0.3594 -0.0816
16 1 5 0.1420 -0.0303
16 1 6 0.3842 -0.1252
16 2 0 -0.1051 -0.2997
16 2 1 0.1629 -0.0631
16 2 2 -0.1169 -0.4441
16 2 3 0.1774 -0.3054
16 2 4 -0.0749 0.1954
16 2 5 -0.1734 -0.4135
16 2 6 0.2386 0.3408
16 2 7 -0.7044 -0.2464
16 3 0 0.3085 0.0211
16 3 1 0.2041 0.5031
16 3 2 0.3411 0.2309
16 3 3 0.1328 0.0682
16 3 4 0.1718 0.4564
16 3 5 -0.1313 -0.3042
16 3 6 0.3971 0.5626
16 3 7 -0.2473 -0.2291
16 4 0 -0.7757 -0.3877
16 4 1 -0.5058 -0.0523
16 4 2 -0.7354 -0.1924
16 4 3 -0.2476 -0.0659
16 4 4 -0.4758 -0.0276
16 4 5 0.0808 -0.3726
16 4 6 0.0428 -0.0984
16 4 7 -0.1635 -0.5051
16 5 0 0.3980 0.0279
16 5 1 1.3083 0.0604
16 5 2 0.2449 0.0277
16 5 3 1.2541 -0.1288
16 5 4 -0.3243 0.0553
16 5 5 0.6525 0.2021
16 5 6 -0.4208 0.5528
16 5 7 0.1496 0.4127
16 6 0 -1.2270 -0.3599
16 6 1 -0.4380 -0.3237
16 6 2 -1.3311 0.5912
16 6 3 -0.0066 -0.2970
16 6 4 -0.9762 0.1845
16 6 5 0.4303 -0.4729
16 6 6 -0.3584 -0.1182
16 6 7 0.3124 -0.5246
16 6 8 -0.1425 -0.5778
16 7 0 0.6850 0.0206
16 7 1 0.7067 -0.4116
16 7 2 0.5619 0.8465
16 7 3 0.6075 -0.6692
16 7 4 0.2462 0.5401
16 7 5 0.0691 -0.2204
16 7 6 -0.0567 0.5924
16 7 7 0.0001 0.0344
16 7 8 -0.0972 -0.0044
16 8 0 -0.0869 -0.2801
16 8 1 -0.5953 -0.6699
16 8 2 -0.1612 0.5992
16 8 3 -0.6119 -0.7329
16 8 4 0.2211 0.3735
16 8 5 -0.4461 -0.3532
16 8 6 0.4462 0.3142
16 8 7 -0.1505 -0.1650
16 8 8 0.1721 -0.3638
16 8 9 0.1120 0.3709
16 9 0 0.1676 0.0159
16 9 1 -0.1066 -0.0191
16 9 2 0.2855 0.5065
16 9 3 -0.0180 -0.3167
16 9 4 0.3218 0.1185
16 9 5 -0.3809 -0.4507
16 9 6 0.3512 0.0409
16 9 7 -0.4853 0.0766
16 9 8 0.2291 -0.1695
16 9 9 -0.3002 1.0702
16 10 0 0.1812 -0.2879
16 10 1 0.0002 -0.0485
16 10 2 -0.0694 0.0045
16 10 3 -0.0679 0.1684
16 10 4 -0.1256 0.5343
16 10 5 -0.0360 0.2050
16 10 6 0.1929 0.3072
16 10 7 -0.4729 0.1155
16 10 8 0.5797 -1.1796
16 10 9 -0.2447 0.0210
16 11 0 0.1928 0.0144
16 11 1 -0.0108 0.3145
16 11 2 0.3310 -0.4309
16 11 3 0.1944 -0.3652
16 11 4 0.0674 -0.4909
16 11 5 0.2319 -0.6784
16 11 6 0.2765 -0.3054
16 11 7 -0.1854 0.6616
16 11 8 0.6521 -0.1181
16 11 9 -0.6437 1.8604
16 12 0 -0.1311 -0.3120
16 12 1 -0.5459 0.4270
16 12 2 -0.0956 -0.0910
16 12 3 -0.6038 0.7485
16 12 4 -0.1619 0.6714
16 12 5 -0.2826 0.4883
16 12 6 -0.2078 0.1234
16 12 7 -0.7691 0.4061
16 12 8 0.2840 -1.2837
16 12 9 -0.4466 0.0801
16 13 0 0.3340 0.0207
16 13 1 0.1710 0.3641
16 13 2 0.6403 -0.8716
16 13 3 0.0460 -0.2242
16 13 4 0.5546 -0.5652
16 13 5 0.1304 -0.5191
16 13 6 0.7522 -0.3218
16 13 7 0.0451 0.2076
16 13 8 0.9839 -0.4172
16 14 0 0.0254 -0.2875
16 14 1 -0.0912 0.5575
16 14 2 0.0219 -0.1005
16 14 3 -0.4826 0.6357
16 14 4 0.0189 0.3582
16 14 6 0.0269 0.4005
16 14 7 -1.1938 0.1270
16 14 8 0.1424 0.0831
16 15 0 -0.2663 0.0195
16 15 1 -0.3293 0.1037
16 15 2 0.0232 -0.4872
16 15 3 -0.1187 -0.2281
16 15 4 0.4465 0.1748
16 15 5 -0.1361 -0.3343
16 15 6 0.9650 0.4487
16 15 7 -0.2266 -0.4209
16 16 0 0.4263 -0.2399
16 16 1 0.3835 0.1246
16 16 5 -0.4390 -0.5494
16 17 0 -0.6410 0.0275
16 17 1 -0.0732 -0.1915
16 18 0 -0.1570 -0.1731
16 19 0 -0.6649 0.0187
17 1 0 0.1949 -0.1284
17 1 1 0.2656 0.1379
17 1 2 0.2683 -0.4908
17 1 3 -0.2501 0.0051
17 1 4 0.2297 -0.1556
17 1 5 -0.6090 -0.2449
17 1 6 0.2549 0.1128
17 1 7 -0.7214 0.0924
17 2 0 -0.2097 0.0032
17 2 1 -0.3813 0.5473
17 2 2 0.3338 0.1110
17 2 3 -0.5509 0.2245
17 2 4 0.6411 0.4822
17 2 5 -0.4277 -0.3925
17 2 6 0.7006 0.4995
17 2 7 -0.2810 -0.2468
17 3 0 -0.0137 -0.3543
17 3 1 -0.3142 -0.0160
17 3 2 0.2564 -0.5275
17 3 3 -0.8081 -0.1882
17 3 4 0.3761 0.0587
17 3 5 -0.4692 -0.4923
17 3 6 0.3420 0.1899
17 3 7 -0.5157 -0.5768
17 4 0 0.2003 0.0267
17 4 1 0.5710 0.4862
17 4 2 0.6284 -0.1151
17 4 3 0.3122 0.3051
17 4 4 0.2966 0.0352
17 4 5 0.0895 0.1528
17 4 6 -0.0929 0.4997
17 4 7 -0.0496 0.3738
17 5 0 -1.0406 -0.3622
17 5 1 -0.3726 -0.0352
17 5 2 -0.9925 -0.1458
17 5 3 -0.2800 0.1094
17 5 4 -0.7535 -0.2103
17 5 5 0.4818 -0.2628
17 5 6 -0.2960 -0.2890
17 5 7 0.3871 -0.5899
17 6 0 0.5015 0.0235
17 6 1 0.9564 -0.0246
17 6 2 0.4950 0.3971
17 6 3 0.8741 -0.1402
17 6 4 -0.1161 0.2005
17 6 5 0.4728 -0.0031
17 6 6 -0.6103 0.6453
17 6 7 0.2782 0.0257
17 7 0 -0.5363 -0.2919
17 7 1 -0.6455 -0.6325
17 7 2 -0.5450 0.4218
17 7 3 -0.4359 -0.6170
17 7 4 -0.1768 0.2136
17 7 5 0.0901 -0.3747
17 7 6 -0.0316 0.4274
17 7 7 0.3507 -0.5745
17 8 0 0.4305 0.0236
17 8 1 0.2581 -0.1642
17 8 2 0.3883 0.8732
17 8 3 0.1285 -0.3699
17 8 4 0.2257 0.3092
17 8 5 -0.3039 -0.5036
17 8 6 0.0663 0.3034
17 8 7 -0.0456 -0.4552
17 8 8 -0.1343 0.1851
17 9 0 -0.1293 -0.2526
17 9 1 -0.0805 -0.4520
17 9 2 -0.2770 0.2553
17 9 3 0.0237 -0.3504
17 9 4 -0.0030 0.5450
17 9 5 -0.0516 -0.0700
17 9 6 0.2906 0.6343
17 9 7 -0.2854 -0.1766
17 9 8 0.1072 -0.4597
17 10 0 0.1421 0.0167
17 10 1 0.2374 0.1336
17 10 2 0.0408 0.1315
17 10 3 0.3404 -0.4353
17 10 4 -0.1405 -0.0806
17 10 5 0.0169 -0.7790
17 10 6 0.2377 0.0554
17 10 7 -0.2212 0.2648
17 10 8 0.4726 0.0775
17 11 0 -0.3575 -0.2989
17 11 1 -0.4678 0.1245
17 11 2 -0.3436 -0.0482
17 11 3 -0.3019 0.3334
17 11 4 -0.1824 0.6345
17 11 5 -0.1377 0.1852
17 11 6 -0.0376 0.1460
17 11 7 -0.5561 0.0656
17 11 8 0.2126 -1.4164
17 12 0 0.5708 0.0220
17 12 1 0.5226 0.4690
17 12 2 0.7231 -0.6235
17 12 3 0.1597 -0.0320
17 12 4 0.5180 -0.4770
17 12 5 0.0449 -0.2968
17 12 6 0.5519 -0.2074
17 12 7 0.0807 0.6958
17 13 0 -0.5807 -0.3073
17 13 1 -0.4211 0.5726
17 13 3 -0.7505 0.8132
17 13 4 0.0635 -0.0358
17 13 6 -0.0208 -0.1070
17 13 7 -0.8748 0.1275
17 14 0 0.0606 0.0183
17 14 1 0.1393 0.5682
17 14 4 0.7778 -0.2888
17 15 0 0.2670 -0.2673
17 15 1 -0.0917 0.5055
17 15 4 0.1319 -0.2889
17 16 0 -0.0427 0.0239
17 17 0 -0.0377 -0.1804
17 18 0 -0.3990 0.0179
18 1 0 -0.3758 -0.0043
18 1 1 -0.5430 0.1858
18 1 2 0.2953 -0.0745
18 1 3 -0.4917 0.2481
18 1 4 0.9805 0.3312
18 1 5 -0.2764 -0.0409
18 1 6 1.0574 0.3451
18 1 7 -0.2124 -0.0662
18 2 0 0.5073 -0.2634
18 2 1 -0.0806 0.0049
18 2 2 0.7286 -0.3469
18 2 3 -1.0360 -0.2793
18 2 4 0.6094 0.1607
18 2 5 -1.0117 -0.5678
18 2 6 0.2682 0.3274
18 2 7 -0.9226 -0.3940
18 3 0 0.0330 0.0138
18 3 1 -0.2144 0.5292
18 3 2 0.8850 -0.0493
18 3 3 -0.5111 0.2203
18 3 4 1.0047 0.2285
18 3 5 -0.3036 -0.1409
18 3 6 0.5966 0.4022
18 3 7 -0.1093 0.2779
18 4 0 -0.3771 -0.3463
18 4 1 -0.4527 0.1451
18 4 2 -0.1646 -0.5221
18 4 3 -0.9394 0.2322
18 4 4 -0.0784 -0.2032
18 4 5 -0.1561 -0.1206
18 4 6 0.0135 -0.3971
18 4 7 -0.0638 -0.2590
18 5 0 0.4286 0.0227
18 5 1 0.5389 0.4529
18 5 2 0.7938 -0.1771
18 5 3 0.4684 0.3542
18 5 4 0.1805 -0.1607
18 5 5 0.3273 0.2294
18 5 6 -0.5614 0.3180
18 5 7 0.0568 0.5579
18 6 0 -0.3662 -0.3179
18 6 1 -0.7817 -0.1885
18 6 2 -0.3813 -0.2554
18 6 3 -0.5671 -0.0002
18 6 4 -0.2695 -0.1583
18 6 5 0.4601 -0.0865
18 6 6 -0.1799 0.0973
18 7 0 0.7375 0.0223
18 7 1 0.0972 0.1770
18 7 2 0.6579 0.4531
18 7 3 0.0357 0.0958
18 7 4 0.0342 -0.0426
18 7 5 -0.1197 -0.2717
18 8 0 0.0969 -0.2553
18 8 1 -0.3970 -0.4197
18 8 2 -0.0232 0.0042
18 8 3 -0.0164 -0.1986
18 8 4 0.1592 0.2741
18 8 5 0.3305 0.1004
18 8 6 0.1489 0.7537
18 9 0 0.3088 0.0202
18 9 1 -0.0594 0.1105
18 9 2 -0.0557 0.2951
18 9 3 0.1409 -0.3384
18 9 4 -0.4804 -0.0644
18 9 5 -0.1112 -0.8345
18 9 6 -0.1959 0.0995
18 10 0 0.0522 -0.2725
18 10 1 -0.4274 -0.1086
18 10 2 -0.1473 0.1110
18 10 3 0.2129 -0.0017
18 10 4 -0.1313 0.7824
18 10 5 0.3756 -0.0378
18 11 0 0.8323 0.0250
18 11 1 0.2243 0.3078
18 11 2 0.5457 -0.1173
18 11 3 0.0962 -0.2998
18 11 4 -0.0483 -0.0570
18 11 5 0.0132 -0.5884
18 12 0 -0.5486 -0.2904
18 12 1 -0.7119 0.2207
18 12 2 -0.2189 -0.4229
18 12 3 -0.5517 0.2802
18 12 4 0.1560 0.1656
18 13 0 0.3272 0.0239
18 13 1 0.3917 0.6850
18 13 2 0.5502 -0.5424
18 13 3 -0.1512 0.5011
18 13 4 0.5267 -0.0342
18 14 0 -0.0626 -0.2721
18 14 3 -0.5869 0.4257
18 14 4 0.3517 -0.4892
18 15 0 0.2209 0.0205
18 15 2 0.4021 -0.6143
18 15 3 -0.2409 0.6949
18 16 0 0.1984 -0.1880
18 16 1 -0.2313 0.3104
18 16 2 0.0751 -0.4457
19 1 0 0.6425 -0.1039
19 1 1 0.2612 0.0210
19 1 2 0.5491 0.1530
19 1 3 -0.6766 -0.1793
19 1 4 0.2783 0.0224
19 1 5 -1.0765 -0.5268
19 1 6 0.1018 0.2814
19 2 0 -0.2767 0.0032
19 2 1 -0.4823 0.1307
19 2 2 0.5382 0.1231
19 2 3 -0.5016 -0.1631
19 2 4 1.0686 0.4176
19 2 5 -0.1495 -0.3612
19 2 6 1.0633 0.5304
19 3 0 0.0402 -0.2946
19 3 1 -0.2162 0.0348
19 3 2 0.1911 -0.1449
19 3 3 -1.0688 -0.0670
19 3 4 0.1048 0.2145
19 3 5 -0.8339 -0.2694
19 3 6 -0.0429 -0.0962
19 4 0 0.1484 0.0241
19 4 1 0.2155 0.4070
19 4 2 0.8306 -0.1681
19 4 3 0.2270 0.0940
19 4 4 0.7118 -0.0380
19 4 5 0.2172 0.0859
19 4 6 0.2316 0.1441
19 5 0 -0.1836 -0.3104
19 5 1 -0.6481 0.0261
19 5 2 -0.2915 -0.3985
19 5 3 -0.7947 0.1434
19 5 4 -0.3579 -0.0964
19 5 5 0.0920 -0.0266
19 5 6 -0.1132 -0.3088
19 6 0 0.7147 0.0236
19 6 1 -0.0126 0.4532
19 6 2 0.8051 0.1083
19 6 3 0.1372 0.3308
19 6 4 0.1332 -0.1591
19 6 5 0.0563 -0.0205
19 6 6 -0.6733 0.0940
19 7 0 0.2992 -0.2742
19 7 1 -0.6085 -0.2367
19 7 2 0.1134 -0.4237
19 7 3 -0.1995 0.0579
19 7 4 0.1342 -0.0934
19 8 0 0.4751 0.0203
19 8 1 -0.3460 0.3456
19 8 2 0.0423 0.1044
19 8 3 -0.0331 0.1169
19 8 4 -0.5898 -0.3799
19 8 5 -0.1772 -0.4491
19 8 6 -0.6441 -0.2042
19 9 0 0.5187 -0.2741
19 9 1 -0.4325 -0.0435
19 9 2 0.0943 -0.0999
19 9 3 0.5395 0.2256
19 9 4 -0.0866 0.4956
19 9 5 0.7880 0.2781
19 10 0 1.0857 0.0225
19 10 1 -0.2872 0.2595
19 10 2 0.3236 -0.1552
19 10 3 0.0877 -0.3304
19 10 4 -0.6551 -0.2136
19 10 5 0.0748 -0.6753
19 11 0 0.0124 -0.2793
19 11 1 -1.1093 0.1149
19 11 2 0.0261 -0.1550
19 11 3 -0.1609 0.1880
19 11 4 0.0389 0.4218
19 12 0 0.9417 0.0288
19 12 1 0.2129 0.4960
19 12 2 0.6859 -0.2288
19 12 3 -0.2046 0.1166
19 12 4 0.0128 0.0698
19 13 0 -0.2125 -0.2557
19 13 1 -0.4816 0.2107
19 13 2 0.1524 -0.6185
19 13 3 -0.3786 0.0431
19 13 4 0.4594 -0.1325
19 14 0 0.3104 0.0217
19 14 1 -0.2497 0.6210
19 14 2 0.3942 -0.2810
19 14 3 -0.5130 0.5281
19 15 0 0.3930 -0.1776
19 15 1 -0.3778 0.2184
19 15 2 0.4196 -0.6389
20 1 0 -0.4279 0.0016
20 1 1 -0.5942 -0.2386
20 1 2 0.0805 0.0400
20 1 3 -0.3837 -0.2764
20 1 4 0.5734 0.2474
20 1 5 -0.0953 -0.2838
20 1 6 0.5934 0.4986
20 2 0 0.2800 -0.2065
20 2 1 0.0402 -0.0121
20 2 2 0.3002 0.2280
20 2 3 -0.6703 -0.1319
20 2 4 0.1121 0.4130
20 2 5 -0.7570 -0.3150
20 2 6 -0.2100 0.3483
20 3 0 -0.0890 0.0192
20 3 1 0.0483 0.1347
20 3 2 0.5885 -0.0483
20 3 3 0.1229 -0.3394
20 3 4 0.8563 0.0954
20 3 5 0.2267 -0.2490
20 3 6 0.7581 0.2380
20 4 0 -0.1128 -0.2783
20 4 1 -0.3261 0.0446
20 4 2 -0.3008 -0.0354
20 4 3 -0.8749 0.0169
20 4 4 -0.4402 0.3158
20 4 5 -0.5621 -0.1544
20 4 6 -0.1631 -0.2779
20 5 0 0.2954 0.0318
20 5 1 0.0247 0.3562
20 5 2 0.6815 0.0980
20 5 3 0.3984 -0.0383
20 5 4 0.5191 0.1172
20 5 5 0.2356 -0.1332
20 5 6 -0.0012 0.2528
20 6 0 0.3347 -0.2598
20 6 1 -0.3502 -0.2333
20 6 2 -0.0160 -0.3736
20 6 3 -0.3767 -0.1782
20 6 4 -0.1111 0.0568
20 6 5 0.1448 -0.0507
20 6 6 0.0611 0.1216
20 7 0 0.1191 0.0262
20 7 1 -0.4119 0.4457
20 7 2 -0.0296 0.2840
20 7 3 0.0124 0.2337
20 7 4 -0.3320 -0.1186
20 8 0 0.7228 -0.2662
20 8 1 -0.0198 -0.1445
20 8 2 0.1628 -0.3178
20 8 3 0.6386 0.0860
20 8 4 -0.0157 0.1797
20 8 5 0.7314 0.2910
20 9 0 0.7145 0.0216
20 9 1 -0.5714 0.3266
20 9 2 -0.1101 -0.1222
20 9 3 0.1561 -0.1172
20 9 4 -0.8884 -0.3055
20 9 5 -0.0217 -0.4683
20 10 0 0.5338 -0.2782
20 10 1 -1.0788 0.1367
20 10 2 0.0991 -0.1271
20 10 3 0.2480 0.3318
20 10 4 -0.1702 0.3577
20 11 0 1.4944 0.0265
20 11 1 -0.0510 0.3640
20 11 2 0.7455 -0.3115
20 11 3 0.0197 -0.0336
20 11 4 -0.3466 -0.2513
20 12 0 -0.2411 -0.2493
20 12 1 -0.9434 0.1890
20 12 2 -0.0028 -0.3432
20 12 3 -0.2193 0.1820
20 13 0 0.5751 0.0203
20 13 1 0.0358 0.4623
20 13 2 0.3961 -0.2014
20 13 3 -0.3540 0.1802
20 14 0 0.1851 -0.1735
20 14 1 -0.3819 0.1513
21 1 0 0.4277 -0.0742
21 1 1 0.2391 0.0287
21 1 2 0.4300 0.1409
21 1 3 -0.1311 0.0289
21 1 4 0.2811 0.1506
21 1 5 -0.0235 -0.0100
21 2 0 -0.0538 0.0094
21 2 1 -0.1112 0.1250
21 2 2 0.3401 -0.1521
21 2 3 -0.1630 -0.1989
21 2 4 0.4195 -0.1152
21 2 5 0.0905 -0.2766
21 2 6 0.2066 0.0297
21 3 0 -0.0924 -0.2523
21 3 1 -0.3174 0.1754
21 3 2 -0.1424 -0.0211
21 3 3 -0.8106 0.2224
21 3 4 -0.2242 0.3497
21 3 5 -0.5660 0.0775
21 3 6 -0.2468 -0.1308
21 4 0 0.2324 0.0312
21 4 1 0.0777 0.3156
21 4 2 0.7519 -0.1799
21 4 3 0.3963 -0.2197
21 4 4 0.8486 0.0001
21 4 5 0.2833 -0.1813
21 4 6 0.4434 0.1667
21 5 0 0.2443 -0.2416
21 5 1 -0.2576 -0.0591
21 5 2 -0.1496 -0.2408
21 5 3 -0.7267 -0.1403
21 5 4 -0.3055 0.3079
21 5 5 -0.4449 -0.2665
21 6 0 -0.2852 0.0312
21 6 1 -0.3423 0.4436
21 6 2 0.0158 0.3518
21 6 3 0.1409 0.0608
21 6 4 0.2330 0.2566
21 6 5 -0.0856 -0.2759
21 7 0 0.7382 -0.2340
21 7 1 0.5999 -0.3062
21 7 2 0.1688 -0.3494
21 7 3 0.4457 -0.3279
21 7 4 0.0423 0.1868
21 8 0 -0.3676 0.0253
21 8 1 -0.7124 0.3542
21 8 2 -0.7014 0.2686
21 8 3 0.0832 -0.0487
21 8 4 -0.6650 0.1020
21 8 5 -0.2508 -0.3875
21 9 0 0.9510 -0.2486
21 9 1 -0.2043 -0.0622
21 9 2 0.2139 -0.1214
21 9 3 0.6009 -0.0098
21 9 4 -0.0973 0.3484
21 10 0 1.1749 0.0255
21 10 1 -0.4433 0.2778
21 10 2 0.3796 -0.1341
21 10 3 0.1210 -0.1032
21 10 4 -0.3850 -0.1572
21 11 0 0.0683 -0.2279
21 11 1 -1.1168 0.1296
21 11 2 -0.0475 -0.1879
21 11 3 -0.1737 0.2360
21 12 0 0.9101 0.0184
21 12 1 0.2121 0.3202
21 12 2 0.5180 -0.2264
22 1 0 -0.4135 0.0043
22 1 1 -0.1669 0.2469
22 1 2 -0.2459 -0.0172
22 1 3 -0.3555 0.2994
22 1 4 -0.2001 -0.1910
22 2 0 -0.0878 -0.2012
22 2 1 -0.1170 0.1719
22 2 2 0.0819 -0.4220
22 2 3 -0.3190 0.3039
22 2 4 0.1494 -0.0742
22 2 5 0.0460 0.4256
22 3 0 0.3850 0.0223
22 3 1 0.0866 0.5111
22 3 2 0.7551 -0.4511
22 3 3 0.0772 0.1557
22 3 4 0.6554 -0.3707
22 3 5 0.1141 0.0844
22 4 0 0.0825 -0.2454
22 4 1 -0.6272 0.2672
22 4 2 -0.1137 -0.4789
22 4 3 -1.0605 0.3142
22 4 4 -0.2137 0.0993
22 4 5 -0.5597 0.0981
22 5 0 0.0798 0.0303
22 5 1 -0.1802 0.5967
22 5 2 0.5835 -0.1073
22 5 3 0.1765 0.1772
22 5 4 0.7716 0.0579
22 5 5 0.0595 -0.1079
22 6 0 0.4961 -0.2159
22 6 1 0.4633 -0.1186
22 6 2 0.0853 -0.5426
22 6 3 -0.1885 -0.1970
22 6 4 -0.0285 0.1070
22 6 5 -0.2148 -0.2216
22 7 0 -1.0417 0.0220
22 7 1 -0.5828 0.4902
22 7 2 -0.7679 0.2973
22 7 3 0.0311 0.1086
22 7 4 -0.1639 0.2505
22 8 0 1.0144 -0.2117
22 8 1 0.8286 -0.1719
22 8 2 0.2865 -0.2465
22 8 3 0.6923 -0.2585
22 8 4 0.0196 0.3064
22 9 0 -0.0002 0.0228
22 9 1 -0.7708 0.2715
22 9 2 -0.3497 0.1224
22 9 3 0.0265 -0.1331
22 9 4 -0.3030 0.1542
22 10 0 0.6335 -0.1786
22 10 1 -0.5337 -0.0158
22 10 2 0.1876 -0.1056
22 10 3 -0.0039 0.0026
22 11 0 0.8101 0.0199
22 11 1 -0.1065 0.2092
23 1 0 -0.0504 -0.0893
23 1 1 0.5863 -0.1262
23 1 2 0.1405 -0.6386
23 1 3 0.4377 -0.0920
23 1 4 0.3562 -0.4653
23 2 0 -0.0879 0.0115
23 2 1 0.0504 0.6105
23 2 2 0.0480 -0.1416
23 2 3 -0.2073 0.5709
23 2 4 0.0421 -0.2983
23 3 0 0.0162 -0.2324
23 3 1 -0.4915 0.2610
23 3 2 0.0419 -0.7422
23 3 3 -0.7077 0.3639
23 3 4 0.0909 -0.2824
23 4 0 0.5359 0.0298
23 4 1 -0.1239 0.7339
23 4 2 0.9159 -0.3938
23 4 3 0.0131 0.4581
23 4 4 0.8251 -0.2042
23 5 0 0.2522 -0.2061
23 5 1 -0.3021 0.1462
23 5 2 0.0552 -0.7921
23 5 3 -0.8181 0.1330
23 5 4 -0.0285 -0.1378
23 6 0 -0.5381 0.0192
23 6 1 -0.2842 0.6837
23 6 2 -0.0451 -0.0009
23 6 3 0.0361 0.3940
23 6 4 0.3557 0.0628
23 7 0 0.6216 -0.1930
23 7 1 0.8488 -0.0546
23 7 2 0.1538 -0.5435
23 8 0 -0.7655 0.0134
23 8 1 -0.6373 0.4114
23 8 2 -0.6477 0.0573
24 1 0 -0.5123 -0.0005
24 1 1 -0.0281 0.4017
24 1 2 -0.6158 0.3683
24 2 0 0.0502 -0.1682
24 2 1 0.2047 -0.0562
24 2 2 0.1291 -0.6308
24 3 0 0.1930 0.0221
24 3 1 -0.1778 0.6036
24 3 2 0.3534 -0.1533
24 4 0 0.2484 -0.1730
24 4 1 -0.4401 0.1402
24 4 2 0.1533 -0.7167
24 5 0 0.0889 0.0239
24 5 1 -0.1792 0.6550
0 0 0 0.0 0.0
;
_shelx_fab_checksum              13097
_olex2_submission_special_instructions 'No special instructions were received'
_oxdiff_exptl_absorpt_empirical_details
;
Empirical correction (ABSPACK) includes:
- Absorption correction using spherical harmonics
- Frame scaling
;
_oxdiff_exptl_absorpt_empirical_full_max 1.870
_oxdiff_exptl_absorpt_empirical_full_min 0.780
loop_
_space_group_symop_operation_xyz
'x, y, z'
'-x, -y, z'
'y, -x, -z'
'-y, x, -z'
loop_
_atom_site_label
_atom_site_type_symbol
_atom_site_fract_x
_atom_site_fract_y
_atom_site_fract_z
_atom_site_U_iso_or_equiv
_atom_site_adp_type
_atom_site_occupancy
_atom_site_site_symmetry_order
_atom_site_calc_flag
_atom_site_refinement_flags_posn
_atom_site_refinement_flags_adp
_atom_site_refinement_flags_occupancy
_atom_site_disorder_assembly
_atom_site_disorder_group
Ni01 Ni 0.5000 0.5000 0.5000 0.0524(7) Uani 1 4 d S TU P . .
O003 O 0.5866(3) 0.8625(2) 0.7186(6) 0.080(2) Uani 1 1 d . U . . .
O004 O 0.8101(2) 0.7399(2) 0.6109(6) 0.0734(19) Uani 1 1 d . U . . .
N008 N 0.5474(2) 0.5778(2) 0.5139(6) 0.0528(17) Uani 1 1 d . U . . .
C00B C 0.4566(3) 0.6537(3) 0.5477(8) 0.060(2) Uani 1 1 d . U . . .
C00F C 0.7612(3) 0.8347(3) 0.6756(8) 0.062(2) Uani 1 1 d . U . . .
C00H C 0.6934(3) 0.7395(3) 0.6106(8) 0.061(2) Uani 1 1 d . U . . .
C00J C 0.6311(3) 0.6503(3) 0.5459(8) 0.063(2) Uani 1 1 d . U . . .
C00K C 0.6370(3) 0.7696(3) 0.6444(7) 0.057(2) Uani 1 1 d . U . . .
C00M C 0.8852(4) 1.0221(4) 0.7840(10) 0.100(3) Uani 1 1 d . U . . .
H00M H 0.9251 1.0428 0.7933 0.120 Uiso 1 1 calc R U . . .
C00O C 0.5762(3) 0.7376(3) 0.6325(8) 0.062(2) Uani 1 1 d . U . . .
H00O H 0.5383 0.7565 0.6576 0.075 Uiso 1 1 calc R U . . .
C00R C 0.8192(4) 0.8659(3) 0.6879(9) 0.073(3) Uani 1 1 d . U . . .
H00R H 0.8573 0.8454 0.6670 0.087 Uiso 1 1 calc R U . . .
C00S C 0.6378(3) 0.8354(3) 0.6932(8) 0.063(2) Uani 1 1 d . U . . .
C00T C 0.5729(3) 0.6790(3) 0.5842(7) 0.057(2) Uani 1 1 d . U . . .
C00U C 0.8247(4) 1.0573(4) 0.8123(10) 0.095(3) Uani 1 1 d . U . . .
H00U H 0.8260 1.0998 0.8369 0.114 Uiso 1 1 calc R U . . .
C00Z C 0.8847(4) 0.9619(4) 0.7457(10) 0.093(3) Uani 1 1 d . U . . .
H00Z H 0.9234 0.9413 0.7279 0.112 Uiso 1 1 calc R U . . .
C1 C 0.3838(12) 0.8046(11) 0.9246(19) 0.104(7) Uani 0.439(16) 1 d D U P A 1
H1A H 0.3519 0.8093 0.9765 0.156 Uiso 0.439(16) 1 calc R U P A 1
H1B H 0.4010 0.8467 0.9075 0.156 Uiso 0.439(16) 1 calc R U P A 1
H1C H 0.4186 0.7770 0.9473 0.156 Uiso 0.439(16) 1 calc R U P A 1
C1A C 0.3544(15) 0.7084(12) 0.894(3) 0.133(9) Uani 0.561(16) 1 d D U P A 2
H1AA H 0.3150 0.7310 0.8763 0.200 Uiso 0.75 1 calc R U P A 2
H1AB H 0.3523 0.6964 0.9633 0.200 Uiso 0.561(16) 1 calc R U P A 2
H1AC H 0.3588 0.6698 0.8546 0.200 Uiso 0.561(16) 1 calc R U P A 2
C01K C 0.7655(4) 0.9629(3) 0.7567(9) 0.078(3) Uani 1 1 d . U . . .
C01N C 0.7667(4) 1.0246(3) 0.8008(10) 0.093(3) Uani 1 1 d . U . . .
H01N H 0.7280 1.0437 0.8224 0.111 Uiso 1 1 calc R U . . .
C01P C 0.7053(4) 0.9308(3) 0.7452(9) 0.079(3) Uani 1 1 d . U . . .
H01P H 0.6669 0.9511 0.7657 0.094 Uiso 1 1 calc R U . . .
C01Q C 0.4249(4) 0.9006(3) 0.5336(9) 0.101(3) Uani 1 1 d D U . . .
C01S C 0.3777(8) 0.9006(6) 0.4474(13) 0.127(4) Uani 0.78(2) 1 d D U P B 2
H01A H 0.3343 0.8930 0.4716 0.191 Uiso 0.78(2) 1 calc R U P B 2
H01B H 0.3895 0.8668 0.4015 0.191 Uiso 0.78(2) 1 calc R U P B 2
H01C H 0.3794 0.9422 0.4145 0.191 Uiso 0.78(2) 1 calc R U P B 2
C01T C 0.3437(9) 0.9131(12) 0.546(3) 0.127(4) Uani 0.372(18) 1 d D U P B 1
H01D H 0.3361 0.9562 0.5716 0.191 Uiso 0.372(18) 1 calc R U P B 1
H01E H 0.3258 0.8814 0.5906 0.191 Uiso 0.372(18) 1 calc R U P B 1
H01F H 0.3230 0.9090 0.4821 0.191 Uiso 0.372(18) 1 calc R U P B 1
C01V C 0.4387(10) 0.9489(12) 0.6302(19) 0.102(5) Uani 0.5 1 d D U P B 1
H01G H 0.4255 0.9927 0.6141 0.154 Uiso 0.5 1 calc R U P B 1
H01H H 0.4844 0.9485 0.6459 0.154 Uiso 0.5 1 calc R U P B 1
H01I H 0.4142 0.9337 0.6863 0.154 Uiso 0.5 1 calc R U P B 1
C01X C 0.415(2) 0.943(2) 0.435(2) 0.106(4) Uani 0.160(11) 1 d D U P B 1
H01J H 0.3852 0.9212 0.3918 0.160 Uiso 0.160(11) 1 calc R U P B 1
H01K H 0.4567 0.9478 0.4022 0.160 Uiso 0.160(11) 1 calc R U P B 1
H01L H 0.3987 0.9852 0.4525 0.160 Uiso 0.160(11) 1 calc R U P B 1
C01Y C 0.4938(5) 0.9027(5) 0.4825(12) 0.106(4) Uani 0.840(11) 1 d D U P B 2
H01M H 0.4963 0.8692 0.4328 0.160 Uiso 0.840(11) 1 calc R U P B 2
H01O H 0.5271 0.8955 0.5315 0.160 Uiso 0.840(11) 1 calc R U P B 2
H01Q H 0.5002 0.9446 0.4520 0.160 Uiso 0.840(11) 1 calc R U P B 2
C2 C 0.2724(8) 0.7763(14) 0.828(2) 0.144(9) Uani 0.439(16) 1 d D U P A 1
H2A H 0.2557 0.7606 0.8906 0.217 Uiso 0.439(16) 1 calc R U P A 1
H2B H 0.2558 0.7498 0.7753 0.217 Uiso 0.439(16) 1 calc R U P A 1
H2C H 0.2590 0.8208 0.8187 0.217 Uiso 0.439(16) 1 calc R U P A 1
C2A C 0.4122(9) 0.7523(9) 0.8776(15) 0.117(5) Uani 0.561(16) 1 d D U P A 2
C3 C 0.3362(15) 0.7016(11) 0.877(3) 0.118(8) Uani 0.439(16) 1 d D U P A 1
H3A H 0.3766 0.6783 0.8848 0.178 Uiso 0.439(16) 1 calc R U P A 1
H3B H 0.3075 0.6774 0.8347 0.178 Uiso 0.439(16) 1 calc R U P A 1
H3C H 0.3160 0.7070 0.9414 0.178 Uiso 0.439(16) 1 calc R U P A 1
C3A C 0.3673(15) 0.8345(11) 0.896(2) 0.172(11) Uani 0.561(16) 1 d D U P A 2
H3AA H 0.3211 0.8278 0.8898 0.257 Uiso 0.561(16) 1 calc R U P A 2
H3AB H 0.3817 0.8652 0.8472 0.257 Uiso 0.561(16) 1 calc R U P A 2
H3AC H 0.3767 0.8512 0.9614 0.257 Uiso 0.561(16) 1 calc R U P A 2
C4 C 0.3503(7) 0.7726(8) 0.8293(15) 0.114(4) Uani 0.391(15) 1 d D U P A 1
C4A C 0.4682(8) 0.7310(8) 0.9198(16) 0.114(4) Uani 0.609(15) 1 d . U P A 2
H4AA H 0.4619 0.7263 0.9901 0.170 Uiso 0.5 1 calc R U P A 2
H4AB H 0.5024 0.7620 0.9076 0.170 Uiso 0.5 1 calc R U P A 2
H4AC H 0.4800 0.6896 0.8917 0.170 Uiso 0.5 1 calc R U P A 2
C005 C 0.5205(3) 0.6348(3) 0.5603(8) 0.058(2) Uani 1 1 d . U . . .
C5 C 0.3812(10) 0.7677(8) 0.7307(16) 0.075(5) Uani 0.46(3) 1 d D U P A 1
C5A C 0.4085(10) 0.7647(8) 0.7616(16) 0.087(4) Uani 0.54(3) 1 d D U P A 2
C6 C 0.393(2) 0.8285(10) 0.689(2) 0.096(7) Uani 0.46(3) 1 d D U P A 1
H6 H 0.3791 0.8663 0.7202 0.115 Uiso 0.46(3) 1 calc R U P A 1
C6A C 0.406(2) 0.8238(11) 0.7029(19) 0.117(12) Uani 0.54(3) 1 d D U P A 2
H6A H 0.4015 0.8625 0.7385 0.141 Uiso 0.54(3) 1 calc R U P A 2
C7 C 0.4263(18) 0.8320(7) 0.6012(18) 0.093(7) Uani 0.46(3) 1 d D U P A 1
C7A C 0.4101(13) 0.8302(6) 0.6025(15) 0.076(4) Uani 0.54(3) 1 d D U P A 2
C8 C 0.4345(3) 0.7756(3) 0.5488(9) 0.067(2) Uani 1 1 d D U . . .
H8A H 0.4414 0.7776 0.4806 0.080 Uiso 0.46(3) 1 calc R U P B 1
H8B H 0.4510 0.7801 0.4848 0.080 Uiso 0.54(3) 1 calc R U P B 2
C009 C 0.6924(3) 0.6821(3) 0.5605(8) 0.062(2) Uani 1 1 d . U . . .
H009 H 0.7307 0.6638 0.5361 0.074 Uiso 1 1 calc R U . . .
C9 C 0.4329(3) 0.7148(3) 0.5960(8) 0.0601(19) Uani 1 1 d D U . . .
C10 C 0.4044(13) 0.7131(10) 0.6856(16) 0.069(4) Uani 0.46(3) 1 d D U P A 1
H10 H 0.4004 0.6731 0.7180 0.082 Uiso 0.46(3) 1 calc R U P A 1
C10A C 0.4243(12) 0.7124(8) 0.6994(13) 0.069(4) Uani 0.54(3) 1 d D U P A 2
H10A H 0.4297 0.6719 0.7295 0.082 Uiso 0.54(3) 1 calc R U P A 2
C011 C 0.6135(3) 0.5891(3) 0.5023(8) 0.0556(19) Uani 1 1 d . U . . .
C013 C 0.7581(3) 0.7702(3) 0.6291(8) 0.067(2) Uani 1 1 d . U . . .
C014 C 0.8235(4) 0.9302(4) 0.7327(9) 0.081(3) Uani 1 1 d . U . . .
C16 C 0.4141(10) 0.9540(12) 0.616(2) 0.102(5) Uani 0.5 1 d D U P B 2
H16A H 0.4323 0.9947 0.5938 0.154 Uiso 0.5 1 calc R U P B 2
H16B H 0.4351 0.9407 0.6761 0.154 Uiso 0.5 1 calc R U P B 2
H16C H 0.3681 0.9594 0.6273 0.154 Uiso 0.5 1 calc R U P B 2
C017 C 0.7028(4) 0.8664(3) 0.7019(9) 0.067(2) Uani 1 1 d . U . . .
Ni02 Ni 0.0000 1.0000 0.0000 0.0500(6) Uani 1 4 d S TU P . .
O00A O 0.3611(2) 0.9130(3) 0.2177(7) 0.092(2) Uani 1 1 d . U . . .
O006 O 0.2418(2) 0.6917(2) 0.1096(6) 0.080(2) Uani 1 1 d . U . . .
N007 N 0.0802(2) 0.9533(2) 0.0167(6) 0.0507(17) Uani 1 1 d . U . . .
C0 C 0.4035(5) 1.0130(6) -0.0012(13) 0.071(4) Uani 0.5 1 d D U P C 2
H0A H 0.4430 1.0130 -0.0397 0.106 Uiso 0.5 1 calc R U P C 2
H0B H 0.3668 1.0063 -0.0444 0.106 Uiso 0.5 1 calc R U P C 2
H0C H 0.4053 0.9786 0.0471 0.106 Uiso 0.5 1 calc R U P C 2
C00C C 0.4279(3) 0.7970(4) 0.2407(8) 0.068(2) Uani 1 1 d . U . . .
H00C H 0.4493 0.8358 0.2561 0.082 Uiso 1 1 calc R U . . .
C00D C 0.4608(3) 0.7360(4) 0.2572(7) 0.064(2) Uani 1 1 d . U . . .
C00E C 0.1130(2) 1.0877(3) -0.0017(7) 0.0470(16) Uani 1 1 d . U . . .
C00G C 0.2143(3) 1.0669(3) 0.0953(8) 0.061(2) Uani 1 1 d D U . . .
C00I C 0.1507(3) 0.8685(3) 0.0454(6) 0.0471(17) Uani 1 1 d . U . . .
C00L C 0.2698(3) 0.7403(3) 0.1298(8) 0.063(2) Uani 1 1 d . U . . .
C00N C 0.1791(3) 0.9244(3) 0.0826(7) 0.0543(19) Uani 1 1 d . U . . .
C00P C 0.2744(3) 1.0652(3) 0.0483(9) 0.071(2) Uani 1 1 d D U . . .
H00P H 0.2770 1.0521 -0.0178 0.085 Uiso 1 1 calc R U . . .
C00Q C 0.2397(3) 0.9232(3) 0.1336(7) 0.059(2) Uani 1 1 d . U . . .
H00Q H 0.2585 0.9611 0.1586 0.070 Uiso 1 1 calc R U . . .
C00W C 0.2399(3) 0.8058(3) 0.1106(8) 0.060(2) Uani 1 1 d . U . . .
C00X C 0.1518(2) 1.0450(3) 0.0460(6) 0.0481(17) Uani 1 1 d . U . . .
C00Y C 0.4291(3) 0.6781(4) 0.2274(7) 0.062(2) Uani 1 1 d . U . . .
C01A C 0.3951(3) 1.0896(4) 0.0607(9) 0.104(3) Uani 1 1 d D U . . .
C01B C 0.2089(4) 1.0873(5) 0.1926(9) 0.087(3) Uani 1 1 d D U . . .
H01R H 0.1679 1.0925 0.2210 0.105 Uiso 1 1 calc R U . . .
C01C C 0.3678(3) 0.6806(4) 0.1894(8) 0.064(2) Uani 1 1 d . U . . .
H01S H 0.3459 0.6422 0.1735 0.077 Uiso 1 1 calc R U . . .
C01D C 0.2690(3) 0.8647(3) 0.1440(9) 0.069(3) Uani 1 1 d . U . . .
C01E C 0.4629(3) 0.6181(4) 0.2432(6) 0.0605(19) Uani 1 1 d . U . . .
H01T H 0.4426 0.5790 0.2264 0.073 Uiso 1 1 calc R U . . .
C01G C 0.3372(3) 0.7417(4) 0.1741(9) 0.070(2) Uani 1 1 d . U . . .
C01H C 0.1363(3) 0.9785(3) 0.0527(6) 0.0453(15) Uani 1 1 d . U . . .
C01I C 0.1793(3) 0.8079(3) 0.0599(7) 0.057(2) Uani 1 1 d . U . . .
H01U H 0.1594 0.7699 0.0371 0.068 Uiso 1 1 calc R U . . .
C01J C 0.3238(4) 1.1036(6) 0.1962(10) 0.109(3) Uani 1 1 d D U . . .
H01V H 0.3602 1.1207 0.2285 0.131 Uiso 1 1 calc R U . . .
C01M C 0.5542(4) 0.6722(4) 0.3086(8) 0.074(2) Uani 1 1 d . U . . .
H01W H 0.5953 0.6702 0.3378 0.089 Uiso 1 1 calc R U . . .
C01O C 0.5248(3) 0.6169(4) 0.2827(7) 0.071(2) Uani 1 1 d . U . . .
H01X H 0.5462 0.5773 0.2913 0.085 Uiso 1 1 calc R U . . .
C01U C 0.1899(10) 1.1428(13) 0.387(3) 0.084(7) Uani 0.356(19) 1 d D U P D 1
H01Y H 0.1606 1.1070 0.3744 0.126 Uiso 0.356(19) 1 calc R U P D 1
H H 0.1771 1.1796 0.3470 0.126 Uiso 0.356(19) 1 calc R U P D 1
HA H 0.1883 1.1544 0.4557 0.126 Uiso 0.356(19) 1 calc R U P D 1
C01W C 0.4438(7) 1.0604(10) 0.1411(17) 0.104(6) Uani 0.523(13) 1 d D U P C 1
H01Z H 0.4456 1.0890 0.1975 0.157 Uiso 0.523(13) 1 calc R U P C 1
HB H 0.4866 1.0563 0.1126 0.157 Uiso 0.523(13) 1 calc R U P C 1
HC H 0.4286 1.0182 0.1617 0.157 Uiso 0.523(13) 1 calc R U P C 1
C010 C 0.2652(4) 1.1003(7) 0.2488(11) 0.127(4) Uani 1 1 d D U . . .
C11 C 0.4605(6) 1.0886(9) 0.1034(18) 0.080(5) Uani 0.477(13) 1 d D U P C 2
H11A H 0.4655 1.0504 0.1441 0.120 Uiso 0.477(13) 1 calc R U P C 2
H11B H 0.4670 1.1269 0.1432 0.120 Uiso 0.477(13) 1 calc R U P C 2
H11C H 0.4923 1.0877 0.0509 0.120 Uiso 0.477(13) 1 calc R U P C 2
C12 C 0.4014(6) 1.1298(7) -0.0408(13) 0.077(3) Uani 0.477(13) 1 d D U P C 2
H12A H 0.3966 1.1756 -0.0273 0.116 Uiso 0.477(13) 1 calc R U P C 2
H12B H 0.3679 1.1161 -0.0860 0.116 Uiso 0.477(13) 1 calc R U P C 2
H12C H 0.4435 1.1219 -0.0698 0.116 Uiso 0.477(13) 1 calc R U P C 2
C012 C 0.5262(3) 0.7315(4) 0.2937(7) 0.069(2) Uani 1 1 d . U . . .
H012 H 0.5496 0.7693 0.3074 0.083 Uiso 1 1 calc R U . . .
C13 C 0.3218(9) 1.1302(14) 0.4147(19) 0.146(9) Uani 0.644(19) 1 d D U P D 2
H13A H 0.3401 1.1724 0.4008 0.219 Uiso 0.644(19) 1 calc R U P D 2
H13B H 0.3521 1.0969 0.3949 0.219 Uiso 0.644(19) 1 calc R U P D 2
H13C H 0.3133 1.1265 0.4846 0.219 Uiso 0.644(19) 1 calc R U P D 2
C14 C 0.3189(19) 1.089(2) 0.407(4) 0.168(13) Uani 0.356(19) 1 d D U P D 1
H14A H 0.3251 1.1056 0.4729 0.252 Uiso 0.8 1 calc R U P D 1
H14B H 0.3572 1.0970 0.3680 0.252 Uiso 0.356(19) 1 calc R U P D 1
H14C H 0.3112 1.0425 0.4104 0.252 Uiso 0.356(19) 1 calc R U P D 1
C14A C 0.2354(12) 1.0569(13) 0.412(2) 0.197(10) Uani 0.644(19) 1 d D U P D 2
H14D H 0.2696 1.0249 0.4109 0.295 Uiso 0.75 1 calc R U P D 2
H14E H 0.1979 1.0402 0.3777 0.295 Uiso 0.5 1 calc R U P D 2
H14F H 0.2239 1.0663 0.4798 0.295 Uiso 0.5 1 calc R U P D 2
C15 C 0.2124(11) 1.1794(13) 0.371(3) 0.193(11) Uani 0.644(19) 1 d D U P D 2
H15A H 0.1684 1.1639 0.3626 0.289 Uiso 0.644(19) 1 calc R U P D 2
H15B H 0.2215 1.2118 0.3209 0.289 Uiso 0.644(19) 1 calc R U P D 2
H15C H 0.2173 1.1983 0.4354 0.289 Uiso 0.644(19) 1 calc R U P D 2
C016 C 0.3349(3) 0.8638(4) 0.1902(9) 0.076(3) Uani 1 1 d . U . . .
C018 C 0.3310(4) 1.0830(4) 0.0990(9) 0.078(2) Uani 1 1 d D U . . .
C019 C 0.3687(3) 0.7994(4) 0.2045(9) 0.070(2) Uani 1 1 d . U . . .
C021 C 0.4024(5) 1.0684(8) -0.0408(12) 0.093(4) Uani 0.523(13) 1 d D U P C 1
H02A H 0.4468 1.0746 -0.0615 0.139 Uiso 0.523(13) 1 calc R U P C 1
H02B H 0.3739 1.0934 -0.0827 0.139 Uiso 0.523(13) 1 calc R U P C 1
H02C H 0.3913 1.0229 -0.0457 0.139 Uiso 0.523(13) 1 calc R U P C 1
C022 C 0.2600(5) 1.1222(9) 0.3590(12) 0.151(5) Uani 1 1 d D U . . .
C024 C 0.4146(5) 1.1690(6) 0.0774(14) 0.077(3) Uani 0.5 1 d D U P C 1
H02D H 0.4106 1.1799 0.1465 0.116 Uiso 0.5 1 calc R U P C 1
H02E H 0.3856 1.1959 0.0391 0.116 Uiso 0.5 1 calc R U P C 1
H02F H 0.4588 1.1763 0.0562 0.116 Uiso 0.5 1 calc R U P C 1
C025 C 0.285(2) 1.1965(14) 0.343(4) 0.198(13) Uani 0.356(19) 1 d D U P D 1
H02G H 0.2633 1.2152 0.2868 0.297 Uiso 0.3 1 calc R U P D 1
H02H H 0.3313 1.1965 0.3321 0.297 Uiso 0.3 1 calc R U P D 1
H02I H 0.2752 1.2217 0.4015 0.297 Uiso 0.3 1 calc R U P D 1
loop_
_atom_site_aniso_label
_atom_site_aniso_U_11
_atom_site_aniso_U_22
_atom_site_aniso_U_33
_atom_site_aniso_U_23
_atom_site_aniso_U_13
_atom_site_aniso_U_12
Ni01 0.0200(5) 0.0200(5) 0.117(2) 0.000 0.000 0.000
O003 0.059(3) 0.033(2) 0.148(6) -0.014(3) -0.001(3) -0.008(2)
O004 0.034(2) 0.044(2) 0.142(6) 0.008(3) -0.007(3) -0.0102(19)
N008 0.029(2) 0.025(2) 0.103(5) 0.006(3) -0.004(3) 0.0053(17)
C00B 0.033(3) 0.035(3) 0.112(6) -0.001(3) 0.009(3) -0.005(2)
C00F 0.044(3) 0.032(3) 0.108(6) 0.014(3) -0.015(3) -0.007(2)
C00H 0.042(3) 0.027(3) 0.113(6) 0.008(3) -0.004(3) -0.016(2)
C00J 0.038(3) 0.031(3) 0.120(7) 0.015(3) -0.009(3) -0.003(2)
C00K 0.046(3) 0.030(3) 0.095(6) 0.009(3) -0.010(3) -0.009(2)
C00M 0.071(5) 0.049(4) 0.179(10) 0.017(5) -0.036(5) -0.039(3)
C00O 0.034(3) 0.027(3) 0.126(7) 0.011(3) -0.009(3) -0.007(2)
C00R 0.054(4) 0.032(3) 0.133(8) 0.016(4) -0.026(4) -0.013(3)
C00S 0.050(3) 0.029(3) 0.110(7) 0.003(3) -0.002(4) -0.011(2)
C00T 0.032(3) 0.027(3) 0.111(6) 0.010(3) -0.001(3) -0.002(2)
C00U 0.098(5) 0.033(3) 0.154(10) 0.023(4) -0.031(6) -0.027(3)
C00Z 0.051(4) 0.043(4) 0.185(10) 0.013(5) -0.028(5) -0.021(3)
C1 0.099(13) 0.070(12) 0.143(13) -0.021(10) 0.028(10) -0.005(9)
C1A 0.107(13) 0.146(15) 0.148(18) -0.048(13) 0.041(11) -0.047(11)
C01K 0.061(4) 0.029(3) 0.145(9) 0.015(4) -0.022(4) -0.012(3)
C01N 0.080(5) 0.036(3) 0.161(10) 0.010(5) -0.015(5) -0.017(3)
C01P 0.058(4) 0.032(3) 0.146(9) 0.004(4) -0.014(4) -0.007(3)
C01Q 0.077(4) 0.020(3) 0.204(8) -0.007(4) 0.015(5) -0.005(3)
C01S 0.115(7) 0.058(6) 0.208(11) 0.016(7) 0.016(6) -0.002(5)
C01T 0.115(7) 0.058(6) 0.208(11) 0.016(7) 0.016(6) -0.002(5)
C01V 0.069(12) 0.036(5) 0.203(10) -0.012(6) 0.051(8) -0.004(7)
C01X 0.081(6) 0.047(5) 0.191(9) 0.000(5) 0.043(6) -0.009(4)
C01Y 0.081(6) 0.047(5) 0.191(9) 0.000(5) 0.043(6) -0.009(4)
C2 0.074(9) 0.18(2) 0.18(2) -0.060(15) 0.041(9) 0.001(9)
C2A 0.108(9) 0.101(10) 0.142(10) -0.039(7) 0.036(7) -0.025(7)
C3 0.091(16) 0.114(11) 0.150(19) -0.038(10) 0.056(13) -0.033(10)
C3A 0.21(2) 0.132(14) 0.18(2) -0.052(13) 0.066(18) 0.003(13)
C4 0.100(6) 0.097(7) 0.144(8) -0.041(6) 0.033(5) -0.022(5)
C4A 0.100(6) 0.097(7) 0.144(8) -0.041(6) 0.033(5) -0.022(5)
C005 0.032(3) 0.023(2) 0.120(6) 0.003(3) 0.008(3) -0.002(2)
C5 0.033(8) 0.054(6) 0.138(9) -0.037(6) 0.020(7) -0.008(5)
C5A 0.042(9) 0.072(7) 0.145(8) -0.035(6) 0.026(6) -0.014(6)
C6 0.061(13) 0.045(8) 0.182(12) -0.030(7) 0.039(11) 0.008(7)
C6A 0.12(3) 0.059(8) 0.174(10) -0.031(7) 0.032(10) 0.016(9)
C7 0.063(18) 0.041(6) 0.176(11) -0.019(6) 0.026(9) 0.001(6)
C7A 0.032(9) 0.025(5) 0.171(9) -0.020(5) 0.005(6) 0.002(4)
C8 0.029(3) 0.029(3) 0.143(6) -0.002(3) 0.007(4) 0.005(2)
C009 0.034(3) 0.025(3) 0.127(7) 0.005(3) 0.003(4) -0.006(2)
C9 0.032(3) 0.034(3) 0.114(5) -0.006(3) 0.010(3) -0.002(2)
C10 0.034(11) 0.048(4) 0.123(6) -0.018(4) 0.018(6) -0.020(5)
C10A 0.034(11) 0.048(4) 0.123(6) -0.018(4) 0.018(6) -0.020(5)
C011 0.032(3) 0.035(3) 0.100(6) 0.011(4) 0.000(3) 0.002(2)
C013 0.043(3) 0.032(3) 0.125(7) 0.008(3) 0.003(4) -0.014(2)
C014 0.060(4) 0.042(4) 0.142(9) 0.010(4) -0.016(4) -0.021(3)
C16 0.069(12) 0.036(5) 0.203(10) -0.012(6) 0.051(8) -0.004(7)
C017 0.050(3) 0.032(3) 0.119(7) 0.015(3) -0.014(4) -0.006(2)
Ni02 0.0278(6) 0.0278(6) 0.0943(19) 0.000 0.000 0.000
O00A 0.040(3) 0.045(3) 0.191(8) 0.013(4) -0.022(4) -0.006(2)
O006 0.038(2) 0.041(2) 0.159(7) 0.009(3) 0.000(3) 0.005(2)
N007 0.028(2) 0.027(2) 0.097(5) -0.006(3) -0.003(3) 0.0056(18)
C0 0.014(4) 0.080(7) 0.118(10) 0.024(6) -0.003(5) -0.001(4)
C00C 0.031(3) 0.060(4) 0.114(7) 0.018(4) 0.007(3) 0.014(3)
C00D 0.037(3) 0.073(4) 0.083(6) 0.018(4) 0.007(3) 0.018(3)
C00E 0.027(2) 0.026(2) 0.088(5) -0.007(3) 0.003(3) -0.0075(19)
C00G 0.027(3) 0.031(3) 0.126(6) -0.012(3) -0.013(3) 0.005(2)
C00I 0.027(2) 0.026(2) 0.089(5) -0.005(3) -0.003(3) 0.0054(19)
C00L 0.037(3) 0.043(3) 0.110(7) 0.016(3) 0.014(3) 0.002(2)
C00N 0.029(3) 0.034(3) 0.100(6) 0.002(3) 0.000(3) 0.004(2)
C00P 0.032(3) 0.041(3) 0.140(7) 0.015(4) -0.008(3) 0.006(2)
C00Q 0.030(3) 0.047(3) 0.099(6) -0.007(3) -0.008(3) 0.000(2)
C00W 0.034(3) 0.035(3) 0.112(6) 0.004(3) 0.013(3) 0.000(2)
C00X 0.020(2) 0.036(3) 0.089(5) -0.008(3) 0.003(3) -0.0006(19)
C00Y 0.038(3) 0.067(4) 0.082(5) 0.022(3) 0.019(3) 0.015(3)
C01A 0.028(3) 0.098(5) 0.184(7) 0.045(5) -0.006(4) 0.000(3)
C01B 0.034(3) 0.096(6) 0.132(6) -0.032(5) -0.018(4) 0.014(3)
C01C 0.047(3) 0.051(4) 0.094(6) 0.006(4) 0.009(4) 0.014(3)
C01D 0.024(3) 0.041(3) 0.142(8) 0.005(4) 0.000(3) 0.002(2)
C01E 0.050(3) 0.070(4) 0.061(5) 0.012(3) 0.015(3) 0.016(3)
C01G 0.035(3) 0.057(4) 0.119(7) 0.010(4) 0.009(4) 0.014(2)
C01H 0.031(3) 0.035(3) 0.069(4) -0.001(3) 0.002(3) 0.005(2)
C01I 0.035(3) 0.031(3) 0.104(6) 0.004(3) 0.013(3) 0.004(2)
C01J 0.043(4) 0.114(8) 0.170(7) -0.029(6) -0.036(4) 0.006(4)
C01M 0.043(4) 0.080(4) 0.099(7) 0.028(4) -0.008(4) 0.011(3)
C01O 0.044(3) 0.084(5) 0.084(6) 0.025(4) 0.014(3) 0.018(3)
C01U 0.087(10) 0.069(14) 0.096(16) -0.015(11) -0.022(9) 0.017(9)
C01W 0.024(6) 0.101(12) 0.188(14) 0.021(10) 0.002(7) 0.005(6)
C010 0.056(4) 0.167(10) 0.158(7) -0.066(7) -0.034(5) 0.021(5)
C11 0.013(5) 0.075(9) 0.152(13) 0.002(9) -0.011(6) -0.005(5)
C12 0.031(4) 0.057(5) 0.143(9) 0.012(5) -0.012(4) -0.010(3)
C012 0.034(3) 0.078(4) 0.096(6) 0.029(4) 0.012(3) 0.011(3)
C13 0.075(8) 0.20(2) 0.161(16) -0.085(14) -0.036(9) 0.039(10)
C14 0.118(18) 0.23(3) 0.15(2) -0.090(18) -0.043(16) 0.029(18)
C14A 0.132(16) 0.270(18) 0.188(18) -0.056(14) -0.021(13) 0.010(13)
C15 0.096(13) 0.269(19) 0.21(2) -0.110(17) -0.040(14) 0.054(14)
C016 0.028(3) 0.050(3) 0.149(9) 0.013(4) -0.003(4) -0.003(2)
C018 0.036(3) 0.049(4) 0.149(6) 0.020(4) -0.014(3) -0.004(3)
C019 0.032(3) 0.057(4) 0.120(7) 0.010(4) 0.002(4) 0.011(3)
C021 0.021(5) 0.084(9) 0.172(10) 0.026(7) 0.007(6) -0.013(5)
C022 0.074(5) 0.224(12) 0.155(8) -0.089(8) -0.031(5) 0.016(6)
C024 0.031(4) 0.057(5) 0.143(9) 0.012(5) -0.012(4) -0.010(3)
C025 0.16(2) 0.221(16) 0.21(3) -0.092(14) 0.015(19) -0.009(13)
loop_
_atom_type_symbol
_atom_type_description
_atom_type_scat_dispersion_real
_atom_type_scat_dispersion_imag
_atom_type_scat_source
C C 0.0181 0.0091 'International Tables Vol C Tables 4.2.6.8 and 6.1.1.4'
H H 0.0000 0.0000 'International Tables Vol C Tables 4.2.6.8 and 6.1.1.4'
N N 0.0311 0.0180 'International Tables Vol C Tables 4.2.6.8 and 6.1.1.4'
Ni Ni -3.0029 0.5091 'International Tables Vol C Tables 4.2.6.8 and 6.1.1.4'
O O 0.0492 0.0322 'International Tables Vol C Tables 4.2.6.8 and 6.1.1.4'
loop_
_geom_angle_atom_site_label_1
_geom_angle_atom_site_label_2
_geom_angle_atom_site_label_3
_geom_angle
_geom_angle_site_symmetry_1
_geom_angle_site_symmetry_3
_geom_angle_publ_flag
N008 Ni01 N008 168.5(5) . 2_665 ?
N008 Ni01 N008 168.5(5) 4_656 3_566 ?
N008 Ni01 N008 90.57(5) . 3_566 ?
N008 Ni01 N008 90.57(5) . 4_656 ?
N008 Ni01 N008 90.57(5) 2_665 4_656 ?
N008 Ni01 N008 90.57(5) 2_665 3_566 ?
C005 N008 Ni01 122.4(4) . . ?
C011 N008 Ni01 129.6(4) . . ?
C011 N008 C005 106.8(5) . . ?
C005 C00B C9 119.5(7) . . ?
C005 C00B C011 121.6(6) . 4_656 ?
C011 C00B C9 118.7(6) 4_656 . ?
C00R C00F C013 120.9(8) . . ?
C00R C00F C017 119.8(7) . . ?
C017 C00F C013 119.2(6) . . ?
C00K C00H C013 120.0(7) . . ?
C009 C00H C00K 122.4(6) . . ?
C009 C00H C013 117.7(7) . . ?
C00T C00J C011 107.4(5) . . ?
C009 C00J C00T 119.9(7) . . ?
C009 C00J C011 132.7(7) . . ?
C00H C00K C00O 119.3(7) . . ?
C00H C00K C00S 122.3(6) . . ?
C00O C00K C00S 118.4(7) . . ?
C00U C00M H00M 118.6 . . ?
C00Z C00M H00M 118.6 . . ?
C00Z C00M C00U 122.8(7) . . ?
C00K C00O H00O 119.9 . . ?
C00T C00O C00K 120.3(7) . . ?
C00T C00O H00O 119.9 . . ?
C00F C00R H00R 119.0 . . ?
C00F C00R C014 122.0(8) . . ?
C014 C00R H00R 119.0 . . ?
O003 C00S C00K 121.0(6) . . ?
O003 C00S C017 123.3(7) . . ?
C017 C00S C00K 115.5(7) . . ?
C00J C00T C005 106.4(6) . . ?
C00O C00T C00J 119.5(6) . . ?
C00O C00T C005 134.1(7) . . ?
C00M C00U H00U 121.4 . . ?
C01N C00U C00M 117.1(8) . . ?
C01N C00U H00U 121.4 . . ?
C00M C00Z H00Z 120.8 . . ?
C00M C00Z C014 118.4(9) . . ?
C014 C00Z H00Z 120.8 . . ?
H1A C1 H1B 109.5 . . ?
H1A C1 H1C 109.5 . . ?
H1B C1 H1C 109.5 . . ?
C4 C1 H1A 109.5 . . ?
C4 C1 H1B 109.5 . . ?
C4 C1 H1C 109.5 . . ?
H1AA C1A H1AB 109.5 . . ?
H1AA C1A H1AC 109.5 . . ?
H1AB C1A H1AC 109.5 . . ?
C2A C1A H1AA 109.5 . . ?
C2A C1A H1AB 109.5 . . ?
C2A C1A H1AC 109.5 . . ?
C01N C01K C01P 119.0(9) . . ?
C01N C01K C014 121.1(8) . . ?
C014 C01K C01P 119.6(7) . . ?
C00U C01N C01K 120.3(10) . . ?
C00U C01N H01N 119.8 . . ?
C01K C01N H01N 119.8 . . ?
C01K C01P H01P 119.9 . . ?
C01K C01P C017 120.2(8) . . ?
C017 C01P H01P 119.9 . . ?
C01S C01Q C01Y 103.8(11) . . ?
C01S C01Q C7A 107.4(11) . . ?
C01S C01Q C16 116.7(12) . . ?
C01V C01Q C01T 90.0(14) . . ?
C01V C01Q C7 94.1(14) . . ?
C01X C01Q C01T 83(2) . . ?
C01X C01Q C01V 110.3(18) . . ?
C01X C01Q C7 155(2) . . ?
C01Y C01Q C7A 114.4(10) . . ?
C01Y C01Q C16 114.6(11) . . ?
C7 C01Q C01T 95.2(16) . . ?
C16 C01Q C7A 100.2(14) . . ?
C01Q C01S H01A 109.5 . . ?
C01Q C01S H01B 109.5 . . ?
C01Q C01S H01C 109.5 . . ?
H01A C01S H01B 109.5 . . ?
H01A C01S H01C 109.5 . . ?
H01B C01S H01C 109.5 . . ?
C01Q C01T H01D 109.5 . . ?
C01Q C01T H01E 109.5 . . ?
C01Q C01T H01F 109.5 . . ?
H01D C01T H01E 109.5 . . ?
H01D C01T H01F 109.5 . . ?
H01E C01T H01F 109.5 . . ?
C01Q C01V H01G 109.5 . . ?
C01Q C01V H01H 109.5 . . ?
C01Q C01V H01I 109.5 . . ?
H01G C01V H01H 109.5 . . ?
H01G C01V H01I 109.5 . . ?
H01H C01V H01I 109.5 . . ?
C01Q C01X H01J 109.5 . . ?
C01Q C01X H01K 109.5 . . ?
C01Q C01X H01L 109.5 . . ?
H01J C01X H01K 109.5 . . ?
H01J C01X H01L 109.5 . . ?
H01K C01X H01L 109.5 . . ?
C01Q C01Y H01M 109.5 . . ?
C01Q C01Y H01O 109.5 . . ?
C01Q C01Y H01Q 109.5 . . ?
H01M C01Y H01O 109.5 . . ?
H01M C01Y H01Q 109.5 . . ?
H01O C01Y H01Q 109.5 . . ?
H2A C2 H2B 109.5 . . ?
H2A C2 H2C 109.5 . . ?
H2B C2 H2C 109.5 . . ?
C4 C2 H2A 109.5 . . ?
C4 C2 H2B 109.5 . . ?
C4 C2 H2C 109.5 . . ?
C1A C2A C3A 97.2(18) . . ?
C1A C2A C5A 102.0(17) . . ?
C4A C2A C1A 114.2(18) . . ?
C4A C2A C3A 129.0(16) . . ?
C4A C2A C5A 120.5(18) . . ?
C5A C2A C3A 88.1(13) . . ?
H3A C3 H3B 109.5 . . ?
H3A C3 H3C 109.5 . . ?
H3B C3 H3C 109.5 . . ?
C4 C3 H3A 109.5 . . ?
C4 C3 H3B 109.5 . . ?
C4 C3 H3C 109.5 . . ?
C2A C3A H3AA 109.5 . . ?
C2A C3A H3AB 109.5 . . ?
C2A C3A H3AC 109.5 . . ?
H3AA C3A H3AB 109.5 . . ?
H3AA C3A H3AC 109.5 . . ?
H3AB C3A H3AC 109.5 . . ?
C1 C4 C3 97.1(18) . . ?
C2 C4 C1 114.6(17) . . ?
C2 C4 C3 82.4(12) . . ?
C5 C4 C1 124.5(16) . . ?
C5 C4 C2 115.2(18) . . ?
C5 C4 C3 112(2) . . ?
C2A C4A H4AA 109.5 . . ?
C2A C4A H4AB 109.5 . . ?
C2A C4A H4AC 109.5 . . ?
H4AA C4A H4AB 109.5 . . ?
H4AA C4A H4AC 109.5 . . ?
H4AB C4A H4AC 109.5 . . ?
N008 C005 C00T 108.8(5) . . ?
C00B C005 N008 122.8(7) . . ?
C00B C005 C00T 124.0(5) . . ?
C6 C5 C4 112.5(14) . . ?
C10 C5 C4 127.4(16) . . ?
C10 C5 C6 119.5(16) . . ?
C6A C5A C2A 132.4(17) . . ?
C10A C5A C2A 117.2(16) . . ?
C10A C5A C6A 108.8(17) . . ?
C5 C6 H6 120.4 . . ?
C7 C6 C5 119.3(17) . . ?
C7 C6 H6 120.4 . . ?
C5A C6A H6A 115.8 . . ?
C7A C6A C5A 128.4(19) . . ?
C7A C6A H6A 115.8 . . ?
C6 C7 C01Q 120.5(18) . . ?
C6 C7 C8 117.7(18) . . ?
C8 C7 C01Q 115.6(16) . . ?
C6A C7A C01Q 128.3(15) . . ?
C6A C7A C8 116.7(16) . . ?
C8 C7A C01Q 108.6(12) . . ?
C7 C8 H8A 119.5 . . ?
C7 C8 C9 121.1(12) . . ?
C7A C8 H8B 121.3 . . ?
C9 C8 C7A 117.5(11) . . ?
C9 C8 H8A 119.5 . . ?
C9 C8 H8B 121.3 . . ?
C00H C009 C00J 118.6(7) . . ?
C00H C009 H009 120.7 . . ?
C00J C009 H009 120.7 . . ?
C8 C9 C00B 122.8(9) . . ?
C8 C9 C10A 119.0(10) . . ?
C10 C9 C00B 120.7(11) . . ?
C10 C9 C8 116.4(12) . . ?
C10A C9 C00B 116.3(10) . . ?
C5 C10 H10 118.9 . . ?
C9 C10 C5 122.1(17) . . ?
C9 C10 H10 118.9 . . ?
C5A C10A C9 126.6(16) . . ?
C5A C10A H10A 116.7 . . ?
C9 C10A H10A 116.7 . . ?
N008 C011 C00B 120.8(6) . 3_566 ?
N008 C011 C00J 110.3(6) . . ?
C00B C011 C00J 128.9(6) 3_566 . ?
O004 C013 C00F 119.5(6) . . ?
O004 C013 C00H 120.9(7) . . ?
C00F C013 C00H 119.4(6) . . ?
C00Z C014 C00R 121.3(9) . . ?
C01K C014 C00R 118.6(7) . . ?
C01K C014 C00Z 119.9(8) . . ?
C01Q C16 H16A 109.5 . . ?
C01Q C16 H16B 109.5 . . ?
C01Q C16 H16C 109.5 . . ?
H16A C16 H16B 109.5 . . ?
H16A C16 H16C 109.5 . . ?
H16B C16 H16C 109.5 . . ?
C00F C017 C00S 123.2(7) . . ?
C00F C017 C01P 119.5(7) . . ?
C01P C017 C00S 117.2(8) . . ?
N007 Ni02 N007 166.5(5) 2_575 . ?
N007 Ni02 N007 90.79(6) 4_665 2_575 ?
N007 Ni02 N007 166.5(5) 3_465 4_665 ?
N007 Ni02 N007 90.79(6) 3_465 . ?
N007 Ni02 N007 90.79(6) 3_465 2_575 ?
N007 Ni02 N007 90.79(6) 4_665 . ?
C00E N007 Ni02 124.7(4) 3_465 . ?
C01H N007 Ni02 125.6(4) . . ?
C01H N007 C00E 109.5(5) . 3_465 ?
H0A C0 H0B 109.5 . . ?
H0A C0 H0C 109.5 . . ?
H0B C0 H0C 109.5 . . ?
C01A C0 H0A 109.5 . . ?
C01A C0 H0B 109.5 . . ?
C01A C0 H0C 109.5 . . ?
C00D C00C H00C 119.2 . . ?
C019 C00C H00C 119.2 . . ?
C019 C00C C00D 121.6(9) . . ?
C00Y C00D C00C 118.1(7) . . ?
C00Y C00D C012 118.3(7) . . ?
C012 C00D C00C 123.3(8) . . ?
N007 C00E C00I 107.0(5) 4_665 4_665 ?
C00X C00E N007 125.3(6) . 4_665 ?
C00X C00E C00I 127.6(5) . 4_665 ?
C00P C00G C00X 123.0(8) . . ?
C01B C00G C00P 120.9(8) . . ?
C01B C00G C00X 116.1(7) . . ?
C00N C00I C00E 107.6(5) . 3_465 ?
C00N C00I C01I 120.9(6) . . ?
C01I C00I C00E 131.3(6) . 3_465 ?
O006 C00L C00W 121.1(7) . . ?
O006 C00L C01G 123.6(7) . . ?
C00W C00L C01G 115.3(6) . . ?
C00I C00N C00Q 122.0(6) . . ?
C00I C00N C01H 106.0(6) . . ?
C00Q C00N C01H 131.9(6) . . ?
C00G C00P H00P 119.7 . . ?
C00G C00P C018 120.6(10) . . ?
C018 C00P H00P 119.7 . . ?
C00N C00Q H00Q 121.4 . . ?
C01D C00Q C00N 117.1(7) . . ?
C01D C00Q H00Q 121.4 . . ?
C01D C00W C00L 122.3(7) . . ?
C01I C00W C00L 118.0(6) . . ?
C01I C00W C01D 119.7(6) . . ?
C00E C00X C00G 121.2(5) . . ?
C00E C00X C01H 121.9(6) . . ?
C01H C00X C00G 116.9(6) . . ?
C00D C00Y C01E 117.3(7) . . ?
C01C C00Y C00D 120.1(7) . . ?
C01C C00Y C01E 122.6(8) . . ?
C01W C01A C024 97.1(11) . . ?
C11 C01A C0 94.7(10) . . ?
C11 C01A C12 105.7(11) . . ?
C12 C01A C0 92.6(9) . . ?
C018 C01A C0 100.1(7) . . ?
C018 C01A C01W 107.3(10) . . ?
C018 C01A C11 135.0(13) . . ?
C018 C01A C12 115.7(8) . . ?
C018 C01A C021 114.3(9) . . ?
C018 C01A C024 105.3(8) . . ?
C021 C01A C01W 117.8(12) . . ?
C021 C01A C024 113.1(10) . . ?
C00G C01B H01R 119.9 . . ?
C00G C01B C010 120.3(9) . . ?
C010 C01B H01R 119.9 . . ?
C00Y C01C H01S 120.1 . . ?
C00Y C01C C01G 119.9(8) . . ?
C01G C01C H01S 120.1 . . ?
C00Q C01D C00W 122.4(7) . . ?
C00Q C01D C016 117.3(7) . . ?
C00W C01D C016 120.2(6) . . ?
C00Y C01E H01T 119.3 . . ?
C01O C01E C00Y 121.4(8) . . ?
C01O C01E H01T 119.3 . . ?
C01C C01G C00L 116.5(7) . . ?
C019 C01G C00L 123.5(6) . . ?
C019 C01G C01C 119.9(8) . . ?
N007 C01H C00N 108.6(5) . . ?
N007 C01H C00X 122.8(6) . . ?
C00X C01H C00N 127.9(5) . . ?
C00I C01I C00W 117.7(6) . . ?
C00I C01I H01U 121.1 . . ?
C00W C01I H01U 121.1 . . ?
C010 C01J H01V 118.1 . . ?
C018 C01J H01V 118.1 . . ?
C018 C01J C010 123.8(10) . . ?
C01O C01M H01W 118.9 . . ?
C01O C01M C012 122.1(8) . . ?
C012 C01M H01W 118.9 . . ?
C01E C01O H01X 119.9 . . ?
C01M C01O C01E 120.3(8) . . ?
C01M C01O H01X 119.9 . . ?
H01Y C01U H 109.5 . . ?
H01Y C01U HA 109.5 . . ?
H C01U HA 109.5 . . ?
C022 C01U H01Y 109.5 . . ?
C022 C01U H 109.5 . . ?
C022 C01U HA 109.5 . . ?
C01A C01W H01Z 109.5 . . ?
C01A C01W HB 109.5 . . ?
C01A C01W HC 109.5 . . ?
H01Z C01W HB 109.5 . . ?
H01Z C01W HC 109.5 . . ?
HB C01W HC 109.5 . . ?
C01B C010 C022 120.9(10) . . ?
C01J C010 C01B 116.2(11) . . ?
C01J C010 C022 121.9(10) . . ?
C01A C11 H11A 109.5 . . ?
C01A C11 H11B 109.5 . . ?
C01A C11 H11C 109.5 . . ?
H11A C11 H11B 109.5 . . ?
H11A C11 H11C 109.5 . . ?
H11B C11 H11C 109.5 . . ?
C01A C12 H12A 109.5 . . ?
C01A C12 H12B 109.5 . . ?
C01A C12 H12C 109.5 . . ?
H12A C12 H12B 109.5 . . ?
H12A C12 H12C 109.5 . . ?
H12B C12 H12C 109.5 . . ?
C00D C012 H012 119.9 . . ?
C01M C012 C00D 120.3(8) . . ?
C01M C012 H012 119.9 . . ?
H13A C13 H13B 109.5 . . ?
H13A C13 H13C 109.5 . . ?
H13B C13 H13C 109.5 . . ?
C022 C13 H13A 109.5 . . ?
C022 C13 H13B 109.5 . . ?
C022 C13 H13C 109.5 . . ?
H14A C14 H14B 109.5 . . ?
H14A C14 H14C 109.5 . . ?
H14B C14 H14C 109.5 . . ?
C022 C14 H14A 109.5 . . ?
C022 C14 H14B 109.5 . . ?
C022 C14 H14C 109.5 . . ?
H14D C14A H14E 109.5 . . ?
H14D C14A H14F 109.5 . . ?
H14E C14A H14F 109.5 . . ?
C022 C14A H14D 109.5 . . ?
C022 C14A H14E 109.5 . . ?
C022 C14A H14F 109.5 . . ?
H15A C15 H15B 109.5 . . ?
H15A C15 H15C 109.5 . . ?
H15B C15 H15C 109.5 . . ?
C022 C15 H15A 109.5 . . ?
C022 C15 H15B 109.5 . . ?
C022 C15 H15C 109.5 . . ?
O00A C016 C01D 121.6(7) . . ?
O00A C016 C019 119.4(7) . . ?
C01D C016 C019 118.9(7) . . ?
C00P C018 C01A 128.2(11) . . ?
C01J C018 C00P 117.0(9) . . ?
C01J C018 C01A 114.4(9) . . ?
C00C C019 C01G 120.1(7) . . ?
C00C C019 C016 120.5(8) . . ?
C01G C019 C016 119.3(7) . . ?
C01A C021 H02A 109.5 . . ?
C01A C021 H02B 109.5 . . ?
C01A C021 H02C 109.5 . . ?
H02A C021 H02B 109.5 . . ?
H02A C021 H02C 109.5 . . ?
H02B C021 H02C 109.5 . . ?
C01U C022 C010 111.9(15) . . ?
C01U C022 C025 94(2) . . ?
C010 C022 C14A 101.9(16) . . ?
C010 C022 C025 97(2) . . ?
C13 C022 C010 117.2(13) . . ?
C13 C022 C14A 97.7(19) . . ?
C13 C022 C15 114.2(17) . . ?
C14 C022 C01U 139(3) . . ?
C14 C022 C010 103(2) . . ?
C14 C022 C025 103(2) . . ?
C15 C022 C010 111.2(17) . . ?
C15 C022 C14A 113.1(19) . . ?
C01A C024 H02D 109.5 . . ?
C01A C024 H02E 109.5 . . ?
C01A C024 H02F 109.5 . . ?
H02D C024 H02E 109.5 . . ?
H02D C024 H02F 109.5 . . ?
H02E C024 H02F 109.5 . . ?
C022 C025 H02G 109.5 . . ?
C022 C025 H02H 109.5 . . ?
C022 C025 H02I 109.5 . . ?
H02G C025 H02H 109.5 . . ?
H02G C025 H02I 109.5 . . ?
H02H C025 H02I 109.5 . . ?
loop_
_geom_bond_atom_site_label_1
_geom_bond_atom_site_label_2
_geom_bond_distance
_geom_bond_site_symmetry_2
_geom_bond_publ_flag
Ni01 N008 1.874(5) . ?
Ni01 N008 1.874(5) 4_656 ?
Ni01 N008 1.874(5) 2_665 ?
Ni01 N008 1.874(5) 3_566 ?
O003 C00S 1.234(9) . ?
O004 C013 1.257(9) . ?
N008 C005 1.433(8) . ?
N008 C011 1.383(7) . ?
C00B C005 1.374(9) . ?
C00B C9 1.492(10) . ?
C00B C011 1.415(10) 4_656 ?
C00F C00R 1.358(9) . ?
C00F C013 1.463(11) . ?
C00F C017 1.406(11) . ?
C00H C00K 1.386(10) . ?
C00H C009 1.357(10) . ?
C00H C013 1.487(8) . ?
C00J C00T 1.426(10) . ?
C00J C009 1.426(9) . ?
C00J C011 1.430(10) . ?
C00K C00O 1.416(8) . ?
C00K C00S 1.498(10) . ?
C00M H00M 0.9300 . ?
C00M C00U 1.484(14) . ?
C00M C00Z 1.335(13) . ?
C00O H00O 0.9300 . ?
C00O C00T 1.366(10) . ?
C00R H00R 0.9300 . ?
C00R C014 1.450(11) . ?
C00S C017 1.479(9) . ?
C00T C005 1.441(9) . ?
C00U H00U 0.9300 . ?
C00U C01N 1.371(11) . ?
C00Z H00Z 0.9300 . ?
C00Z C014 1.422(10) . ?
C1 H1A 0.9600 . ?
C1 H1B 0.9600 . ?
C1 H1C 0.9600 . ?
C1 C4 1.596(13) . ?
C1A H1AA 0.9600 . ?
C1A H1AB 0.9600 . ?
C1A H1AC 0.9600 . ?
C1A C2A 1.50(3) . ?
C01K C01N 1.396(12) . ?
C01K C01P 1.407(11) . ?
C01K C014 1.401(13) . ?
C01N H01N 0.9300 . ?
C01P H01P 0.9300 . ?
C01P C017 1.442(11) . ?
C01Q C01S 1.509(14) . ?
C01Q C01T 1.691(18) . ?
C01Q C01V 1.659(16) . ?
C01Q C01X 1.59(2) . ?
C01Q C01Y 1.570(11) . ?
C01Q C7 1.674(19) . ?
C01Q C7A 1.740(17) . ?
C01Q C16 1.572(16) . ?
C01S H01A 0.9600 . ?
C01S H01B 0.9600 . ?
C01S H01C 0.9600 . ?
C01T H01D 0.9600 . ?
C01T H01E 0.9600 . ?
C01T H01F 0.9600 . ?
C01V H01G 0.9600 . ?
C01V H01H 0.9600 . ?
C01V H01I 0.9600 . ?
C01X H01J 0.9600 . ?
C01X H01K 0.9600 . ?
C01X H01L 0.9600 . ?
C01Y H01M 0.9600 . ?
C01Y H01O 0.9600 . ?
C01Y H01Q 0.9600 . ?
C2 H2A 0.9600 . ?
C2 H2B 0.9600 . ?
C2 H2C 0.9600 . ?
C2 C4 1.595(11) . ?
C2A C3A 1.93(2) . ?
C2A C4A 1.35(2) . ?
C2A C5A 1.58(2) . ?
C3 H3A 0.9600 . ?
C3 H3B 0.9600 . ?
C3 H3C 0.9600 . ?
C3 C4 1.617(13) . ?
C3A H3AA 0.9600 . ?
C3A H3AB 0.9600 . ?
C3A H3AC 0.9600 . ?
C4 C5 1.47(2) . ?
C4A H4AA 0.9600 . ?
C4A H4AB 0.9600 . ?
C4A H4AC 0.9600 . ?
C5 C6 1.39(2) . ?
C5 C10 1.359(17) . ?
C5A C6A 1.45(2) . ?
C5A C10A 1.397(16) . ?
C6 H6 0.9300 . ?
C6 C7 1.36(2) . ?
C6A H6A 0.9300 . ?
C6A C7A 1.36(2) . ?
C7 C8 1.364(18) . ?
C7A C8 1.423(16) . ?
C8 H8A 0.9300 . ?
C8 H8B 0.9300 . ?
C8 C9 1.396(10) . ?
C009 H009 0.9300 . ?
C9 C10 1.340(18) . ?
C9 C10A 1.403(18) . ?
C10 H10 0.9300 . ?
C10A H10A 0.9300 . ?
C011 C00B 1.415(10) 3_566 ?
C16 H16A 0.9600 . ?
C16 H16B 0.9600 . ?
C16 H16C 0.9600 . ?
Ni02 N007 1.914(4) 3_465 ?
Ni02 N007 1.914(4) 2_575 ?
Ni02 N007 1.914(4) 4_665 ?
Ni02 N007 1.914(4) . ?
O00A C016 1.199(10) . ?
O006 C00L 1.179(9) . ?
N007 C00E 1.381(6) 3_465 ?
N007 C01H 1.348(8) . ?
C0 H0A 0.9600 . ?
C0 H0B 0.9600 . ?
C0 H0C 0.9600 . ?
C0 C01A 1.785(14) . ?
C00C H00C 0.9300 . ?
C00C C00D 1.436(10) . ?
C00C C019 1.307(11) . ?
C00D C00Y 1.410(12) . ?
C00D C012 1.430(10) . ?
C00E N007 1.382(6) 4_665 ?
C00E C00I 1.467(8) 4_665 ?
C00E C00X 1.345(9) . ?
C00G C00P 1.384(10) . ?
C00G C00X 1.509(9) . ?
C00G C01B 1.379(12) . ?
C00I C00E 1.467(8) 3_465 ?
C00I C00N 1.379(9) . ?
C00I C01I 1.386(8) . ?
C00L C00W 1.498(9) . ?
C00L C01G 1.504(11) . ?
C00N C00Q 1.419(9) . ?
C00N C01H 1.468(8) . ?
C00P H00P 0.9300 . ?
C00P C018 1.393(10) . ?
C00Q H00Q 0.9300 . ?
C00Q C01D 1.345(9) . ?
C00W C01D 1.420(10) . ?
C00W C01I 1.416(11) . ?
C00X C01H 1.402(8) . ?
C00Y C01C 1.356(11) . ?
C00Y C01E 1.425(9) . ?
C01A C01W 1.588(14) . ?
C01A C11 1.458(12) . ?
C01A C12 1.600(14) . ?
C01A C018 1.416(12) . ?
C01A C021 1.442(13) . ?
C01A C024 1.688(12) . ?
C01B H01R 0.9300 . ?
C01B C010 1.403(11) . ?
C01C H01S 0.9300 . ?
C01C C01G 1.413(9) . ?
C01D C016 1.486(10) . ?
C01E H01T 0.9300 . ?
C01E C01O 1.376(10) . ?
C01G C019 1.406(12) . ?
C01I H01U 0.9300 . ?
C01J H01V 0.9300 . ?
C01J C010 1.396(13) . ?
C01J C018 1.383(13) . ?
C01M H01W 0.9300 . ?
C01M C01O 1.327(12) . ?
C01M C012 1.358(10) . ?
C01O H01X 0.9300 . ?
C01U H01Y 0.9600 . ?
C01U H 0.9600 . ?
C01U HA 0.9600 . ?
C01U C022 1.541(18) . ?
C01W H01Z 0.9600 . ?
C01W HB 0.9600 . ?
C01W HC 0.9600 . ?
C010 C022 1.552(19) . ?
C11 H11A 0.9600 . ?
C11 H11B 0.9600 . ?
C11 H11C 0.9600 . ?
C12 H12A 0.9600 . ?
C12 H12B 0.9600 . ?
C12 H12C 0.9600 . ?
C012 H012 0.9300 . ?
C13 H13A 0.9600 . ?
C13 H13B 0.9600 . ?
C13 H13C 0.9600 . ?
C13 C022 1.480(15) . ?
C14 H14A 0.9600 . ?
C14 H14B 0.9600 . ?
C14 H14C 0.9600 . ?
C14 C022 1.530(19) . ?
C14A H14D 0.9600 . ?
C14A H14E 0.9600 . ?
C14A H14F 0.9600 . ?
C14A C022 1.600(19) . ?
C15 H15A 0.9600 . ?
C15 H15B 0.9600 . ?
C15 H15C 0.9600 . ?
C15 C022 1.532(17) . ?
C016 C019 1.502(10) . ?
C021 H02A 0.9600 . ?
C021 H02B 0.9600 . ?
C021 H02C 0.9600 . ?
C022 C025 1.62(2) . ?
C024 H02D 0.9600 . ?
C024 H02E 0.9600 . ?
C024 H02F 0.9600 . ?
C025 H02G 0.9600 . ?
C025 H02H 0.9600 . ?
C025 H02I 0.9600 . ?
loop_
_geom_torsion_atom_site_label_1
_geom_torsion_atom_site_label_2
_geom_torsion_atom_site_label_3
_geom_torsion_atom_site_label_4
_geom_torsion
_geom_torsion_site_symmetry_1
_geom_torsion_site_symmetry_2
_geom_torsion_site_symmetry_3
_geom_torsion_site_symmetry_4
_geom_torsion_publ_flag
Ni01 N008 C005 C00B -38.4(12) . . . . ?
Ni01 N008 C005 C00T 164.3(6) . . . . ?
Ni01 N008 C011 C00B 16.2(14) . . . 3_566 ?
Ni01 N008 C011 C00J -164.1(7) . . . . ?
O003 C00S C017 C00F 178.1(10) . . . . ?
O003 C00S C017 C01P 2.0(16) . . . . ?
N008 Ni01 N008 C005 -63.0(7) 2_665 . . . ?
N008 Ni01 N008 C005 -158.7(9) 3_566 . . . ?
N008 Ni01 N008 C005 32.7(5) 4_656 . . . ?
N008 Ni01 N008 C011 103.4(8) 2_665 . . . ?
N008 Ni01 N008 C011 7.7(7) 3_566 . . . ?
N008 Ni01 N008 C011 -160.9(10) 4_656 . . . ?
C00B C9 C10 C5 -178.7(15) . . . . ?
C00B C9 C10A C5A 173.7(14) . . . . ?
C00F C00R C014 C00Z 179.6(10) . . . . ?
C00F C00R C014 C01K -5.1(17) . . . . ?
C00H C00K C00O C00T -3.0(14) . . . . ?
C00H C00K C00S O003 176.7(10) . . . . ?
C00H C00K C00S C017 0.7(13) . . . . ?
C00J C00T C005 N008 3.8(10) . . . . ?
C00J C00T C005 C00B -153.1(10) . . . . ?
C00K C00H C009 C00J -2.8(14) . . . . ?
C00K C00H C013 O004 170.6(9) . . . . ?
C00K C00H C013 C00F -5.1(14) . . . . ?
C00K C00O C00T C00J 0.0(14) . . . . ?
C00K C00O C00T C005 179.8(10) . . . . ?
C00K C00S C017 C00F -6.0(14) . . . . ?
C00K C00S C017 C01P 177.9(9) . . . . ?
C00M C00U C01N C01K -4.9(18) . . . . ?
C00M C00Z C014 C00R 177.5(11) . . . . ?
C00M C00Z C014 C01K 2.2(19) . . . . ?
C00O C00K C00S O003 -3.1(14) . . . . ?
C00O C00K C00S C017 -179.1(9) . . . . ?
C00O C00T C005 N008 -176.0(10) . . . . ?
C00O C00T C005 C00B 27.1(18) . . . . ?
C00R C00F C013 O004 8.3(15) . . . . ?
C00R C00F C013 C00H -175.9(10) . . . . ?
C00R C00F C017 C00S -178.4(10) . . . . ?
C00R C00F C017 C01P -2.4(15) . . . . ?
C00S C00K C00O C00T 176.9(8) . . . . ?
C00T C00J C009 C00H -0.3(13) . . . . ?
C00T C00J C011 N008 -1.5(11) . . . . ?
C00T C00J C011 C00B 178.1(9) . . . 3_566 ?
C00U C00M C00Z C014 -1(2) . . . . ?
C00Z C00M C00U C01N 2.1(19) . . . . ?
C1 C4 C5 C6 -64(3) . . . . ?
C1 C4 C5 C10 108(2) . . . . ?
C1A C2A C5A C6A 125(3) . . . . ?
C1A C2A C5A C10A -71(2) . . . . ?
C01K C01P C017 C00F 3.1(16) . . . . ?
C01K C01P C017 C00S 179.4(10) . . . . ?
C01N C01K C01P C017 -178.7(10) . . . . ?
C01N C01K C014 C00R 179.4(10) . . . . ?
C01N C01K C014 C00Z -5.2(18) . . . . ?
C01P C01K C01N C00U -179.6(11) . . . . ?
C01P C01K C014 C00R 5.6(17) . . . . ?
C01P C01K C014 C00Z -178.9(11) . . . . ?
C01Q C7 C8 C9 -176.4(14) . . . . ?
C01Q C7A C8 C9 174.1(10) . . . . ?
C01S C01Q C7A C6A -136(3) . . . . ?
C01S C01Q C7A C8 73.3(18) . . . . ?
C01T C01Q C7 C6 -45(4) . . . . ?
C01T C01Q C7 C8 107(3) . . . . ?
C01V C01Q C7 C6 46(4) . . . . ?
C01V C01Q C7 C8 -163(2) . . . . ?
C01X C01Q C7 C6 -129(5) . . . . ?
C01X C01Q C7 C8 22(7) . . . . ?
C01Y C01Q C7A C6A 109(3) . . . . ?
C01Y C01Q C7A C8 -41(2) . . . . ?
C2 C4 C5 C6 88(3) . . . . ?
C2 C4 C5 C10 -100(2) . . . . ?
C2A C5A C6A C7A 172(3) . . . . ?
C2A C5A C10A C9 -171(2) . . . . ?
C3 C4 C5 C6 180(3) . . . . ?
C3 C4 C5 C10 -8(3) . . . . ?
C3A C2A C5A C6A 28(3) . . . . ?
C3A C2A C5A C10A -168.2(15) . . . . ?
C4 C5 C6 C7 175(4) . . . . ?
C4 C5 C10 C9 -179(2) . . . . ?
C4A C2A C5A C6A -107(3) . . . . ?
C4A C2A C5A C10A 56(2) . . . . ?
C005 N008 C011 C00B -175.8(9) . . . 3_566 ?
C005 N008 C011 C00J 3.8(10) . . . . ?
C005 C00B C9 C8 91.4(11) . . . . ?
C005 C00B C9 C10 -93.4(17) . . . . ?
C005 C00B C9 C10A -72.8(15) . . . . ?
C5 C6 C7 C01Q 164(3) . . . . ?
C5 C6 C7 C8 13(6) . . . . ?
C5A C6A C7A C01Q -165(3) . . . . ?
C5A C6A C7A C8 -16(6) . . . . ?
C6 C5 C10 C9 -7(4) . . . . ?
C6 C7 C8 C9 -24(5) . . . . ?
C6A C5A C10A C9 -4(3) . . . . ?
C6A C7A C8 C9 20(3) . . . . ?
C7 C8 C9 C00B -165(2) . . . . ?
C7 C8 C9 C10 19(3) . . . . ?
C7A C8 C9 C00B 179.6(14) . . . . ?
C7A C8 C9 C10A -17(2) . . . . ?
C8 C9 C10 C5 -3(3) . . . . ?
C8 C9 C10A C5A 9(2) . . . . ?
C009 C00H C00K C00O 4.4(15) . . . . ?
C009 C00H C00K C00S -175.4(9) . . . . ?
C009 C00H C013 O004 -9.3(15) . . . . ?
C009 C00H C013 C00F 175.0(8) . . . . ?
C009 C00J C00T C00O 1.6(13) . . . . ?
C009 C00J C00T C005 -178.2(8) . . . . ?
C009 C00J C011 N008 174.7(10) . . . . ?
C009 C00J C011 C00B -5.7(19) . . . 3_566 ?
C9 C00B C005 N008 -178.1(8) . . . . ?
C9 C00B C005 C00T -24.2(15) . . . . ?
C10 C5 C6 C7 2(6) . . . . ?
C10A C5A C6A C7A 8(5) . . . . ?
C011 N008 C005 C00B 152.5(9) . . . . ?
C011 N008 C005 C00T -4.7(10) . . . . ?
C011 C00B C005 N008 7.9(15) 4_656 . . . ?
C011 C00B C005 C00T 161.8(9) 4_656 . . . ?
C011 C00B C9 C8 -94.5(10) 4_656 . . . ?
C011 C00B C9 C10 80.8(18) 4_656 . . . ?
C011 C00B C9 C10A 101.4(14) 4_656 . . . ?
C011 C00J C00T C00O 178.4(9) . . . . ?
C011 C00J C00T C005 -1.5(10) . . . . ?
C011 C00J C009 C00H -176.1(10) . . . . ?
C013 C00F C00R C014 179.3(9) . . . . ?
C013 C00F C017 C00S 5.7(15) . . . . ?
C013 C00F C017 C01P -178.3(9) . . . . ?
C013 C00H C00K C00O -175.5(9) . . . . ?
C013 C00H C00K C00S 4.6(14) . . . . ?
C013 C00H C009 C00J 177.2(9) . . . . ?
C014 C01K C01N C00U 6.6(18) . . . . ?
C014 C01K C01P C017 -4.8(17) . . . . ?
C16 C01Q C7A C6A -14(4) . . . . ?
C16 C01Q C7A C8 -164.4(16) . . . . ?
C017 C00F C00R C014 3.4(16) . . . . ?
C017 C00F C013 O004 -175.8(10) . . . . ?
C017 C00F C013 C00H 0.0(14) . . . . ?
Ni02 N007 C01H C00N 162.7(6) . . . . ?
Ni02 N007 C01H C00X -26.2(12) . . . . ?
O00A C016 C019 C00C -4.3(18) . . . . ?
O00A C016 C019 C01G 178.6(11) . . . . ?
O006 C00L C00W C01D 172.8(10) . . . . ?
O006 C00L C00W C01I -5.2(14) . . . . ?
O006 C00L C01G C01C 1.4(15) . . . . ?
O006 C00L C01G C019 -175.4(11) . . . . ?
N007 C00E C00X C00G -154.7(8) 4_665 . . . ?
N007 C00E C00X C01H 25.0(14) 4_665 . . . ?
C0 C01A C018 C00P -51.1(11) . . . . ?
C0 C01A C018 C01J 136.3(10) . . . . ?
C00C C00D C00Y C01C -3.6(14) . . . . ?
C00C C00D C00Y C01E 179.1(8) . . . . ?
C00C C00D C012 C01M 179.4(10) . . . . ?
C00D C00C C019 C01G -4.5(17) . . . . ?
C00D C00C C019 C016 178.5(10) . . . . ?
C00D C00Y C01C C01G 3.9(15) . . . . ?
C00D C00Y C01E C01O -2.2(13) . . . . ?
C00E N007 C01H C00N -12.1(10) 3_465 . . . ?
C00E N007 C01H C00X 159.0(8) 3_465 . . . ?
C00E C00I C00N C00Q 177.6(8) 3_465 . . . ?
C00E C00I C00N C01H -5.5(9) 3_465 . . . ?
C00E C00I C01I C00W -176.1(9) 3_465 . . . ?
C00E C00X C01H N007 -3.5(13) . . . . ?
C00E C00X C01H C00N 165.8(8) . . . . ?
C00G C00P C018 C01A -174.0(7) . . . . ?
C00G C00P C018 C01J -1.6(12) . . . . ?
C00G C00X C01H N007 176.3(8) . . . . ?
C00G C00X C01H C00N -14.5(13) . . . . ?
C00G C01B C010 C01J 11.9(19) . . . . ?
C00G C01B C010 C022 -179.0(13) . . . . ?
C00I C00E C00X C00G 23.9(14) 4_665 . . . ?
C00I C00E C00X C01H -156.3(8) 4_665 . . . ?
C00I C00N C00Q C01D 0.2(14) . . . . ?
C00I C00N C01H N007 11.0(9) . . . . ?
C00I C00N C01H C00X -159.5(9) . . . . ?
C00L C00W C01D C00Q -174.8(9) . . . . ?
C00L C00W C01D C016 6.8(16) . . . . ?
C00L C00W C01I C00I 177.8(8) . . . . ?
C00L C01G C019 C00C -178.7(10) . . . . ?
C00L C01G C019 C016 -1.6(17) . . . . ?
C00N C00I C01I C00W -2.5(13) . . . . ?
C00N C00Q C01D C00W -3.1(15) . . . . ?
C00N C00Q C01D C016 175.4(9) . . . . ?
C00P C00G C00X C00E -93.2(9) . . . . ?
C00P C00G C00X C01H 87.0(10) . . . . ?
C00P C00G C01B C010 -6.7(15) . . . . ?
C00Q C00N C01H N007 -172.6(9) . . . . ?
C00Q C00N C01H C00X 16.9(16) . . . . ?
C00Q C01D C016 O00A 0.3(17) . . . . ?
C00Q C01D C016 C019 179.2(10) . . . . ?
C00W C00L C01G C01C -177.6(9) . . . . ?
C00W C00L C01G C019 5.6(15) . . . . ?
C00W C01D C016 O00A 178.8(11) . . . . ?
C00W C01D C016 C019 -2.4(16) . . . . ?
C00X C00G C00P C018 -176.8(7) . . . . ?
C00X C00G C01B C010 171.5(10) . . . . ?
C00Y C00D C012 C01M -6.6(14) . . . . ?
C00Y C01C C01G C00L 178.8(9) . . . . ?
C00Y C01C C01G C019 -4.3(16) . . . . ?
C00Y C01E C01O C01M 1.0(14) . . . . ?
C01B C00G C00P C018 1.3(12) . . . . ?
C01B C00G C00X C00E 88.6(10) . . . . ?
C01B C00G C00X C01H -91.2(9) . . . . ?
C01B C010 C022 C01U -13(3) . . . . ?
C01B C010 C022 C13 175.6(19) . . . . ?
C01B C010 C022 C14 144(2) . . . . ?
C01B C010 C022 C14A 70.4(18) . . . . ?
C01B C010 C022 C15 -50(2) . . . . ?
C01B C010 C022 C025 -111(2) . . . . ?
C01C C00Y C01E C01O -179.4(9) . . . . ?
C01C C01G C019 C00C 4.6(17) . . . . ?
C01C C01G C019 C016 -178.4(10) . . . . ?
C01D C00W C01I C00I -0.2(13) . . . . ?
C01D C016 C019 C00C 176.8(10) . . . . ?
C01D C016 C019 C01G -0.2(16) . . . . ?
C01E C00Y C01C C01G -179.1(8) . . . . ?
C01G C00L C00W C01D -8.2(14) . . . . ?
C01G C00L C00W C01I 173.8(8) . . . . ?
C01H C00N C00Q C01D -175.8(10) . . . . ?
C01I C00I C00N C00Q 2.7(13) . . . . ?
C01I C00I C00N C01H 179.5(7) . . . . ?
C01I C00W C01D C00Q 3.2(16) . . . . ?
C01I C00W C01D C016 -175.2(9) . . . . ?
C01J C010 C022 C01U 155.0(18) . . . . ?
C01J C010 C022 C13 -16(3) . . . . ?
C01J C010 C022 C14 -48(3) . . . . ?
C01J C010 C022 C14A -121.1(17) . . . . ?
C01J C010 C022 C15 118.0(19) . . . . ?
C01J C010 C022 C025 58(2) . . . . ?
C01O C01M C012 C00D 5.6(16) . . . . ?
C01W C01A C018 C00P -139.8(12) . . . . ?
C01W C01A C018 C01J 47.6(14) . . . . ?
C010 C01J C018 C00P 7.7(17) . . . . ?
C010 C01J C018 C01A -178.8(12) . . . . ?
C11 C01A C018 C00P -158.3(14) . . . . ?
C11 C01A C018 C01J 29.1(18) . . . . ?
C12 C01A C018 C00P 46.8(13) . . . . ?
C12 C01A C018 C01J -125.8(11) . . . . ?
C012 C00D C00Y C01C -177.9(8) . . . . ?
C012 C00D C00Y C01E 4.9(13) . . . . ?
C012 C01M C01O C01E -2.7(16) . . . . ?
C018 C01J C010 C01B -13(2) . . . . ?
C018 C01J C010 C022 178.2(13) . . . . ?
C019 C00C C00D C00Y 4.0(15) . . . . ?
C019 C00C C00D C012 178.0(10) . . . . ?
C021 C01A C018 C00P -7.2(13) . . . . ?
C021 C01A C018 C01J -179.8(10) . . . . ?
C024 C01A C018 C00P 117.5(10) . . . . ?
C024 C01A C018 C01J -55.0(12) . . . . ?
loop_
_smtbx_masks_void_nr
_smtbx_masks_void_average_x
_smtbx_masks_void_average_y
_smtbx_masks_void_average_z
_smtbx_masks_void_volume
_smtbx_masks_void_count_electrons
_smtbx_masks_void_content
1 0.000 0.000 0.500 238.5 52.2 ?
2 0.500 0.500 0.000 210.7 47.6 ?
