#------------------------------------------------------------------------------
#$Date: 2023-09-05 22:40:57 +0300 (Tue, 05 Sep 2023) $
#$Revision: 286109 $
#$URL: file:///home/coder/svn-repositories/cod/cif/7/24/70/7247091.cif $
#------------------------------------------------------------------------------
#
# This file is available in the Crystallography Open Database (COD),
# http://www.crystallography.net/
#
# All data on this site have been placed in the public domain by the
# contributors.
#
data_7247091
loop_
_publ_author_name
'Bardina, Elena E.'
'Makotchenko, Eugeniya V.'
'Birin, Kirill P.'
'Baidina, Iraida A.'
'Sukhikh, Taisiya S.'
'Novikov, Alexander S.'
'Gorbunova, Yulia G.'
'Tsivadze, Aslan Yu.'
'Gushchin, Artem L.'
_publ_section_title
;
 Noncovalent interactions in gold(iii)
 tetrakis(4-butoxyphenyl)porphyrinate structures
;
_journal_issue                   33
_journal_name_full               CrystEngComm
_journal_page_first              4755
_journal_page_last               4767
_journal_paper_doi               10.1039/D3CE00428G
_journal_volume                  25
_journal_year                    2023
_chemical_formula_moiety
'2(C60 H60 Au N4 O4), Au Cl2, Au Cl4, 2(C2 H4 O2)'
_chemical_formula_sum            'C124 H128 Au4 Cl6 N8 O12'
_chemical_formula_weight         2922.89
_space_group_crystal_system      triclinic
_space_group_IT_number           2
_space_group_name_Hall           '-P 1'
_space_group_name_H-M_alt        'P -1'
_atom_sites_solution_hydrogens   geom
_atom_sites_solution_primary     direct
_audit_creation_date             2023-04-11
_audit_creation_method
;
Olex2 1.5
(compiled 2023.03.06 svn.rbb2c1857 for OlexSys, GUI svn.r6748)
;
_audit_update_record
;
2023-04-12 deposited with the CCDC.	2023-07-21 downloaded from the CCDC.
;
_cell_angle_alpha                82.428(2)
_cell_angle_beta                 79.383(2)
_cell_angle_gamma                77.623(2)
_cell_formula_units_Z            2
_cell_length_a                   14.4370(7)
_cell_length_b                   18.6296(9)
_cell_length_c                   22.2485(11)
_cell_measurement_reflns_used    9977
_cell_measurement_temperature    150(2)
_cell_measurement_theta_max      27.75
_cell_measurement_theta_min      2.27
_cell_volume                     5718.1(5)
_computing_cell_refinement       'Bruker SAINT'
_computing_data_collection       'Bruker APEX3'
_computing_data_reduction        'Bruker SAINT'
_computing_molecular_graphics    'Olex2 1.5 (Dolomanov et al., 2009)'
_computing_publication_material  'Olex2 1.5 (Dolomanov et al., 2009)'
_computing_structure_refinement  'SHELXL 2014/7 (Sheldrick, 2015)'
_computing_structure_solution    'SHELXS  (Sheldrick, 2008)'
_diffrn_ambient_temperature      150(2)
_diffrn_detector                 PIXEL
_diffrn_detector_area_resol_mean 7.41
_diffrn_detector_type            'Bruker PHOTON III area detector'
_diffrn_measured_fraction_theta_full 0.998
_diffrn_measured_fraction_theta_max 0.995
_diffrn_measurement_device       'three-circle diffractometer'
_diffrn_measurement_device_type  'Bruker D8 Venture diffractometer'
_diffrn_measurement_method       '\w and \f scans'
_diffrn_radiation_monochromator  'Incoatec HELIOS multilayer mirrors'
_diffrn_radiation_type           MoK\a
_diffrn_radiation_wavelength     0.71073
_diffrn_reflns_av_R_equivalents  0.0468
_diffrn_reflns_av_unetI/netI     0.0546
_diffrn_reflns_Laue_measured_fraction_full 0.998
_diffrn_reflns_Laue_measured_fraction_max 0.995
_diffrn_reflns_limit_h_max       18
_diffrn_reflns_limit_h_min       -18
_diffrn_reflns_limit_k_max       22
_diffrn_reflns_limit_k_min       -23
_diffrn_reflns_limit_l_max       27
_diffrn_reflns_limit_l_min       -27
_diffrn_reflns_number            78312
_diffrn_reflns_point_group_measured_fraction_full 0.998
_diffrn_reflns_point_group_measured_fraction_max 0.995
_diffrn_reflns_theta_full        25.242
_diffrn_reflns_theta_max         26.372
_diffrn_reflns_theta_min         1.605
_diffrn_source                   'Incoatec IuS3.0 microfocus X-ray tube'
_diffrn_source_current           1.4
_diffrn_source_power             0.07
_diffrn_source_voltage           50.0
_exptl_absorpt_coefficient_mu    5.321
_exptl_absorpt_correction_T_max  0.7456
_exptl_absorpt_correction_T_min  0.5907
_exptl_absorpt_correction_type   multi-scan
_exptl_absorpt_process_details
;
SADABS-2016/2 (Bruker,2016/2) was used for absorption correction.
wR2(int) was 0.0888 before and 0.0497 after correction.
The Ratio of minimum to maximum transmission is 0.7922.
The \l/2 correction factor is Not present.
;
_exptl_crystal_colour            'dark red'
_exptl_crystal_colour_modifier   dark
_exptl_crystal_colour_primary    red
_exptl_crystal_density_diffrn    1.696
_exptl_crystal_density_method    'not measured'
_exptl_crystal_description       prism
_exptl_crystal_F_000             2880
_exptl_crystal_size_max          0.165
_exptl_crystal_size_mid          0.07
_exptl_crystal_size_min          0.05
_refine_diff_density_max         2.989
_refine_diff_density_min         -3.718
_refine_diff_density_rms         0.148
_refine_ls_extinction_method     none
_refine_ls_goodness_of_fit_ref   1.085
_refine_ls_hydrogen_treatment    constr
_refine_ls_matrix_type           full
_refine_ls_number_parameters     1467
_refine_ls_number_reflns         23303
_refine_ls_number_restraints     146
_refine_ls_restrained_S_all      1.083
_refine_ls_R_factor_all          0.0708
_refine_ls_R_factor_gt           0.0400
_refine_ls_shift/su_max          0.004
_refine_ls_shift/su_mean         0.000
_refine_ls_structure_factor_coef Fsqd
_refine_ls_weighting_details
'w=1/[\s^2^(Fo^2^)+(0.0481P)^2^+2.4701P] where P=(Fo^2^+2Fc^2^)/3'
_refine_ls_weighting_scheme      calc
_refine_ls_wR_factor_gt          0.0911
_refine_ls_wR_factor_ref         0.1006
_reflns_Friedel_coverage         0.000
_reflns_number_gt                17100
_reflns_number_total             23303
_reflns_threshold_expression     'I > 2\s(I)'
_cod_data_source_file            d3ce00428g7.cif
_cod_data_source_block           b_CCDC1
_cod_depositor_comments
'Adding full bibliography for 7247089--7247091.cif.'
_cod_database_code               7247091
_shelx_shelxl_version_number     2014/7
_shelx_space_group_comment
;
The symmetry employed for this shelxl refinement is uniquely defined
by the following loop, which should always be used as a source of
symmetry information in preference to the above space-group names.
They are only intended as comments.
;
_shelx_estimated_absorpt_t_max   0.777
_shelx_estimated_absorpt_t_min   0.474
_olex2_refinement_description
;
1. Fixed Uiso
 At 1.5 times of:
  All C(H,H,H) groups, {H6BC,H6BD} of C6B2, {H7BE,H7BF} of C7B3, {H6BE,H6BF}
  of C6B3, {H8BE,H8BF} of C8B3, {H7BC,H7BD} of C7B2, {H8BA,H8BB} of C8B1, {H8BC,
  H8BD} of C8B2, {H7BA,H7BB} of C7B1, H16 of C16, H22 of C22, H15 of C15, H5C
  of C5C, H13 of C13, H8D of C8D, H25 of C25, H7C of C7C, H6D of C6D, H12 of
  C12, H7D of C7D, H8C of C8C, H26 of C26, H23 of C23, H6C of C6C, H5D of C5D,
  H76 of C76, H72 of C72, H56 of C56, H55 of C55, H42 of C42, H83 of C83, H85
  of C85, H66 of C66, H86 of C86, H65 of C65, H45 of C45, H73 of C73, {H1BA,
  H1BB} of C1B1, H46 of C46, H43 of C43, H53 of C53, H63 of C63, H52 of C52,
  H75 of C75, H62 of C62, H82 of C82, {H1BC,H1BD} of C1B2, {H2BE,H2BF} of C2B3,
  {H1BE,H1BF} of C1B3, {H2BA,H2BB} of C2B1, {H2BC,H2BD} of C2B2, {H4BC,H4BD} of
  C4B2, {H4BE,H4BF} of C4B3, {H5BA,H5BB} of C5B1, {H5BC,H5BD} of C5B2, {H5BE,
  H5BF} of C5B3, {H6BA,H6BB} of C6B1, {H4BA,H4BB} of C4B1, H3D of C3D, H4C of
  C4C, H2C of C2C, H4D of C4D, H2D of C2D, H3C of C3C, H1D of C1D, H1C of C1C
 At 1.2 times of:
  H36A of C36A, H33A of C33A, H35A of C35A, {H17A,H17B} of C17, {H9A,H9B} of
  C9, {H10A,H10B} of C10, H32A of C32A, H35 of C35, H33 of C33, H36 of C36, H32
  of C32, {H3BC,H3BD} of C3B2, {H3BE,H3BF} of C3B3, {H3BA,H3BB} of C3B1
2. Restrained distances
 C34-C3B1 \\sim C34A-C9
 with sigma of 0.04
 C34-O3 \\sim C34A-O3A
 with sigma of 0.02
 C3-C31 \\sim C3-C31A
 with sigma of 0.02
 O3-C3B2 \\sim O3A-C10
 with sigma of 0.04
 C31-C32 \\sim C31A-C32A
 with sigma of 0.02
 C3B2-C3B4 \\sim C10-C18
 with sigma of 0.04
 C33-C35 \\sim C33A-C35A
 with sigma of 0.04
 O3-C3B1 \\sim O3A-C9
 with sigma of 0.02
 C31-C36 \\sim C31A-C36A
 with sigma of 0.02
 C33-O3 \\sim C33A-O3A
 with sigma of 0.04
 C32-C33 \\sim C32A-C33A
 with sigma of 0.02
 C3B2-C3B3 \\sim C10-C17
 with sigma of 0.02
 C33-C34 \\sim C33A-C34A
 with sigma of 0.02
 C35-O3 \\sim C35A-O3A
 with sigma of 0.04
 C3B3-C3B4 \\sim C17-C18
 with sigma of 0.02
 C3B1-C3B3 \\sim C9-C17
 with sigma of 0.04
 C34-C35 \\sim C34A-C35A
 with sigma of 0.02
 C3B1-C3B2 \\sim C9-C10
 with sigma of 0.02
 C35-C36 \\sim C35A-C36A
 with sigma of 0.02
 C34-C36 \\sim C34A-C36A
 with sigma of 0.04
 C3-C32 \\sim C3-C32A
 with sigma of 0.04
 C3-C36 \\sim C3-C36A
 with sigma of 0.04
 C31-C33 \\sim C31A-C33A
 with sigma of 0.04
 C31-C35 \\sim C31A-C35A
 with sigma of 0.04
 C32-C34 \\sim C32A-C34A
 with sigma of 0.04
 C32-C36 \\sim C32A-C36A
 with sigma of 0.04
3. Restrained planarity
 C33A, C34A, C35A, C36A, C31A, C32A
 with sigma of 0.1
4. Uiso/Uaniso restraints and constraints
Uanis(C36A) \\sim Ueq, Uanis(C35A) \\sim Ueq: with sigma of 0.01 and sigma for
terminal atoms of 0.02
Uiso(O3A) = Uiso(C9) = Uiso(C10) = Uiso(C17) = Uiso(C18)
5. Rigid body (RIGU) restrains
 C31, C32, C33, C34, C35, C36, O3, C3B1, C3B2, C3B3, C3B4
 with sigma for 1-2 distances of 0.004 and sigma for 1-3 distances of 0.004
 C33A, C34A, C35A, C36A, C31A, C32A
 with sigma for 1-2 distances of 0.004 and sigma for 1-3 distances of 0.004
6. Others
 Sof(C33A)=Sof(H33A)=Sof(C34A)=Sof(C35A)=Sof(H35A)=Sof(C36A)=Sof(H36A)=
 Sof(O3A)=Sof(C9)=Sof(H9A)=Sof(H9B)=Sof(C10)=Sof(H10A)=Sof(H10B)=Sof(C17)=
 Sof(H17A)=Sof(H17B)=Sof(C18)=Sof(H18A)=Sof(H18B)=Sof(H18C)=Sof(C31A)=Sof(C32A)=
 Sof(H32A)=1-FVAR(1)
 Sof(C31)=Sof(C32)=Sof(H32)=Sof(C33)=Sof(H33)=Sof(C34)=Sof(C35)=Sof(H35)=
 Sof(C36)=Sof(H36)=Sof(O3)=Sof(C3B1)=Sof(H3BA)=Sof(H3BB)=Sof(C3B2)=Sof(H3BC)=
 Sof(H3BD)=Sof(C3B3)=Sof(H3BE)=Sof(H3BF)=Sof(C3B4)=Sof(H3BG)=Sof(H3BH)=
 Sof(H3BI)=FVAR(1)
7.a Secondary CH2 refined with riding coordinates:
 C1B1(H1BA,H1BB), C1B2(H1BC,H1BD), C1B3(H1BE,H1BF), C2B1(H2BA,H2BB), C2B2(H2BC,
 H2BD), C2B3(H2BE,H2BF), C3B1(H3BA,H3BB), C3B2(H3BC,H3BD), C3B3(H3BE,H3BF),
 C4B1(H4BA,H4BB), C4B2(H4BC,H4BD), C4B3(H4BE,H4BF), C5B1(H5BA,H5BB), C5B2(H5BC,
 H5BD), C5B3(H5BE,H5BF), C6B1(H6BA,H6BB), C6B2(H6BC,H6BD), C6B3(H6BE,H6BF),
 C7B1(H7BA,H7BB), C7B2(H7BC,H7BD), C7B3(H7BE,H7BF), C8B1(H8BA,H8BB), C8B2(H8BC,
 H8BD), C8B3(H8BE,H8BF), C9(H9A,H9B), C10(H10A,H10B), C17(H17A,H17B)
7.b Me refined with riding coordinates:
 C3B4(H3BG,H3BH,H3BI), C18(H18A,H18B,H18C)
7.c Aromatic/amide H refined with riding coordinates:
 C1D(H1D), C1C(H1C), C2C(H2C), C2D(H2D), C3C(H3C), C3D(H3D), C4C(H4C),
 C4D(H4D), C5C(H5C), C5D(H5D), C6C(H6C), C6D(H6D), C7C(H7C), C7D(H7D), C8C(H8C),
  C8D(H8D), C12(H12), C13(H13), C15(H15), C16(H16), C22(H22), C23(H23),
 C25(H25), C26(H26), C32(H32), C33(H33), C35(H35), C36(H36), C42(H42), C43(H43),
  C45(H45), C46(H46), C52(H52), C53(H53), C55(H55), C56(H56), C62(H62),
 C63(H63), C65(H65), C66(H66), C72(H72), C73(H73), C75(H75), C76(H76), C82(H82),
  C83(H83), C85(H85), C86(H86), C33A(H33A), C35A(H35A), C36A(H36A), C32A(H32A)
7.d Idealised Me refined as rotating group:
 C1B4(H1BG,H1BH,H1BI), C2B4(H2BG,H2BH,H2BI), C4B4(H4BG,H4BH,H4BI), C5B4(H5BG,
 H5BH,H5BI), C6B4(H6BG,H6BH,H6BI), C7B4(H7BG,H7BH,H7BI), C8B4(H8BG,H8BH,H8BI),
 C2U(H2UA,H2UB,H2UC), C4U(H4UA,H4UB,H4UC)
;
_shelx_res_file
;
    b.res created by SHELXL-2014/7

TITL b in P-1
CELL 0.71073 14.437 18.6296 22.2485 82.428 79.383 77.623
ZERR 2 0.0007 0.0009 0.0011 0.002 0.002 0.002
LATT 1
SFAC C H Au Cl N O
UNIT 248 252 8 12 16 24
SADI 0.04 C34 C3B1 C34A C9
RIGU C31 C32 C33 C34 C35 C36 O3 C3B1 C3B2 C3B3 C3B4
SADI C34 O3 C34A O3A
SADI C3 C31 C3 C31A
SADI 0.04 O3 C3B2 O3A C10
SADI C31 C32 C31A C32A
SADI 0.04 C3B2 C3B4 C10 C18
SADI 0.04 C33 C35 C33A C35A
SADI O3 C3B1 O3A C9
SADI C31 C36 C31A C36A
SADI 0.04 C33 O3 C33A O3A
SADI C32 C33 C32A C33A
SADI C3B2 C3B3 C10 C17
SADI C33 C34 C33A C34A
SADI 0.04 C35 O3 C35A O3A
SADI C3B3 C3B4 C17 C18
SADI 0.04 C3B1 C3B3 C9 C17
SADI C34 C35 C34A C35A
SADI C3B1 C3B2 C9 C10
SADI C35 C36 C35A C36A
SADI 0.04 C34 C36 C34A C36A
SADI 0.04 C3 C32 C3 C32A
SADI 0.04 C3 C36 C3 C36A
SADI 0.04 C31 C33 C31A C33A
SADI 0.04 C31 C35 C31A C35A
SADI 0.04 C32 C34 C32A C34A
SADI 0.04 C32 C36 C32A C36A
FLAT C33A C34A C35A C36A C31A C32A
RIGU C33A C34A C35A C36A C31A C32A
ISOR 0.01 0.02 C36A C35A
EADP O3A C9 C10 C17 C18

L.S. 6
PLAN  17
SIZE 0.05 0.07 0.165
TEMP -123(2)
CONF
BOND
MORE -1
BOND $H
fmap 2
acta
MERG 2
SHEL 999 0.8
OMIT 0 180
OMIT 1 1 0
OMIT 0 -1 1
OMIT -1 0 1
OMIT 1 0 0
OMIT 0 0 2
OMIT -1 1 0
REM <olex2.extras>
REM <HklSrc "%.\\b.hkl">
REM </olex2.extras>

WGHT    0.048100    2.470100
FVAR       0.05745   0.68788
AU1   3   -0.003908    0.404808    0.427264    11.00000    0.02080    0.02593 =
         0.02039   -0.00038   -0.00508   -0.00083
AU2   3   -0.503875    1.083390    0.074680    11.00000    0.02297    0.02406 =
         0.02259   -0.00012   -0.00640   -0.00363
AU4   3   -0.224237    0.751828    0.233782    11.00000    0.03050    0.04653 =
         0.04229    0.01385   -0.01124   -0.00442
AU3   3   -0.711853    1.138412    0.196438    11.00000    0.04622    0.05969 =
         0.04451   -0.02268   -0.00073   -0.00324
CL1   4   -0.725976    1.041726    0.269125    11.00000    0.11120    0.05514 =
         0.07515   -0.01101   -0.00333   -0.01255
CL2   4   -0.582094    1.154996    0.233431    11.00000    0.04474    0.09476 =
         0.07983   -0.04751   -0.00528    0.00154
CL3   4   -0.839782    1.122721    0.158005    11.00000    0.06802    0.18151 =
         0.06937   -0.05130   -0.01001   -0.03819
CL4   4   -0.696112    1.236978    0.125641    11.00000    0.09983    0.07722 =
         0.05089   -0.01264    0.01636   -0.00106
CL5   4   -0.225267    0.666490    0.170611    11.00000    0.05024    0.05288 =
         0.05189    0.00724   -0.02242   -0.00270
CL6   4   -0.219322    0.835029    0.297781    11.00000    0.04734    0.05156 =
         0.05033    0.00916   -0.01969   -0.00586
N1    5    0.064774    0.343240    0.493574    11.00000    0.02594    0.02409 =
         0.02009   -0.00403   -0.00598   -0.00059
N2    5   -0.106540    0.453353    0.492834    11.00000    0.02039    0.02723 =
         0.02578   -0.00214   -0.00647   -0.00143
N4    5    0.098910    0.356785    0.362656    11.00000    0.02577    0.03090 =
         0.02191    0.00312   -0.00832   -0.00057
N3    5   -0.073674    0.465257    0.360838    11.00000    0.02580    0.02920 =
         0.01854   -0.00230   -0.00212   -0.00103
N5    5   -0.445838    1.020492    0.144818    11.00000    0.02299    0.02414 =
         0.02430    0.00045   -0.00834   -0.00648
N7    5   -0.563664    1.147541    0.006160    11.00000    0.02320    0.02684 =
         0.02487   -0.00273   -0.00662   -0.00384
N6    5   -0.408992    1.150329    0.068538    11.00000    0.02960    0.03119 =
         0.02452   -0.00229   -0.01069   -0.00208
N8    5   -0.596026    1.014110    0.079588    11.00000    0.02764    0.03259 =
         0.02036    0.00404   -0.00809   -0.00784
C1    1   -0.048558    0.385112    0.586319    11.00000    0.02289    0.02957 =
         0.02672   -0.00085   -0.00709   -0.00512
C1A   1    0.027749    0.337030    0.556356    11.00000    0.02712    0.02589 =
         0.01953    0.00286   -0.00668   -0.00588
C1B   1    0.146033    0.288513    0.484444    11.00000    0.01899    0.03224 =
         0.02581   -0.00532   -0.00884    0.00259
C1D   1    0.160415    0.247437    0.541747    11.00000    0.02336    0.03186 =
         0.02776    0.00004   -0.00978    0.00066
AFIX  43
H1D   2    0.211679    0.207339    0.548471    11.00000   -1.50000
AFIX   0
C1C   1    0.088209    0.275781    0.584551    11.00000    0.02928    0.03168 =
         0.02265    0.00097   -0.00594   -0.00042
AFIX  43
H1C   2    0.078808    0.257977    0.626810    11.00000   -1.50000
AFIX   0
C2    1   -0.212679    0.536020    0.425756    11.00000    0.02054    0.02627 =
         0.02530    0.00289   -0.00435   -0.00183
C2A   1   -0.107280    0.442443    0.555782    11.00000    0.02227    0.02909 =
         0.02064    0.00110   -0.00372   -0.00442
C2B   1   -0.181763    0.511494    0.482315    11.00000    0.02332    0.02355 =
         0.02980   -0.00066   -0.00346   -0.00440
C2C   1   -0.181348    0.496055    0.583858    11.00000    0.02406    0.02944 =
         0.02189    0.00049   -0.00492   -0.00128
AFIX  43
H2C   2   -0.196953    0.501479    0.626615    11.00000   -1.50000
AFIX   0
C2D   1   -0.226298    0.538370    0.539520    11.00000    0.02167    0.02647 =
         0.03313   -0.00448   -0.00417    0.00164
AFIX  43
H2D   2   -0.278490    0.578938    0.545597    11.00000   -1.50000
AFIX   0
C3    1    0.037170    0.420549    0.268976    11.00000    0.03320    0.03452 =
         0.02320    0.00154   -0.00339   -0.00414
C3A   1   -0.163764    0.510719    0.370690    11.00000    0.02283    0.02426 =
         0.02576    0.00178   -0.00622   -0.00132
C3B   1   -0.047950    0.460133    0.298280    11.00000    0.02885    0.03202 =
         0.02234   -0.00051   -0.00798    0.00256
C3C   1   -0.194213    0.532630    0.311670    11.00000    0.02990    0.03638 =
         0.02481   -0.00201   -0.01018    0.00129
AFIX  43
H3C   2   -0.253948    0.562797    0.304667    11.00000   -1.50000
AFIX   0
C3D   1   -0.124120    0.503300    0.268408    11.00000    0.03520    0.04138 =
         0.02548   -0.00133   -0.01261    0.00593
AFIX  43
H3D   2   -0.124826    0.509976    0.225408    11.00000   -1.50000
AFIX   0
C4    1    0.205251    0.274059    0.429185    11.00000    0.02507    0.03501 =
         0.02873   -0.00489   -0.00690   -0.00105
C4A   1    0.105377    0.373087    0.299446    11.00000    0.03143    0.03344 =
         0.01513   -0.00381    0.00293   -0.00217
C4B   1    0.181737    0.307939    0.372478    11.00000    0.02405    0.03424 =
         0.02492   -0.00622   -0.00319    0.00130
C4C   1    0.195205    0.334771    0.270743    11.00000    0.03363    0.04941 =
         0.01975   -0.00203   -0.00488    0.00221
AFIX  43
H4C   2    0.218115    0.336987    0.227811    11.00000   -1.50000
AFIX   0
C4D   1    0.242408    0.294729    0.314788    11.00000    0.02903    0.04839 =
         0.02826   -0.00608   -0.00866    0.00236
AFIX  43
H4D   2    0.304141    0.263670    0.308728    11.00000   -1.50000
AFIX   0

C5    1   -0.328932    1.095128    0.156925    11.00000    0.02831    0.02772 =
         0.03578    0.00149   -0.01110   -0.00147
C5A   1   -0.380414    1.039476    0.175708    11.00000    0.02336    0.02772 =
         0.03187   -0.00545   -0.01332    0.00135
C5B   1   -0.475464    0.958821    0.177245    11.00000    0.02074    0.02841 =
         0.02417   -0.00220   -0.00456   -0.00402
C5C   1   -0.370329    0.987463    0.228106    11.00000    0.03248    0.03341 =
         0.02991   -0.00265   -0.01469   -0.00461
AFIX  43
H5C   2   -0.330082    0.987444    0.257421    11.00000   -1.50000
AFIX   0
C5D   1   -0.426694    0.938468    0.229516    11.00000    0.03054    0.03312 =
         0.02796    0.00110   -0.01012   -0.00460
AFIX  43
H5D   2   -0.433175    0.897813    0.259535    11.00000   -1.50000
AFIX   0
C6    1   -0.461153    1.241439   -0.015273    11.00000    0.03727    0.02822 =
         0.02942   -0.00164   -0.00705   -0.00657
C6A   1   -0.337931    1.142483    0.104571    11.00000    0.02540    0.03257 =
         0.04352    0.00328   -0.01233   -0.00870
C6B   1   -0.395869    1.208261    0.024408    11.00000    0.03787    0.03152 =
         0.02500    0.00485   -0.00374   -0.01679
C6C   1   -0.278444    1.194117    0.079476    11.00000    0.04723    0.04288 =
         0.05304    0.00732   -0.01999   -0.02348
AFIX  43
H6C   2   -0.223994    1.200339    0.095096    11.00000   -1.50000
AFIX   0
C6D   1   -0.312043    1.232940    0.029724    11.00000    0.04537    0.05082 =
         0.04356    0.00951   -0.01343   -0.02310
AFIX  43
H6D   2   -0.284528    1.269892    0.003265    11.00000   -1.50000
AFIX   0
C7    1   -0.693166    1.081349    0.001325    11.00000    0.02626    0.03552 =
         0.02101   -0.00535   -0.00480   -0.00677
C7A   1   -0.541290    1.215003   -0.020538    11.00000    0.03725    0.02274 =
         0.02128    0.00622   -0.00542   -0.00940
C7B   1   -0.648463    1.142118   -0.012332    11.00000    0.02911    0.02893 =
         0.02107   -0.00057   -0.00790   -0.00154
C7C   1   -0.615677    1.252377   -0.054324    11.00000    0.03325    0.02730 =
         0.03256    0.00373   -0.01078   -0.00010
AFIX  43
H7C   2   -0.618685    1.299684   -0.076708    11.00000   -1.50000
AFIX   0
C7D   1   -0.680698    1.208924   -0.048921    11.00000    0.03335    0.02756 =
         0.02863    0.00217   -0.01031    0.00035
AFIX  43
H7D   2   -0.738064    1.220528   -0.066350    11.00000   -1.50000
AFIX   0
C8    1   -0.539554    0.921606    0.161682    11.00000    0.02599    0.02025 =
         0.03011   -0.00277   -0.00618   -0.00223
C8A   1   -0.663855    1.020117    0.041392    11.00000    0.02776    0.03009 =
         0.02212    0.00215   -0.01034   -0.00452
C8B   1   -0.592937    0.946756    0.113991    11.00000    0.02400    0.02165 =
         0.02694    0.00021   -0.00684   -0.00629
C8C   1   -0.701954    0.954809    0.051925    11.00000    0.02279    0.02831 =
         0.02615   -0.00387   -0.01128   -0.00345
AFIX  43
H8C   2   -0.749665    0.944631    0.031814    11.00000   -1.50000
AFIX   0
C8D   1   -0.658586    0.909237    0.095700    11.00000    0.02865    0.02498 =
         0.03097   -0.00033   -0.00616   -0.00354
AFIX  43
H8D   2   -0.669683    0.861319    0.111335    11.00000   -1.50000
AFIX   0

C11   1   -0.068557    0.372793    0.654660    11.00000    0.02630    0.02561 =
         0.02293   -0.00346   -0.00686    0.00235
C12   1   -0.157734    0.360193    0.686590    11.00000    0.02449    0.03964 =
         0.02512   -0.00178   -0.00608   -0.00510
AFIX  43
H12   2   -0.210040    0.365329    0.664934    11.00000   -1.50000
AFIX   0
C13   1   -0.170303    0.340563    0.748650    11.00000    0.02578    0.04671 =
         0.02822   -0.00429    0.00009   -0.01005
AFIX  43
H13   2   -0.231284    0.332368    0.769538    11.00000   -1.50000
AFIX   0
C14   1   -0.094442    0.332429    0.781668    11.00000    0.03253    0.03873 =
         0.02411   -0.00205   -0.00674   -0.00767
C15   1   -0.006983    0.347370    0.751024    11.00000    0.03164    0.03679 =
         0.02369    0.00049   -0.00888   -0.00736
AFIX  43
H15   2    0.044508    0.343970    0.773046    11.00000   -1.50000
AFIX   0
C16   1    0.005243    0.367107    0.688773    11.00000    0.02201    0.03187 =
         0.02759   -0.00033   -0.00709   -0.00278
AFIX  43
H16   2    0.065601    0.377169    0.668358    11.00000   -1.50000
AFIX   0
C21   1   -0.302092    0.593710    0.424491    11.00000    0.02487    0.03230 =
         0.01947    0.00209   -0.00680   -0.00238
C22   1   -0.390079    0.582792    0.457555    11.00000    0.03271    0.04162 =
         0.02776    0.00396   -0.00770   -0.00692
AFIX  43
H22   2   -0.394368    0.537042    0.481370    11.00000   -1.50000
AFIX   0
C23   1   -0.472376    0.637813    0.456449    11.00000    0.02444    0.04653 =
         0.03254   -0.00399   -0.00494   -0.00307
AFIX  43
H23   2   -0.532048    0.629538    0.479518    11.00000   -1.50000
AFIX   0
C24   1   -0.466851    0.704792    0.421500    11.00000    0.02115    0.03872 =
         0.03154   -0.00526   -0.01183    0.00283
C25   1   -0.379858    0.716478    0.388474    11.00000    0.03064    0.02695 =
         0.02742    0.00046   -0.01086    0.00593
AFIX  43
H25   2   -0.375659    0.762233    0.364648    11.00000   -1.50000
AFIX   0
C26   1   -0.298510    0.661454    0.390034    11.00000    0.02291    0.03380 =
         0.02759   -0.00198   -0.00296   -0.00489
AFIX  43
H26   2   -0.238938    0.670123    0.367083    11.00000   -1.50000
AFIX   0
PART 1
C31   1    0.054281    0.426549    0.199512    21.00000    0.02803    0.03643 =
         0.01932    0.00285   -0.00623    0.00923
C32   1    0.058539    0.494357    0.168334    21.00000    0.07716    0.03903 =
         0.02685    0.00275    0.01012    0.00293
AFIX  43
H32   2    0.044584    0.536161    0.191091    21.00000   -1.20000
AFIX   0
C33   1    0.082354    0.504845    0.104887    21.00000    0.10740    0.05751 =
         0.02574    0.00704    0.01062    0.00762
AFIX  43
H33   2    0.080713    0.553080    0.084416    21.00000   -1.20000
AFIX   0
C34   1    0.107873    0.445030    0.072949    21.00000    0.06774    0.06376 =
         0.02621    0.00106   -0.00010    0.00975
C35   1    0.101719    0.376620    0.101563    21.00000    0.05639    0.05669 =
         0.02732   -0.00970   -0.00932    0.01325
AFIX  43
H35   2    0.114645    0.335605    0.077977    21.00000   -1.20000
AFIX   0
C36   1    0.076679    0.366278    0.165006    21.00000    0.03359    0.04501 =
         0.02842   -0.00831   -0.00793    0.00699
AFIX  43
H36   2    0.074856    0.318082    0.184803    21.00000   -1.20000
AFIX   0
PART 0
C41   1    0.296721    0.219366    0.429598    11.00000    0.02355    0.03390 =
         0.02434   -0.00529   -0.00487    0.00715
C42   1    0.368615    0.232071    0.458912    11.00000    0.02739    0.03120 =
         0.03067   -0.01079   -0.00679    0.00415
AFIX  43
H42   2    0.358773    0.276288    0.478160    11.00000   -1.50000
AFIX   0
C43   1    0.453503    0.181634    0.460403    11.00000    0.03002    0.03981 =
         0.03202   -0.00647   -0.01063   -0.00059
AFIX  43
H43   2    0.501565    0.191082    0.480602    11.00000   -1.50000
AFIX   0
C44   1    0.468550    0.116763    0.432183    11.00000    0.02742    0.04530 =
         0.02256   -0.00936   -0.00404    0.00738
C45   1    0.398154    0.102952    0.402613    11.00000    0.03525    0.03850 =
         0.03471   -0.01585   -0.01081    0.00450
AFIX  43
H45   2    0.408264    0.058725    0.383342    11.00000   -1.50000
AFIX   0
C46   1    0.313189    0.154183    0.401479    11.00000    0.02887    0.04537 =
         0.03344   -0.00849   -0.01357    0.00247
AFIX  43
H46   2    0.265260    0.144726    0.381168    11.00000   -1.50000
AFIX   0

C51   1   -0.263580    1.106771    0.198237    11.00000    0.03875    0.02669 =
         0.03895   -0.00113   -0.01965   -0.00938
C52   1   -0.164536    1.091570    0.184652    11.00000    0.03461    0.03245 =
         0.05506   -0.00713   -0.01689   -0.00351
AFIX  43
H52   2   -0.134970    1.070746    0.147414    11.00000   -1.50000
AFIX   0
C53   1   -0.106922    1.105415    0.222971    11.00000    0.03570    0.04036 =
         0.06240   -0.01407   -0.01776   -0.00531
AFIX  43
H53   2   -0.038907    1.095162    0.212353    11.00000   -1.50000
AFIX   0
C54   1   -0.151770    1.135085    0.278085    11.00000    0.04207    0.02851 =
         0.05885    0.00024   -0.03165   -0.01115
C55   1   -0.250780    1.151810    0.292696    11.00000    0.03713    0.03496 =
         0.04298   -0.00433   -0.01896   -0.00769
AFIX  43
H55   2   -0.280487    1.173088    0.329717    11.00000   -1.50000
AFIX   0
C56   1   -0.306073    1.137330    0.253042    11.00000    0.03408    0.02912 =
         0.04702    0.00080   -0.01918   -0.00609
AFIX  43
H56   2   -0.374126    1.148342    0.263220    11.00000   -1.50000
AFIX   0
C61   1   -0.441203    1.310666   -0.053412    11.00000    0.03980    0.03529 =
         0.02843    0.00468   -0.01069   -0.01201
C62   1   -0.433928    1.371149   -0.025924    11.00000    0.08871    0.04657 =
         0.04085    0.00030   -0.01950   -0.02953
AFIX  43
H62   2   -0.447407    1.370314    0.017572    11.00000   -1.50000
AFIX   0
C63   1   -0.406932    1.433828   -0.061242    11.00000    0.11983    0.04235 =
         0.06377    0.00661   -0.03306   -0.04293
AFIX  43
H63   2   -0.401314    1.474790   -0.041798    11.00000   -1.50000
AFIX   0
C64   1   -0.388479    1.435346   -0.125051    11.00000    0.07614    0.05376 =
         0.06622    0.02366   -0.02839   -0.03233
C65   1   -0.399857    1.376388   -0.151812    11.00000    0.04876    0.04178 =
         0.03494    0.00968   -0.00885   -0.00672
AFIX  43
H65   2   -0.390485    1.378187   -0.195342    11.00000   -1.50000
AFIX   0
C66   1   -0.424440    1.314928   -0.117184    11.00000    0.02908    0.03896 =
         0.03810    0.00363   -0.00719   -0.00662
AFIX  43
H66   2   -0.430158    1.274391   -0.137126    11.00000   -1.50000
AFIX   0
C71   1   -0.776621    1.082085   -0.029967    11.00000    0.03219    0.02825 =
         0.03252    0.00179   -0.01418   -0.00482
C72   1   -0.767116    1.092799   -0.093822    11.00000    0.02753    0.03351 =
         0.03139   -0.00011   -0.00809   -0.00472
AFIX  43
H72   2   -0.706678    1.099038   -0.116990    11.00000   -1.50000
AFIX   0
C73   1   -0.842631    1.094661   -0.124610    11.00000    0.03293    0.03803 =
         0.03049    0.00155   -0.01367   -0.00805
AFIX  43
H73   2   -0.834215    1.102399   -0.168181    11.00000   -1.50000
AFIX   0
C74   1   -0.930327    1.085132   -0.091212    11.00000    0.02839    0.03847 =
         0.03695    0.00091   -0.01389   -0.00822
C75   1   -0.942727    1.075010   -0.026887    11.00000    0.02718    0.04054 =
         0.03991    0.00310   -0.00745   -0.01145
AFIX  43
H75   2   -1.003620    1.069618   -0.003942    11.00000   -1.50000
AFIX   0
C76   1   -0.866173    1.072873    0.003214    11.00000    0.03201    0.03142 =
         0.03271    0.00531   -0.00992   -0.00464
AFIX  43
H76   2   -0.874570    1.065082    0.046782    11.00000   -1.50000
AFIX   0
C81   1   -0.552490    0.850616    0.199228    11.00000    0.02204    0.02695 =
         0.02633   -0.00385   -0.00943   -0.00570
C82   1   -0.642212    0.839793    0.230686    11.00000    0.02538    0.02967 =
         0.02868   -0.00493   -0.00769   -0.00325
AFIX  43
H82   2   -0.696918    0.878166    0.227996    11.00000   -1.50000
AFIX   0
C83   1   -0.652740    0.773946    0.265784    11.00000    0.03084    0.03183 =
         0.03155   -0.00250   -0.00261   -0.01037
AFIX  43
H83   2   -0.714455    0.767542    0.286677    11.00000   -1.50000
AFIX   0
C84   1   -0.573361    0.717083    0.270613    11.00000    0.03379    0.02738 =
         0.02608   -0.00066   -0.00587   -0.00647
C85   1   -0.483601    0.726474    0.240225    11.00000    0.02552    0.02492 =
         0.03002    0.00261   -0.00854   -0.00145
AFIX  43
H85   2   -0.429003    0.688134    0.243430    11.00000   -1.50000
AFIX   0
C86   1   -0.473968    0.793339    0.204541    11.00000    0.02509    0.03046 =
         0.02643   -0.00129   -0.00503   -0.00509
AFIX  43
H86   2   -0.412268    0.799592    0.183509    11.00000   -1.50000
AFIX   0

O1    6   -0.113019    0.311362    0.843206    11.00000    0.03691    0.06411 =
         0.02127    0.00106   -0.00199   -0.01443
C1B1  1   -0.033391    0.297754    0.876797    11.00000    0.05085    0.04495 =
         0.02659    0.00752   -0.01843   -0.01112
AFIX  23
H1BA  2   -0.004210    0.342095    0.871854    11.00000   -1.50000
H1BB  2    0.016420    0.256115    0.861132    11.00000   -1.50000
AFIX   0
C1B2  1   -0.071689    0.279411    0.943489    11.00000    0.04432    0.04913 =
         0.03138    0.00180   -0.00614   -0.01051
AFIX  23
H1BC  2   -0.095252    0.232494    0.948444    11.00000   -1.50000
H1BD  2   -0.126426    0.318802    0.957416    11.00000   -1.50000
AFIX   0
C1B3  1    0.006886    0.272061    0.982949    11.00000    0.06401    0.05711 =
         0.02830    0.01145   -0.01561   -0.01964
AFIX  23
H1BE  2    0.028837    0.319549    0.978963    11.00000   -1.50000
H1BF  2    0.062536    0.233962    0.967925    11.00000   -1.50000
AFIX   0
C1B4  1   -0.029979    0.250665    1.050964    11.00000    0.08395    0.09697 =
         0.03703    0.01797   -0.01723   -0.02801
AFIX 137
H1BG  2   -0.081835    0.290150    1.066776    11.00000   -1.50000
H1BH  2    0.022733    0.243447    1.074659    11.00000   -1.50000
H1BI  2   -0.054316    0.204768    1.054780    11.00000   -1.50000
AFIX   0
O2    6   -0.550848    0.756018    0.423482    11.00000    0.02629    0.04138 =
         0.04761   -0.00825   -0.01390    0.00601
C2B1  1   -0.547271    0.825209    0.387936    11.00000    0.04074    0.03132 =
         0.05346   -0.00368   -0.01803    0.00429
AFIX  23
H2BA  2   -0.520293    0.816955    0.344597    11.00000   -1.50000
H2BB  2   -0.505014    0.851230    0.403678    11.00000   -1.50000
AFIX   0
C2B2  1   -0.648486    0.872454    0.391687    11.00000    0.05128    0.05827 =
         0.05786   -0.01044   -0.02123    0.00669
AFIX  23
H2BC  2   -0.645951    0.917248    0.362535    11.00000   -1.50000
H2BD  2   -0.690562    0.844300    0.378166    11.00000   -1.50000
AFIX   0
C2B3  1   -0.691681    0.895037    0.452085    11.00000    0.05772    0.06093 =
         0.06640   -0.00600   -0.02093    0.00869
AFIX  23
H2BE  2   -0.649852    0.922098    0.467118    11.00000   -1.50000
H2BF  2   -0.699622    0.851120    0.481407    11.00000   -1.50000
AFIX   0
C2B4  1   -0.792385    0.946317    0.447207    11.00000    0.05006    0.11180 =
         0.13767   -0.06341    0.00240    0.01293
AFIX 137
H2BG  2   -0.784823    0.986439    0.414578    11.00000   -1.50000
H2BH  2   -0.819034    0.967124    0.486406    11.00000   -1.50000
H2BI  2   -0.836047    0.917340    0.437597    11.00000   -1.50000
AFIX   0
PART 1
O3    6    0.133759    0.449467    0.009761    21.00000    0.10508    0.08474 =
         0.02315    0.00337    0.00647    0.03215
C3B1  1    0.138110    0.521822   -0.022391    21.00000    0.11826    0.09384 =
         0.05752    0.02250    0.01308    0.04010
AFIX  23
H3BA  2    0.172331    0.548384   -0.000607    21.00000   -1.20000
H3BB  2    0.072162    0.550803   -0.022900    21.00000   -1.20000
AFIX   0
C3B2  1    0.190047    0.514772   -0.087881    21.00000    0.10357    0.11872 =
         0.04391    0.01652    0.00850    0.02266
AFIX  23
H3BC  2    0.182274    0.564443   -0.110746    21.00000   -1.20000
H3BD  2    0.158732    0.483974   -0.107728    21.00000   -1.20000
AFIX   0
C3B3  1    0.298767    0.480675   -0.093810    21.00000    0.08782    0.05378 =
         0.05591   -0.02536   -0.00345    0.00176
AFIX  23
H3BE  2    0.330398    0.507236   -0.070299    21.00000   -1.20000
H3BF  2    0.308046    0.428147   -0.077095    21.00000   -1.20000
AFIX   0
C3B4  1    0.342642    0.487140   -0.161571    21.00000    0.07896    0.12223 =
         0.06291   -0.02474   -0.00829   -0.00761
AFIX  33
H3BG  2    0.411498    0.465813   -0.166192    21.00000   -1.50000
H3BH  2    0.311186    0.460471   -0.184438    21.00000   -1.50000
H3BI  2    0.333463    0.539293   -0.177665    21.00000   -1.50000
AFIX   0
PART 0
O4    6    0.554611    0.069111    0.437084    11.00000    0.03205    0.04516 =
         0.04383   -0.01424   -0.01322    0.01282
C4B1  1    0.570155   -0.001533    0.412628    11.00000    0.04130    0.03467 =
         0.04769   -0.01002   -0.00718    0.00153
AFIX  23
H4BA  2    0.566495    0.005579    0.368178    11.00000   -1.50000
H4BB  2    0.520885   -0.029880    0.433913    11.00000   -1.50000
AFIX   0
C4B2  1    0.667903   -0.041584    0.423178    11.00000    0.03542    0.02983 =
         0.04544    0.00299   -0.00341    0.00957
AFIX  23
H4BC  2    0.679570   -0.091534    0.409239    11.00000   -1.50000
H4BD  2    0.670050   -0.047493    0.467808    11.00000   -1.50000
AFIX   0
C4B3  1    0.747703   -0.002350    0.389950    11.00000    0.03962    0.04076 =
         0.04289   -0.00387   -0.00845    0.00417
AFIX  23
H4BE  2    0.737215    0.046959    0.404921    11.00000   -1.50000
H4BF  2    0.744152    0.005075    0.345483    11.00000   -1.50000
AFIX   0
C4B4  1    0.849021   -0.044912    0.399066    11.00000    0.03599    0.06066 =
         0.08722   -0.01850   -0.00290    0.00185
AFIX 137
H4BG  2    0.854174   -0.050471    0.442813    11.00000   -1.50000
H4BH  2    0.897170   -0.017505    0.375894    11.00000   -1.50000
H4BI  2    0.860090   -0.093800    0.384284    11.00000   -1.50000
AFIX   0

O5    6   -0.103718    1.151049    0.320972    11.00000    0.03998    0.05604 =
         0.07058   -0.02099   -0.02723   -0.00925
C5B1  1   -0.000361    1.135990    0.308224    11.00000    0.04315    0.07519 =
         0.08281   -0.03303   -0.03320   -0.00255
AFIX  23
H5BA  2    0.022839    1.165308    0.270148    11.00000   -1.50000
H5BB  2    0.024678    1.082945    0.303291    11.00000   -1.50000
AFIX   0
C5B2  1    0.032015    1.157990    0.363527    11.00000    0.05215    0.05529 =
         0.09118   -0.02283   -0.04180   -0.00691
AFIX  23
H5BC  2    0.103120    1.147593    0.357442    11.00000   -1.50000
H5BD  2    0.009831    1.211840    0.365595    11.00000   -1.50000
AFIX   0
C5B3  1   -0.005270    1.118145    0.424311    11.00000    0.08148    0.07376 =
         0.09009    0.00247   -0.05416   -0.02440
AFIX  23
H5BE  2   -0.076133    1.125430    0.429255    11.00000   -1.50000
H5BF  2    0.021084    1.064561    0.423755    11.00000   -1.50000
AFIX   0
C5B4  1    0.022100    1.145555    0.478716    11.00000    0.09818    0.12316 =
         0.08969   -0.00189   -0.06793   -0.03624
AFIX 137
H5BG  2    0.092146    1.134215    0.476051    11.00000   -1.50000
H5BH  2   -0.007317    1.121074    0.516974    11.00000   -1.50000
H5BI  2   -0.000871    1.199060    0.478222    11.00000   -1.50000
AFIX   0
O6    6   -0.355808    1.490554   -0.164105    11.00000    0.13386    0.07323 =
         0.08230    0.03997   -0.02611   -0.05918
C6B1  1   -0.343897    1.556505   -0.141021    11.00000    0.23345    0.12176 =
         0.13057    0.05738   -0.08433   -0.13441
AFIX  23
H6BA  2   -0.325095    1.544577   -0.099709    11.00000   -1.50000
H6BB  2   -0.293328    1.578579   -0.168831    11.00000   -1.50000
AFIX   0
C6B2  1   -0.433273    1.606197   -0.138119    11.00000    0.16119    0.09996 =
         0.08869   -0.03323   -0.01909   -0.04799
AFIX  23
H6BC  2   -0.430294    1.648253   -0.116061    11.00000   -1.50000
H6BD  2   -0.483465    1.580820   -0.113554    11.00000   -1.50000
AFIX   0
C6B3  1   -0.463781    1.636540   -0.200182    11.00000    0.13978    0.06189 =
         0.06614    0.00106    0.01833   -0.02167
AFIX  23
H6BE  2   -0.415933    1.664277   -0.224602    11.00000   -1.50000
H6BF  2   -0.466262    1.595133   -0.223155    11.00000   -1.50000
AFIX   0
C6B4  1   -0.560652    1.686508   -0.191256    11.00000    0.12319    0.05714 =
         0.25435    0.01124   -0.00497    0.00359
AFIX 137
H6BG  2   -0.608005    1.658865   -0.167337    11.00000   -1.50000
H6BH  2   -0.579499    1.705332   -0.231390    11.00000   -1.50000
H6BI  2   -0.557739    1.727972   -0.169211    11.00000   -1.50000
AFIX   0
O7    6   -1.010348    1.085997   -0.116385    11.00000    0.03209    0.06755 =
         0.03909    0.00236   -0.01360   -0.01809
C7B1  1   -1.000382    1.096877   -0.182306    11.00000    0.03119    0.05837 =
         0.03318    0.00063   -0.01392   -0.01130
AFIX  23
H7BA  2   -0.947556    1.058882   -0.200703    11.00000   -1.50000
H7BB  2   -0.984910    1.146073   -0.197201    11.00000   -1.50000
AFIX   0
C7B2  1   -1.093403    1.091278   -0.200730    11.00000    0.03722    0.07639 =
         0.04896   -0.00688   -0.01102   -0.02152
AFIX  23
H7BC  2   -1.142773    1.135160   -0.189215    11.00000   -1.50000
H7BD  2   -1.115558    1.047030   -0.178066    11.00000   -1.50000
AFIX   0
C7B3  1   -1.082913    1.086138   -0.269461    11.00000    0.03327    0.06671 =
         0.05095   -0.01566   -0.01739   -0.01608
AFIX  23
H7BE  2   -1.031338    1.043541   -0.281009    11.00000   -1.50000
H7BF  2   -1.143546    1.076667   -0.278607    11.00000   -1.50000
AFIX   0
C7B4  1   -1.059654    1.154842   -0.308385    11.00000    0.05638    0.05911 =
         0.05705   -0.00859   -0.02569    0.00282
AFIX 137
H7BG  2   -1.108365    1.197805   -0.295659    11.00000   -1.50000
H7BH  2   -1.059198    1.149577   -0.351694    11.00000   -1.50000
H7BI  2   -0.996322    1.161676   -0.303033    11.00000   -1.50000
AFIX   0
O8    6   -0.592545    0.654178    0.304852    11.00000    0.03359    0.02576 =
         0.03688    0.00396   -0.00077   -0.00393
C8B1  1   -0.514575    0.591136    0.306810    11.00000    0.03513    0.02827 =
         0.03028    0.00334   -0.00621   -0.00075
AFIX  23
H8BA  2   -0.466615    0.600849    0.329723    11.00000   -1.50000
H8BB  2   -0.482332    0.581200    0.264615    11.00000   -1.50000
AFIX   0
C8B2  1   -0.555908    0.525973    0.338261    11.00000    0.04137    0.03576 =
         0.03532    0.00383   -0.00187   -0.00410
AFIX  23
H8BC  2   -0.605726    0.518153    0.315961    11.00000   -1.50000
H8BD  2   -0.586964    0.536235    0.380603    11.00000   -1.50000
AFIX   0
C8B3  1   -0.478470    0.456175    0.340612    11.00000    0.04622    0.03521 =
         0.05066    0.00056    0.00293   -0.00470
AFIX  23
H8BE  2   -0.431463    0.462817    0.365665    11.00000   -1.50000
H8BF  2   -0.443876    0.448449    0.298505    11.00000   -1.50000
AFIX   0
C8B4  1   -0.519816    0.387758    0.367843    11.00000    0.06067    0.03665 =
         0.05146    0.00840   -0.00023   -0.00916
AFIX 137
H8BG  2   -0.551327    0.394059    0.410285    11.00000   -1.50000
H8BH  2   -0.467798    0.344208    0.367280    11.00000   -1.50000
H8BI  2   -0.566828    0.381151    0.343419    11.00000   -1.50000
AFIX   0

C1U   1   -0.192075    0.324930    0.291334    11.00000    0.05839    0.03828 =
         0.12861    0.00915    0.00311   -0.01168
O1U   6   -0.275436    0.336444    0.319484    11.00000    0.04886    0.08156 =
         0.11133   -0.00870   -0.01291   -0.00689
C2U   1   -0.176862    0.320392    0.222161    11.00000    0.08529    0.06733 =
         0.12867    0.02956   -0.00084   -0.01367
AFIX 137
H2UA  2   -0.238301    0.320037    0.209543    11.00000   -1.50000
H2UB  2   -0.131130    0.275001    0.211766    11.00000   -1.50000
H2UC  2   -0.151377    0.363222    0.200723    11.00000   -1.50000
AFIX   0
O2U   6   -0.118234    0.314559    0.316290    11.00000    0.04387    0.05802 =
         0.17316    0.00828   -0.01581   -0.01819

O4U   6   -0.304863    0.343735    0.438914    11.00000    0.03662    0.15903 =
         0.10953    0.00223   -0.00072    0.00353
C3U   1   -0.231675    0.321839    0.465525    11.00000    0.04410    0.06272 =
         0.11893   -0.01244   -0.02157   -0.01588
C4U   1   -0.247109    0.316947    0.534324    11.00000    0.05356    0.10700 =
         0.11478   -0.01547   -0.01994   -0.03343
AFIX 137
H4UA  2   -0.297891    0.288960    0.551100    11.00000   -1.50000
H4UB  2   -0.266150    0.366776    0.547778    11.00000   -1.50000
H4UC  2   -0.187376    0.291908    0.549070    11.00000   -1.50000
AFIX   0
O3U   6   -0.150167    0.303594    0.435980    11.00000    0.03982    0.08471 =
         0.15232   -0.04974   -0.01401   -0.00870

PART 2
C33A  1    0.154233    0.512227    0.120323   -21.00000    0.07074    0.06532 =
         0.02438   -0.00918    0.00145   -0.02707
AFIX  43
H33A  2    0.194173    0.547652    0.107451   -21.00000   -1.20000
AFIX   0
C34A  1    0.125172    0.478404    0.078561   -21.00000    0.05298    0.04383 =
         0.01785   -0.00342   -0.00644   -0.00208
C35A  1    0.069449    0.426436    0.094967   -21.00000    0.06986    0.06670 =
         0.04450    0.00169   -0.01049   -0.02390
AFIX  43
H35A  2    0.050340    0.403294    0.064957   -21.00000   -1.20000
AFIX   0
C36A  1    0.041282    0.408353    0.158094   -21.00000    0.05405    0.06596 =
         0.04337    0.00530   -0.01248   -0.01887
AFIX  43
H36A  2    0.001969    0.372507    0.171025   -21.00000   -1.20000
AFIX   0
O3A   6    0.161879    0.499225    0.017963   -21.00000    0.07453
C9    1    0.145634    0.459617   -0.029807   -21.00000    0.07453
AFIX  23
H9A   2    0.076050    0.466662   -0.031068   -21.00000   -1.20000
H9B   2    0.171666    0.406147   -0.022326   -21.00000   -1.20000
AFIX   0
C10   1    0.197964    0.491864   -0.090169   -21.00000    0.07453
AFIX  23
H10A  2    0.158427    0.539726   -0.103245   -21.00000   -1.20000
H10B  2    0.203759    0.458184   -0.122148   -21.00000   -1.20000
AFIX   0
C17   1    0.299465    0.504088   -0.086420   -21.00000    0.07453
AFIX  23
H17A  2    0.295286    0.553646   -0.073400   -21.00000   -1.20000
H17B  2    0.329213    0.466604   -0.056137   -21.00000   -1.20000
AFIX   0
C18   1    0.359163    0.497379   -0.149675   -21.00000    0.07453
AFIX  33
H18A  2    0.424002    0.504881   -0.148722   -21.00000   -1.50000
H18B  2    0.362961    0.448108   -0.162027   -21.00000   -1.50000
H18C  2    0.329169    0.534804   -0.179221   -21.00000   -1.50000
AFIX   0
C31A  1    0.069763    0.441829    0.201940   -21.00000    0.01808    0.05304 =
         0.03793    0.00009   -0.00279    0.00333
C32A  1    0.124205    0.493762    0.181914   -21.00000    0.05272    0.07209 =
         0.01884   -0.00676    0.00000   -0.02352
AFIX  43
H32A  2    0.142385    0.518379    0.211359   -21.00000   -1.20000
AFIX   0
HKLF 4

REM  b in P-1
REM R1 =  0.0400 for   17100 Fo > 4sig(Fo)  and  0.0708 for all   23303 data
REM   1467 parameters refined using    146 restraints

END

WGHT      0.0481      2.4448

REM Highest difference peak  2.989,  deepest hole -3.718,  1-sigma level  0.148
Q1    1  -0.7181  1.1806  0.1738  11.00000  0.05    2.99
Q2    1  -0.7649  1.1049  0.2098  11.00000  0.05    1.78
Q3    1  -0.2842  0.7375  0.2639  11.00000  0.05    1.62
Q4    1  -0.5541  1.0562  0.0920  11.00000  0.05    1.57
Q5    1  -0.1600  0.7792  0.2176  11.00000  0.05    1.28
Q6    1   0.0243  0.4318  0.4218  11.00000  0.05    1.25
Q7    1   0.0511  0.4411  0.4112  11.00000  0.05    1.23
Q8    1  -0.0587  0.3726  0.4419  11.00000  0.05    1.22
Q9    1   0.2207  0.4165 -0.0861  11.00000  0.05    1.19
Q10   1   0.2770  0.4298 -0.1193  11.00000  0.05    1.18
Q11   1  -0.2999  0.7214  0.2437  11.00000  0.05    1.11
Q12   1   0.2034  0.3539  0.3041  11.00000  0.05    1.06
Q13   1  -0.5000  1.0000  0.0000  10.50000  0.05    1.02
Q14   1  -0.4831  1.1410  0.0958  11.00000  0.05    1.02
Q15   1   0.7226 -0.0715  0.4163  11.00000  0.05    1.01
Q16   1  -0.4982  1.1674  0.1378  11.00000  0.05    0.94
Q17   1  -0.4186  1.1092  0.0679  11.00000  0.05    0.92
;
_shelx_res_checksum              20252
_olex2_submission_special_instructions 'No special instructions were received'
loop_
_space_group_symop_operation_xyz
'x, y, z'
'-x, -y, -z'
loop_
_atom_site_label
_atom_site_type_symbol
_atom_site_fract_x
_atom_site_fract_y
_atom_site_fract_z
_atom_site_U_iso_or_equiv
_atom_site_adp_type
_atom_site_occupancy
_atom_site_site_symmetry_order
_atom_site_calc_flag
_atom_site_refinement_flags_posn
_atom_site_refinement_flags_adp
_atom_site_refinement_flags_occupancy
_atom_site_disorder_assembly
_atom_site_disorder_group
Au1 Au -0.00391(2) 0.40481(2) 0.42726(2) 0.02288(6) Uani 1 1 d . . . . .
Au2 Au -0.50387(2) 1.08339(2) 0.07468(2) 0.02319(6) Uani 1 1 d . . . . .
Au4 Au -0.22424(2) 0.75183(2) 0.23378(2) 0.04122(8) Uani 1 1 d . . . . .
Au3 Au -0.71185(2) 1.13841(2) 0.19644(2) 0.05044(8) Uani 1 1 d . . . . .
Cl1 Cl -0.7260(2) 1.04173(12) 0.26913(11) 0.0821(7) Uani 1 1 d . . . . .
Cl2 Cl -0.58209(14) 1.15500(13) 0.23343(10) 0.0724(6) Uani 1 1 d . . . . .
Cl3 Cl -0.83978(18) 1.12272(19) 0.15800(11) 0.1007(10) Uani 1 1 d . . . . .
Cl4 Cl -0.69611(19) 1.23698(13) 0.12564(10) 0.0816(7) Uani 1 1 d . . . . .
Cl5 Cl -0.22527(13) 0.66649(10) 0.17061(8) 0.0521(4) Uani 1 1 d . . . . .
Cl6 Cl -0.21932(13) 0.83503(10) 0.29778(8) 0.0501(4) Uani 1 1 d . . . . .
N1 N 0.0648(3) 0.3432(2) 0.49357(19) 0.0236(10) Uani 1 1 d . . . . .
N2 N -0.1065(3) 0.4534(2) 0.4928(2) 0.0246(10) Uani 1 1 d . . . . .
N4 N 0.0989(3) 0.3568(3) 0.36266(19) 0.0269(10) Uani 1 1 d . . . . .
N3 N -0.0737(3) 0.4653(2) 0.36084(19) 0.0254(10) Uani 1 1 d . . . . .
N5 N -0.4458(3) 1.0205(2) 0.14482(19) 0.0232(10) Uani 1 1 d . . . . .
N7 N -0.5637(3) 1.1475(2) 0.0062(2) 0.0247(10) Uani 1 1 d . . . . .
N6 N -0.4090(3) 1.1503(3) 0.0685(2) 0.0282(11) Uani 1 1 d . . . . .
N8 N -0.5960(3) 1.0141(3) 0.07959(19) 0.0266(10) Uani 1 1 d . . . . .
C1 C -0.0486(4) 0.3851(3) 0.5863(2) 0.0262(12) Uani 1 1 d . . . . .
C1A C 0.0277(4) 0.3370(3) 0.5564(2) 0.0242(12) Uani 1 1 d . . . . .
C1B C 0.1460(4) 0.2885(3) 0.4844(2) 0.0259(12) Uani 1 1 d . . . . .
C1D C 0.1604(4) 0.2474(3) 0.5417(2) 0.0281(12) Uani 1 1 d . . . . .
H1D H 0.2117 0.2073 0.5485 0.042 Uiso 1 1 calc R U . . .
C1C C 0.0882(4) 0.2758(3) 0.5846(3) 0.0288(13) Uani 1 1 d . . . . .
H1C H 0.0788 0.2580 0.6268 0.043 Uiso 1 1 calc R U . . .
C2 C -0.2127(4) 0.5360(3) 0.4258(2) 0.0249(12) Uani 1 1 d . . . . .
C2A C -0.1073(4) 0.4424(3) 0.5558(2) 0.0244(12) Uani 1 1 d . . . . .
C2B C -0.1818(4) 0.5115(3) 0.4823(2) 0.0259(12) Uani 1 1 d . . . . .
C2C C -0.1813(4) 0.4961(3) 0.5839(2) 0.0258(12) Uani 1 1 d . . . . .
H2C H -0.1970 0.5015 0.6266 0.039 Uiso 1 1 calc R U . . .
C2D C -0.2263(4) 0.5384(3) 0.5395(3) 0.0279(12) Uani 1 1 d . . . . .
H2D H -0.2785 0.5789 0.5456 0.042 Uiso 1 1 calc R U . . .
C3 C 0.0372(4) 0.4205(3) 0.2690(2) 0.0312(13) Uani 1 1 d D . . . .
C3A C -0.1638(4) 0.5107(3) 0.3707(2) 0.0249(12) Uani 1 1 d . . . . .
C3B C -0.0479(4) 0.4601(3) 0.2983(2) 0.0287(13) Uani 1 1 d . . . . .
C3C C -0.1942(4) 0.5326(3) 0.3117(2) 0.0309(13) Uani 1 1 d . . . . .
H3C H -0.2539 0.5628 0.3047 0.046 Uiso 1 1 calc R U . . .
C3D C -0.1241(4) 0.5033(3) 0.2684(3) 0.0352(14) Uani 1 1 d . . . . .
H3D H -0.1248 0.5100 0.2254 0.053 Uiso 1 1 calc R U . . .
C4 C 0.2053(4) 0.2741(3) 0.4292(3) 0.0298(13) Uani 1 1 d . . . . .
C4A C 0.1054(4) 0.3731(3) 0.2994(2) 0.0280(12) Uani 1 1 d . . . . .
C4B C 0.1817(4) 0.3079(3) 0.3725(2) 0.0286(13) Uani 1 1 d . . . . .
C4C C 0.1952(4) 0.3348(4) 0.2707(3) 0.0359(14) Uani 1 1 d . . . . .
H4C H 0.2181 0.3370 0.2278 0.054 Uiso 1 1 calc R U . . .
C4D C 0.2424(4) 0.2947(4) 0.3148(3) 0.0360(14) Uani 1 1 d . . . . .
H4D H 0.3041 0.2637 0.3087 0.054 Uiso 1 1 calc R U . . .
C5 C -0.3289(4) 1.0951(3) 0.1569(3) 0.0309(13) Uani 1 1 d . . . . .
C5A C -0.3804(4) 1.0395(3) 0.1757(3) 0.0272(12) Uani 1 1 d . . . . .
C5B C -0.4755(4) 0.9588(3) 0.1772(2) 0.0245(12) Uani 1 1 d . . . . .
C5C C -0.3703(4) 0.9875(3) 0.2281(3) 0.0310(13) Uani 1 1 d . . . . .
H5C H -0.3301 0.9874 0.2574 0.046 Uiso 1 1 calc R U . . .
C5D C -0.4267(4) 0.9385(3) 0.2295(3) 0.0305(13) Uani 1 1 d . . . . .
H5D H -0.4332 0.8978 0.2595 0.046 Uiso 1 1 calc R U . . .
C6 C -0.4612(4) 1.2414(3) -0.0153(3) 0.0315(13) Uani 1 1 d . . . . .
C6A C -0.3379(4) 1.1425(3) 0.1046(3) 0.0331(14) Uani 1 1 d . . . . .
C6B C -0.3959(4) 1.2083(3) 0.0244(2) 0.0308(13) Uani 1 1 d . . . . .
C6C C -0.2784(5) 1.1941(4) 0.0795(3) 0.0450(17) Uani 1 1 d . . . . .
H6C H -0.2240 1.2003 0.0951 0.068 Uiso 1 1 calc R U . . .
C6D C -0.3120(5) 1.2329(4) 0.0297(3) 0.0450(17) Uani 1 1 d . . . . .
H6D H -0.2845 1.2699 0.0033 0.067 Uiso 1 1 calc R U . . .
C7 C -0.6932(4) 1.0813(3) 0.0013(2) 0.0271(12) Uani 1 1 d . . . . .
C7A C -0.5413(4) 1.2150(3) -0.0205(2) 0.0272(12) Uani 1 1 d . . . . .
C7B C -0.6485(4) 1.1421(3) -0.0123(2) 0.0267(12) Uani 1 1 d . . . . .
C7C C -0.6157(4) 1.2524(3) -0.0543(3) 0.0318(13) Uani 1 1 d . . . . .
H7C H -0.6187 1.2997 -0.0767 0.048 Uiso 1 1 calc R U . . .
C7D C -0.6807(4) 1.2089(3) -0.0489(3) 0.0306(13) Uani 1 1 d . . . . .
H7D H -0.7381 1.2205 -0.0663 0.046 Uiso 1 1 calc R U . . .
C8 C -0.5396(4) 0.9216(3) 0.1617(2) 0.0255(12) Uani 1 1 d . . . . .
C8A C -0.6639(4) 1.0201(3) 0.0414(2) 0.0264(12) Uani 1 1 d . . . . .
C8B C -0.5929(4) 0.9468(3) 0.1140(2) 0.0238(11) Uani 1 1 d . . . . .
C8C C -0.7020(4) 0.9548(3) 0.0519(2) 0.0249(12) Uani 1 1 d . . . . .
H8C H -0.7497 0.9446 0.0318 0.037 Uiso 1 1 calc R U . . .
C8D C -0.6586(4) 0.9092(3) 0.0957(3) 0.0285(12) Uani 1 1 d . . . . .
H8D H -0.6697 0.8613 0.1113 0.043 Uiso 1 1 calc R U . . .
C11 C -0.0686(4) 0.3728(3) 0.6547(2) 0.0256(12) Uani 1 1 d . . . . .
C12 C -0.1577(4) 0.3602(3) 0.6866(2) 0.0298(13) Uani 1 1 d . . . . .
H12 H -0.2100 0.3653 0.6649 0.045 Uiso 1 1 calc R U . . .
C13 C -0.1703(4) 0.3406(3) 0.7487(3) 0.0336(14) Uani 1 1 d . . . . .
H13 H -0.2313 0.3324 0.7695 0.050 Uiso 1 1 calc R U . . .
C14 C -0.0944(4) 0.3324(3) 0.7817(3) 0.0315(13) Uani 1 1 d . . . . .
C15 C -0.0070(4) 0.3474(3) 0.7510(2) 0.0303(13) Uani 1 1 d . . . . .
H15 H 0.0445 0.3440 0.7730 0.046 Uiso 1 1 calc R U . . .
C16 C 0.0052(4) 0.3671(3) 0.6888(2) 0.0274(12) Uani 1 1 d . . . . .
H16 H 0.0656 0.3772 0.6684 0.041 Uiso 1 1 calc R U . . .
C21 C -0.3021(4) 0.5937(3) 0.4245(2) 0.0260(12) Uani 1 1 d . . . . .
C22 C -0.3901(4) 0.5828(3) 0.4576(3) 0.0344(14) Uani 1 1 d . . . . .
H22 H -0.3944 0.5370 0.4814 0.052 Uiso 1 1 calc R U . . .
C23 C -0.4724(4) 0.6378(3) 0.4564(3) 0.0350(14) Uani 1 1 d . . . . .
H23 H -0.5320 0.6295 0.4795 0.053 Uiso 1 1 calc R U . . .
C24 C -0.4669(4) 0.7048(3) 0.4215(3) 0.0306(13) Uani 1 1 d . . . . .
C25 C -0.3799(4) 0.7165(3) 0.3885(2) 0.0296(13) Uani 1 1 d . . . . .
H25 H -0.3757 0.7622 0.3646 0.044 Uiso 1 1 calc R U . . .
C26 C -0.2985(4) 0.6615(3) 0.3900(2) 0.0284(12) Uani 1 1 d . . . . .
H26 H -0.2389 0.6701 0.3671 0.043 Uiso 1 1 calc R U . . .
C31 C 0.0543(11) 0.4265(7) 0.1995(3) 0.030(3) Uani 0.688(9) 1 d D U P A 1
C32 C 0.0585(9) 0.4944(6) 0.1683(4) 0.053(3) Uani 0.688(9) 1 d D U P A 1
H32 H 0.0446 0.5362 0.1911 0.063 Uiso 0.688(9) 1 calc R U P A 1
C33 C 0.0824(11) 0.5048(7) 0.1049(5) 0.071(4) Uani 0.688(9) 1 d D U P A 1
H33 H 0.0807 0.5531 0.0844 0.085 Uiso 0.688(9) 1 calc R U P A 1
C34 C 0.1079(10) 0.4450(8) 0.0729(4) 0.057(3) Uani 0.688(9) 1 d D U P A 1
C35 C 0.1017(7) 0.3766(7) 0.1016(4) 0.050(3) Uani 0.688(9) 1 d D U P A 1
H35 H 0.1146 0.3356 0.0780 0.060 Uiso 0.688(9) 1 calc R U P A 1
C36 C 0.0767(7) 0.3663(6) 0.1650(4) 0.037(2) Uani 0.688(9) 1 d D U P A 1
H36 H 0.0749 0.3181 0.1848 0.045 Uiso 0.688(9) 1 calc R U P A 1
C41 C 0.2967(4) 0.2194(3) 0.4296(2) 0.0288(13) Uani 1 1 d . . . . .
C42 C 0.3686(4) 0.2321(3) 0.4589(3) 0.0303(13) Uani 1 1 d . . . . .
H42 H 0.3588 0.2763 0.4782 0.045 Uiso 1 1 calc R U . . .
C43 C 0.4535(4) 0.1816(3) 0.4604(3) 0.0339(14) Uani 1 1 d . . . . .
H43 H 0.5016 0.1911 0.4806 0.051 Uiso 1 1 calc R U . . .
C44 C 0.4685(4) 0.1168(3) 0.4322(3) 0.0334(14) Uani 1 1 d . . . . .
C45 C 0.3982(4) 0.1030(3) 0.4026(3) 0.0361(14) Uani 1 1 d . . . . .
H45 H 0.4083 0.0587 0.3833 0.054 Uiso 1 1 calc R U . . .
C46 C 0.3132(4) 0.1542(3) 0.4015(3) 0.0358(14) Uani 1 1 d . . . . .
H46 H 0.2653 0.1447 0.3812 0.054 Uiso 1 1 calc R U . . .
C51 C -0.2636(4) 1.1068(3) 0.1982(3) 0.0328(14) Uani 1 1 d . . . . .
C52 C -0.1645(4) 1.0916(3) 0.1847(3) 0.0396(15) Uani 1 1 d . . . . .
H52 H -0.1350 1.0707 0.1474 0.059 Uiso 1 1 calc R U . . .
C53 C -0.1069(5) 1.1054(4) 0.2230(3) 0.0443(17) Uani 1 1 d . . . . .
H53 H -0.0389 1.0952 0.2124 0.067 Uiso 1 1 calc R U . . .
C54 C -0.1518(5) 1.1351(3) 0.2781(3) 0.0398(16) Uani 1 1 d . . . . .
C55 C -0.2508(4) 1.1518(3) 0.2927(3) 0.0366(14) Uani 1 1 d . . . . .
H55 H -0.2805 1.1731 0.3297 0.055 Uiso 1 1 calc R U . . .
C56 C -0.3061(4) 1.1373(3) 0.2530(3) 0.0355(14) Uani 1 1 d . . . . .
H56 H -0.3741 1.1483 0.2632 0.053 Uiso 1 1 calc R U . . .
C61 C -0.4412(4) 1.3107(3) -0.0534(3) 0.0338(14) Uani 1 1 d . . . . .
C62 C -0.4339(6) 1.3711(4) -0.0259(3) 0.055(2) Uani 1 1 d . . . . .
H62 H -0.4474 1.3703 0.0176 0.083 Uiso 1 1 calc R U . . .
C63 C -0.4069(7) 1.4338(4) -0.0612(4) 0.070(3) Uani 1 1 d . . . . .
H63 H -0.4013 1.4748 -0.0418 0.105 Uiso 1 1 calc R U . . .
C64 C -0.3885(6) 1.4353(4) -0.1251(4) 0.063(2) Uani 1 1 d . . . . .
C65 C -0.3999(5) 1.3764(4) -0.1518(3) 0.0431(16) Uani 1 1 d . . . . .
H65 H -0.3905 1.3782 -0.1953 0.065 Uiso 1 1 calc R U . . .
C66 C -0.4244(4) 1.3149(3) -0.1172(3) 0.0358(14) Uani 1 1 d . . . . .
H66 H -0.4302 1.2744 -0.1371 0.054 Uiso 1 1 calc R U . . .
C71 C -0.7766(4) 1.0821(3) -0.0300(3) 0.0304(13) Uani 1 1 d . . . . .
C72 C -0.7671(4) 1.0928(3) -0.0938(3) 0.0308(13) Uani 1 1 d . . . . .
H72 H -0.7067 1.0990 -0.1170 0.046 Uiso 1 1 calc R U . . .
C73 C -0.8426(4) 1.0947(3) -0.1246(3) 0.0330(14) Uani 1 1 d . . . . .
H73 H -0.8342 1.1024 -0.1682 0.049 Uiso 1 1 calc R U . . .
C74 C -0.9303(4) 1.0851(3) -0.0912(3) 0.0336(14) Uani 1 1 d . . . . .
C75 C -0.9427(4) 1.0750(3) -0.0269(3) 0.0355(14) Uani 1 1 d . . . . .
H75 H -1.0036 1.0696 -0.0039 0.053 Uiso 1 1 calc R U . . .
C76 C -0.8662(4) 1.0729(3) 0.0032(3) 0.0324(13) Uani 1 1 d . . . . .
H76 H -0.8746 1.0651 0.0468 0.049 Uiso 1 1 calc R U . . .
C81 C -0.5525(4) 0.8506(3) 0.1992(2) 0.0241(12) Uani 1 1 d . . . . .
C82 C -0.6422(4) 0.8398(3) 0.2307(2) 0.0276(12) Uani 1 1 d . . . . .
H82 H -0.6969 0.8782 0.2280 0.041 Uiso 1 1 calc R U . . .
C83 C -0.6527(4) 0.7739(3) 0.2658(3) 0.0311(13) Uani 1 1 d . . . . .
H83 H -0.7145 0.7675 0.2867 0.047 Uiso 1 1 calc R U . . .
C84 C -0.5734(4) 0.7171(3) 0.2706(2) 0.0290(13) Uani 1 1 d . . . . .
C85 C -0.4836(4) 0.7265(3) 0.2402(2) 0.0273(12) Uani 1 1 d . . . . .
H85 H -0.4290 0.6881 0.2434 0.041 Uiso 1 1 calc R U . . .
C86 C -0.4740(4) 0.7933(3) 0.2045(2) 0.0274(12) Uani 1 1 d . . . . .
H86 H -0.4123 0.7996 0.1835 0.041 Uiso 1 1 calc R U . . .
O1 O -0.1130(3) 0.3114(3) 0.84321(17) 0.0409(11) Uani 1 1 d . . . . .
C1B1 C -0.0334(5) 0.2978(4) 0.8768(3) 0.0400(16) Uani 1 1 d . . . . .
H1BA H -0.0042 0.3421 0.8719 0.060 Uiso 1 1 calc R U . . .
H1BB H 0.0164 0.2561 0.8611 0.060 Uiso 1 1 calc R U . . .
C1B2 C -0.0717(5) 0.2794(4) 0.9435(3) 0.0419(16) Uani 1 1 d . . . . .
H1BC H -0.0953 0.2325 0.9484 0.063 Uiso 1 1 calc R U . . .
H1BD H -0.1264 0.3188 0.9574 0.063 Uiso 1 1 calc R U . . .
C1B3 C 0.0069(5) 0.2721(4) 0.9829(3) 0.0490(18) Uani 1 1 d . . . . .
H1BE H 0.0288 0.3195 0.9790 0.073 Uiso 1 1 calc R U . . .
H1BF H 0.0625 0.2340 0.9679 0.073 Uiso 1 1 calc R U . . .
C1B4 C -0.0300(6) 0.2507(5) 1.0510(3) 0.072(3) Uani 1 1 d . . . . .
H1BG H -0.0818 0.2901 1.0668 0.109 Uiso 1 1 calc R U . . .
H1BH H 0.0227 0.2434 1.0747 0.109 Uiso 1 1 calc R U . . .
H1BI H -0.0543 0.2048 1.0548 0.109 Uiso 1 1 calc R U . . .
O2 O -0.5508(3) 0.7560(2) 0.42348(19) 0.0389(10) Uani 1 1 d . . . . .
C2B1 C -0.5473(5) 0.8252(3) 0.3879(3) 0.0422(16) Uani 1 1 d . . . . .
H2BA H -0.5203 0.8170 0.3446 0.063 Uiso 1 1 calc R U . . .
H2BB H -0.5050 0.8512 0.4037 0.063 Uiso 1 1 calc R U . . .
C2B2 C -0.6485(5) 0.8725(4) 0.3917(3) 0.056(2) Uani 1 1 d . . . . .
H2BC H -0.6460 0.9172 0.3625 0.085 Uiso 1 1 calc R U . . .
H2BD H -0.6906 0.8443 0.3782 0.085 Uiso 1 1 calc R U . . .
C2B3 C -0.6917(6) 0.8950(5) 0.4521(4) 0.063(2) Uani 1 1 d . . . . .
H2BE H -0.6499 0.9221 0.4671 0.095 Uiso 1 1 calc R U . . .
H2BF H -0.6996 0.8511 0.4814 0.095 Uiso 1 1 calc R U . . .
C2B4 C -0.7924(6) 0.9463(6) 0.4472(5) 0.102(4) Uani 1 1 d . . . . .
H2BG H -0.7848 0.9864 0.4146 0.153 Uiso 1 1 calc R U . . .
H2BH H -0.8190 0.9671 0.4864 0.153 Uiso 1 1 calc R U . . .
H2BI H -0.8360 0.9173 0.4376 0.153 Uiso 1 1 calc R U . . .
O3 O 0.1338(7) 0.4495(5) 0.0098(3) 0.082(3) Uani 0.688(9) 1 d D U P A 1
C3B1 C 0.1381(11) 0.5218(8) -0.0224(6) 0.105(5) Uani 0.688(9) 1 d D U P A 1
H3BA H 0.1723 0.5484 -0.0006 0.127 Uiso 0.688(9) 1 calc R U P A 1
H3BB H 0.0722 0.5508 -0.0229 0.127 Uiso 0.688(9) 1 calc R U P A 1
C3B2 C 0.1900(11) 0.5148(11) -0.0879(6) 0.100(7) Uani 0.688(9) 1 d D U P A 1
H3BC H 0.1823 0.5644 -0.1107 0.120 Uiso 0.688(9) 1 calc R U P A 1
H3BD H 0.1587 0.4840 -0.1077 0.120 Uiso 0.688(9) 1 calc R U P A 1
C3B3 C 0.2988(9) 0.4807(7) -0.0938(6) 0.067(4) Uani 0.688(9) 1 d D U P A 1
H3BE H 0.3304 0.5072 -0.0703 0.081 Uiso 0.688(9) 1 calc R U P A 1
H3BF H 0.3080 0.4281 -0.0771 0.081 Uiso 0.688(9) 1 calc R U P A 1
C3B4 C 0.3426(12) 0.4871(13) -0.1616(6) 0.089(6) Uani 0.688(9) 1 d D U P A 1
H3BG H 0.4115 0.4658 -0.1662 0.133 Uiso 0.688(9) 1 calc R U P A 1
H3BH H 0.3112 0.4605 -0.1844 0.133 Uiso 0.688(9) 1 calc R U P A 1
H3BI H 0.3335 0.5393 -0.1777 0.133 Uiso 0.688(9) 1 calc R U P A 1
O4 O 0.5546(3) 0.0691(2) 0.43708(19) 0.0416(11) Uani 1 1 d . . . . .
C4B1 C 0.5702(5) -0.0015(3) 0.4126(3) 0.0420(16) Uani 1 1 d . . . . .
H4BA H 0.5665 0.0056 0.3682 0.063 Uiso 1 1 calc R U . . .
H4BB H 0.5209 -0.0299 0.4339 0.063 Uiso 1 1 calc R U . . .
C4B2 C 0.6679(4) -0.0416(3) 0.4232(3) 0.0403(15) Uani 1 1 d . . . . .
H4BC H 0.6796 -0.0915 0.4092 0.061 Uiso 1 1 calc R U . . .
H4BD H 0.6701 -0.0475 0.4678 0.061 Uiso 1 1 calc R U . . .
C4B3 C 0.7477(5) -0.0023(4) 0.3899(3) 0.0427(16) Uani 1 1 d . . . . .
H4BE H 0.7372 0.0470 0.4049 0.064 Uiso 1 1 calc R U . . .
H4BF H 0.7442 0.0051 0.3455 0.064 Uiso 1 1 calc R U . . .
C4B4 C 0.8490(5) -0.0449(4) 0.3991(4) 0.063(2) Uani 1 1 d . . . . .
H4BG H 0.8542 -0.0505 0.4428 0.094 Uiso 1 1 calc R U . . .
H4BH H 0.8972 -0.0175 0.3759 0.094 Uiso 1 1 calc R U . . .
H4BI H 0.8601 -0.0938 0.3843 0.094 Uiso 1 1 calc R U . . .
O5 O -0.1037(3) 1.1510(3) 0.3210(2) 0.0518(13) Uani 1 1 d . . . . .
C5B1 C -0.0004(5) 1.1360(5) 0.3082(4) 0.063(2) Uani 1 1 d . . . . .
H5BA H 0.0228 1.1653 0.2701 0.095 Uiso 1 1 calc R U . . .
H5BB H 0.0247 1.0829 0.3033 0.095 Uiso 1 1 calc R U . . .
C5B2 C 0.0320(6) 1.1580(4) 0.3635(4) 0.061(2) Uani 1 1 d . . . . .
H5BC H 0.1031 1.1476 0.3574 0.092 Uiso 1 1 calc R U . . .
H5BD H 0.0098 1.2118 0.3656 0.092 Uiso 1 1 calc R U . . .
C5B3 C -0.0053(7) 1.1181(5) 0.4243(4) 0.076(3) Uani 1 1 d . . . . .
H5BE H -0.0761 1.1254 0.4293 0.114 Uiso 1 1 calc R U . . .
H5BF H 0.0211 1.0646 0.4238 0.114 Uiso 1 1 calc R U . . .
C5B4 C 0.0221(7) 1.1456(6) 0.4787(4) 0.095(3) Uani 1 1 d . . . . .
H5BG H 0.0921 1.1342 0.4761 0.143 Uiso 1 1 calc R U . . .
H5BH H -0.0073 1.1211 0.5170 0.143 Uiso 1 1 calc R U . . .
H5BI H -0.0009 1.1991 0.4782 0.143 Uiso 1 1 calc R U . . .
O6 O -0.3558(5) 1.4906(3) -0.1641(3) 0.094(2) Uani 1 1 d . . . . .
C6B1 C -0.3439(13) 1.5565(8) -0.1410(6) 0.146(7) Uani 1 1 d . . . . .
H6BA H -0.3251 1.5446 -0.0997 0.219 Uiso 1 1 calc R U . . .
H6BB H -0.2933 1.5786 -0.1688 0.219 Uiso 1 1 calc R U . . .
C6B2 C -0.4333(11) 1.6062(7) -0.1381(5) 0.111(4) Uani 1 1 d . . . . .
H6BC H -0.4303 1.6483 -0.1161 0.167 Uiso 1 1 calc R U . . .
H6BD H -0.4835 1.5808 -0.1136 0.167 Uiso 1 1 calc R U . . .
C6B3 C -0.4638(8) 1.6365(5) -0.2002(4) 0.094(3) Uani 1 1 d . . . . .
H6BE H -0.4159 1.6643 -0.2246 0.141 Uiso 1 1 calc R U . . .
H6BF H -0.4663 1.5951 -0.2232 0.141 Uiso 1 1 calc R U . . .
C6B4 C -0.5607(9) 1.6865(6) -0.1913(7) 0.154(6) Uani 1 1 d . . . . .
H6BG H -0.6080 1.6589 -0.1673 0.231 Uiso 1 1 calc R U . . .
H6BH H -0.5795 1.7053 -0.2314 0.231 Uiso 1 1 calc R U . . .
H6BI H -0.5577 1.7280 -0.1692 0.231 Uiso 1 1 calc R U . . .
O7 O -1.0103(3) 1.0860(3) -0.11639(19) 0.0446(11) Uani 1 1 d . . . . .
C7B1 C -1.0004(4) 1.0969(4) -0.1823(3) 0.0398(15) Uani 1 1 d . . . . .
H7BA H -0.9476 1.0589 -0.2007 0.060 Uiso 1 1 calc R U . . .
H7BB H -0.9849 1.1461 -0.1972 0.060 Uiso 1 1 calc R U . . .
C7B2 C -1.0934(5) 1.0913(4) -0.2007(3) 0.0520(19) Uani 1 1 d . . . . .
H7BC H -1.1428 1.1352 -0.1892 0.078 Uiso 1 1 calc R U . . .
H7BD H -1.1156 1.0470 -0.1781 0.078 Uiso 1 1 calc R U . . .
C7B3 C -1.0829(5) 1.0861(4) -0.2695(3) 0.0470(17) Uani 1 1 d . . . . .
H7BE H -1.0313 1.0435 -0.2810 0.071 Uiso 1 1 calc R U . . .
H7BF H -1.1435 1.0767 -0.2786 0.071 Uiso 1 1 calc R U . . .
C7B4 C -1.0597(5) 1.1548(4) -0.3084(3) 0.057(2) Uani 1 1 d . . . . .
H7BG H -1.1084 1.1978 -0.2957 0.086 Uiso 1 1 calc R U . . .
H7BH H -1.0592 1.1496 -0.3517 0.086 Uiso 1 1 calc R U . . .
H7BI H -0.9963 1.1617 -0.3030 0.086 Uiso 1 1 calc R U . . .
O8 O -0.5925(3) 0.6542(2) 0.30485(18) 0.0336(9) Uani 1 1 d . . . . .
C8B1 C -0.5146(4) 0.5911(3) 0.3068(3) 0.0325(13) Uani 1 1 d . . . . .
H8BA H -0.4666 0.6008 0.3297 0.049 Uiso 1 1 calc R U . . .
H8BB H -0.4823 0.5812 0.2646 0.049 Uiso 1 1 calc R U . . .
C8B2 C -0.5559(5) 0.5260(3) 0.3383(3) 0.0392(15) Uani 1 1 d . . . . .
H8BC H -0.6057 0.5182 0.3160 0.059 Uiso 1 1 calc R U . . .
H8BD H -0.5870 0.5362 0.3806 0.059 Uiso 1 1 calc R U . . .
C8B3 C -0.4785(5) 0.4562(4) 0.3406(3) 0.0464(17) Uani 1 1 d . . . . .
H8BE H -0.4315 0.4628 0.3657 0.070 Uiso 1 1 calc R U . . .
H8BF H -0.4439 0.4484 0.2985 0.070 Uiso 1 1 calc R U . . .
C8B4 C -0.5198(5) 0.3878(4) 0.3678(3) 0.0520(18) Uani 1 1 d . . . . .
H8BG H -0.5513 0.3941 0.4103 0.078 Uiso 1 1 calc R U . . .
H8BH H -0.4678 0.3442 0.3673 0.078 Uiso 1 1 calc R U . . .
H8BI H -0.5668 0.3812 0.3434 0.078 Uiso 1 1 calc R U . . .
C1U C -0.1921(7) 0.3249(4) 0.2913(5) 0.079(3) Uani 1 1 d . . . . .
O1U O -0.2754(4) 0.3364(3) 0.3195(3) 0.0815(18) Uani 1 1 d . . . . .
C2U C -0.1769(7) 0.3204(5) 0.2222(5) 0.100(4) Uani 1 1 d . . . . .
H2UA H -0.2383 0.3200 0.2095 0.150 Uiso 1 1 calc R U . . .
H2UB H -0.1311 0.2750 0.2118 0.150 Uiso 1 1 calc R U . . .
H2UC H -0.1514 0.3632 0.2007 0.150 Uiso 1 1 calc R U . . .
O2U O -0.1182(4) 0.3146(3) 0.3163(4) 0.092(2) Uani 1 1 d . . . . .
O4U O -0.3049(4) 0.3437(5) 0.4389(3) 0.108(3) Uani 1 1 d . . . . .
C3U C -0.2317(6) 0.3218(5) 0.4655(5) 0.073(3) Uani 1 1 d . . . . .
C4U C -0.2471(6) 0.3169(6) 0.5343(5) 0.088(3) Uani 1 1 d . . . . .
H4UA H -0.2979 0.2890 0.5511 0.132 Uiso 1 1 calc R U . . .
H4UB H -0.2662 0.3668 0.5478 0.132 Uiso 1 1 calc R U . . .
H4UC H -0.1874 0.2919 0.5491 0.132 Uiso 1 1 calc R U . . .
O3U O -0.1502(4) 0.3036(3) 0.4360(3) 0.089(2) Uani 1 1 d . . . . .
C33A C 0.1542(16) 0.5122(11) 0.1203(7) 0.052(6) Uani 0.312(9) 1 d D U P A 2
H33A H 0.1942 0.5477 0.1075 0.063 Uiso 0.312(9) 1 calc R U P A 2
C34A C 0.1252(15) 0.4784(12) 0.0786(7) 0.039(5) Uani 0.312(9) 1 d D U P A 2
C35A C 0.0694(17) 0.4264(15) 0.0950(9) 0.059(6) Uani 0.312(9) 1 d D U P A 2
H35A H 0.0503 0.4033 0.0650 0.071 Uiso 0.312(9) 1 calc R U P A 2
C36A C 0.0413(17) 0.4084(15) 0.1581(8) 0.054(5) Uani 0.312(9) 1 d D U P A 2
H36A H 0.0020 0.3725 0.1710 0.064 Uiso 0.312(9) 1 calc R U P A 2
O3A O 0.1619(14) 0.4992(12) 0.0180(7) 0.075(5) Uiso 0.312(9) 1 d D . P A 2
C9 C 0.146(2) 0.4596(16) -0.0298(11) 0.075(5) Uiso 0.312(9) 1 d D . P A 2
H9A H 0.0760 0.4667 -0.0311 0.089 Uiso 0.312(9) 1 calc R U P A 2
H9B H 0.1717 0.4061 -0.0223 0.089 Uiso 0.312(9) 1 calc R U P A 2
C10 C 0.198(2) 0.492(3) -0.0902(11) 0.075(5) Uiso 0.312(9) 1 d D . P A 2
H10A H 0.1584 0.5397 -0.1032 0.089 Uiso 0.312(9) 1 calc R U P A 2
H10B H 0.2038 0.4582 -0.1221 0.089 Uiso 0.312(9) 1 calc R U P A 2
C17 C 0.299(2) 0.504(2) -0.0864(14) 0.075(5) Uiso 0.312(9) 1 d D . P A 2
H17A H 0.2953 0.5536 -0.0734 0.089 Uiso 0.312(9) 1 calc R U P A 2
H17B H 0.3292 0.4666 -0.0561 0.089 Uiso 0.312(9) 1 calc R U P A 2
C18 C 0.359(3) 0.497(3) -0.1497(15) 0.075(5) Uiso 0.312(9) 1 d D . P A 2
H18A H 0.4240 0.5049 -0.1487 0.112 Uiso 0.312(9) 1 calc R U P A 2
H18B H 0.3630 0.4481 -0.1620 0.112 Uiso 0.312(9) 1 calc R U P A 2
H18C H 0.3292 0.5348 -0.1792 0.112 Uiso 0.312(9) 1 calc R U P A 2
C31A C 0.070(3) 0.4418(16) 0.2019(7) 0.039(6) Uani 0.312(9) 1 d D U P A 2
C32A C 0.1242(17) 0.4938(12) 0.1819(7) 0.047(6) Uani 0.312(9) 1 d D U P A 2
H32A H 0.1424 0.5184 0.2114 0.056 Uiso 0.312(9) 1 calc R U P A 2
loop_
_atom_site_aniso_label
_atom_site_aniso_U_11
_atom_site_aniso_U_22
_atom_site_aniso_U_33
_atom_site_aniso_U_23
_atom_site_aniso_U_13
_atom_site_aniso_U_12
Au1 0.02080(11) 0.02593(12) 0.02039(11) -0.00038(8) -0.00508(8) -0.00083(8)
Au2 0.02297(11) 0.02406(12) 0.02259(11) -0.00012(8) -0.00640(8) -0.00363(8)
Au4 0.03050(13) 0.04653(17) 0.04229(15) 0.01385(11) -0.01124(11) -0.00442(11)
Au3 0.04622(17) 0.0597(2) 0.04451(17) -0.02268(14) -0.00073(13) -0.00324(13)
Cl1 0.111(2) 0.0551(14) 0.0751(15) -0.0110(11) -0.0033(14) -0.0125(13)
Cl2 0.0447(11) 0.0948(17) 0.0798(15) -0.0475(13) -0.0053(10) 0.0015(10)
Cl3 0.0680(16) 0.182(3) 0.0694(15) -0.0513(17) -0.0100(12) -0.0382(17)
Cl4 0.0998(18) 0.0772(16) 0.0509(12) -0.0126(11) 0.0164(12) -0.0011(13)
Cl5 0.0502(10) 0.0529(11) 0.0519(11) 0.0072(8) -0.0224(8) -0.0027(8)
Cl6 0.0473(10) 0.0516(11) 0.0503(10) 0.0092(8) -0.0197(8) -0.0059(8)
N1 0.026(2) 0.024(3) 0.020(2) -0.0040(18) -0.0060(19) -0.0006(19)
N2 0.020(2) 0.027(3) 0.026(2) -0.0021(19) -0.0065(19) -0.0014(19)
N4 0.026(3) 0.031(3) 0.022(2) 0.0031(19) -0.0083(19) -0.001(2)
N3 0.026(2) 0.029(3) 0.019(2) -0.0023(19) -0.0021(19) -0.001(2)
N5 0.023(2) 0.024(3) 0.024(2) 0.0004(18) -0.0083(19) -0.0065(19)
N7 0.023(2) 0.027(3) 0.025(2) -0.0027(19) -0.0066(19) -0.0038(19)
N6 0.030(3) 0.031(3) 0.025(2) -0.002(2) -0.011(2) -0.002(2)
N8 0.028(3) 0.033(3) 0.020(2) 0.0040(19) -0.0081(19) -0.008(2)
C1 0.023(3) 0.030(3) 0.027(3) -0.001(2) -0.007(2) -0.005(2)
C1A 0.027(3) 0.026(3) 0.020(3) 0.003(2) -0.007(2) -0.006(2)
C1B 0.019(3) 0.032(3) 0.026(3) -0.005(2) -0.009(2) 0.003(2)
C1D 0.023(3) 0.032(3) 0.028(3) 0.000(2) -0.010(2) 0.001(2)
C1C 0.029(3) 0.032(3) 0.023(3) 0.001(2) -0.006(2) 0.000(2)
C2 0.021(3) 0.026(3) 0.025(3) 0.003(2) -0.004(2) -0.002(2)
C2A 0.022(3) 0.029(3) 0.021(3) 0.001(2) -0.004(2) -0.004(2)
C2B 0.023(3) 0.024(3) 0.030(3) -0.001(2) -0.003(2) -0.004(2)
C2C 0.024(3) 0.029(3) 0.022(3) 0.000(2) -0.005(2) -0.001(2)
C2D 0.022(3) 0.026(3) 0.033(3) -0.004(2) -0.004(2) 0.002(2)
C3 0.033(3) 0.035(4) 0.023(3) 0.002(2) -0.003(2) -0.004(3)
C3A 0.023(3) 0.024(3) 0.026(3) 0.002(2) -0.006(2) -0.001(2)
C3B 0.029(3) 0.032(3) 0.022(3) -0.001(2) -0.008(2) 0.003(2)
C3C 0.030(3) 0.036(4) 0.025(3) -0.002(2) -0.010(3) 0.001(3)
C3D 0.035(3) 0.041(4) 0.025(3) -0.001(3) -0.013(3) 0.006(3)
C4 0.025(3) 0.035(4) 0.029(3) -0.005(3) -0.007(2) -0.001(2)
C4A 0.031(3) 0.033(3) 0.015(3) -0.004(2) 0.003(2) -0.002(2)
C4B 0.024(3) 0.034(3) 0.025(3) -0.006(2) -0.003(2) 0.001(2)
C4C 0.034(3) 0.049(4) 0.020(3) -0.002(3) -0.005(3) 0.002(3)
C4D 0.029(3) 0.048(4) 0.028(3) -0.006(3) -0.009(3) 0.002(3)
C5 0.028(3) 0.028(3) 0.036(3) 0.001(2) -0.011(3) -0.001(2)
C5A 0.023(3) 0.028(3) 0.032(3) -0.005(2) -0.013(2) 0.001(2)
C5B 0.021(3) 0.028(3) 0.024(3) -0.002(2) -0.005(2) -0.004(2)
C5C 0.032(3) 0.033(3) 0.030(3) -0.003(2) -0.015(3) -0.005(3)
C5D 0.031(3) 0.033(3) 0.028(3) 0.001(2) -0.010(3) -0.005(3)
C6 0.037(3) 0.028(3) 0.029(3) -0.002(2) -0.007(3) -0.007(3)
C6A 0.025(3) 0.033(4) 0.044(4) 0.003(3) -0.012(3) -0.009(2)
C6B 0.038(3) 0.032(3) 0.025(3) 0.005(2) -0.004(3) -0.017(3)
C6C 0.047(4) 0.043(4) 0.053(4) 0.007(3) -0.020(3) -0.023(3)
C6D 0.045(4) 0.051(4) 0.044(4) 0.010(3) -0.013(3) -0.023(3)
C7 0.026(3) 0.036(3) 0.021(3) -0.005(2) -0.005(2) -0.007(2)
C7A 0.037(3) 0.023(3) 0.021(3) 0.006(2) -0.005(2) -0.009(2)
C7B 0.029(3) 0.029(3) 0.021(3) -0.001(2) -0.008(2) -0.002(2)
C7C 0.033(3) 0.027(3) 0.033(3) 0.004(2) -0.011(3) 0.000(3)
C7D 0.033(3) 0.028(3) 0.029(3) 0.002(2) -0.010(3) 0.000(3)
C8 0.026(3) 0.020(3) 0.030(3) -0.003(2) -0.006(2) -0.002(2)
C8A 0.028(3) 0.030(3) 0.022(3) 0.002(2) -0.010(2) -0.005(2)
C8B 0.024(3) 0.022(3) 0.027(3) 0.000(2) -0.007(2) -0.006(2)
C8C 0.023(3) 0.028(3) 0.026(3) -0.004(2) -0.011(2) -0.003(2)
C8D 0.029(3) 0.025(3) 0.031(3) 0.000(2) -0.006(2) -0.004(2)
C11 0.026(3) 0.026(3) 0.023(3) -0.003(2) -0.007(2) 0.002(2)
C12 0.024(3) 0.040(4) 0.025(3) -0.002(2) -0.006(2) -0.005(2)
C13 0.026(3) 0.047(4) 0.028(3) -0.004(3) 0.000(2) -0.010(3)
C14 0.033(3) 0.039(4) 0.024(3) -0.002(2) -0.007(2) -0.008(3)
C15 0.032(3) 0.037(4) 0.024(3) 0.000(2) -0.009(2) -0.007(3)
C16 0.022(3) 0.032(3) 0.028(3) 0.000(2) -0.007(2) -0.003(2)
C21 0.025(3) 0.032(3) 0.019(3) 0.002(2) -0.007(2) -0.002(2)
C22 0.033(3) 0.042(4) 0.028(3) 0.004(3) -0.008(3) -0.007(3)
C23 0.024(3) 0.047(4) 0.033(3) -0.004(3) -0.005(3) -0.003(3)
C24 0.021(3) 0.039(4) 0.032(3) -0.005(3) -0.012(2) 0.003(2)
C25 0.031(3) 0.027(3) 0.027(3) 0.000(2) -0.011(2) 0.006(2)
C26 0.023(3) 0.034(3) 0.028(3) -0.002(2) -0.003(2) -0.005(2)
C31 0.028(8) 0.036(5) 0.019(4) 0.003(3) -0.006(3) 0.009(4)
C32 0.077(8) 0.039(5) 0.027(4) 0.003(3) 0.010(4) 0.003(4)
C33 0.107(11) 0.058(6) 0.026(4) 0.007(4) 0.011(5) 0.008(5)
C34 0.068(9) 0.064(6) 0.026(4) 0.001(3) 0.000(4) 0.010(5)
C35 0.056(6) 0.057(6) 0.027(4) -0.010(3) -0.009(4) 0.013(4)
C36 0.034(5) 0.045(5) 0.028(4) -0.008(3) -0.008(3) 0.007(4)
C41 0.024(3) 0.034(3) 0.024(3) -0.005(2) -0.005(2) 0.007(2)
C42 0.027(3) 0.031(3) 0.031(3) -0.011(3) -0.007(2) 0.004(2)
C43 0.030(3) 0.040(4) 0.032(3) -0.006(3) -0.011(3) -0.001(3)
C44 0.027(3) 0.045(4) 0.023(3) -0.009(3) -0.004(2) 0.007(3)
C45 0.035(4) 0.039(4) 0.035(3) -0.016(3) -0.011(3) 0.005(3)
C46 0.029(3) 0.045(4) 0.033(3) -0.008(3) -0.014(3) 0.002(3)
C51 0.039(4) 0.027(3) 0.039(4) -0.001(3) -0.020(3) -0.009(3)
C52 0.035(4) 0.032(4) 0.055(4) -0.007(3) -0.017(3) -0.004(3)
C53 0.036(4) 0.040(4) 0.062(5) -0.014(3) -0.018(3) -0.005(3)
C54 0.042(4) 0.029(4) 0.059(4) 0.000(3) -0.032(3) -0.011(3)
C55 0.037(4) 0.035(4) 0.043(4) -0.004(3) -0.019(3) -0.008(3)
C56 0.034(3) 0.029(3) 0.047(4) 0.001(3) -0.019(3) -0.006(3)
C61 0.040(4) 0.035(4) 0.028(3) 0.005(3) -0.011(3) -0.012(3)
C62 0.089(6) 0.047(5) 0.041(4) 0.000(3) -0.020(4) -0.030(4)
C63 0.120(8) 0.042(5) 0.064(5) 0.007(4) -0.033(5) -0.043(5)
C64 0.076(6) 0.054(5) 0.066(5) 0.024(4) -0.028(4) -0.032(4)
C65 0.049(4) 0.042(4) 0.035(4) 0.010(3) -0.009(3) -0.007(3)
C66 0.029(3) 0.039(4) 0.038(4) 0.004(3) -0.007(3) -0.007(3)
C71 0.032(3) 0.028(3) 0.033(3) 0.002(2) -0.014(3) -0.005(2)
C72 0.028(3) 0.034(3) 0.031(3) 0.000(3) -0.008(3) -0.005(2)
C73 0.033(3) 0.038(4) 0.030(3) 0.002(3) -0.014(3) -0.008(3)
C74 0.028(3) 0.038(4) 0.037(3) 0.001(3) -0.014(3) -0.008(3)
C75 0.027(3) 0.041(4) 0.040(4) 0.003(3) -0.007(3) -0.011(3)
C76 0.032(3) 0.031(3) 0.033(3) 0.005(3) -0.010(3) -0.005(3)
C81 0.022(3) 0.027(3) 0.026(3) -0.004(2) -0.009(2) -0.006(2)
C82 0.025(3) 0.030(3) 0.029(3) -0.005(2) -0.008(2) -0.003(2)
C83 0.031(3) 0.032(3) 0.032(3) -0.002(3) -0.003(3) -0.010(3)
C84 0.034(3) 0.027(3) 0.026(3) -0.001(2) -0.006(2) -0.006(2)
C85 0.026(3) 0.025(3) 0.030(3) 0.003(2) -0.009(2) -0.001(2)
C86 0.025(3) 0.030(3) 0.026(3) -0.001(2) -0.005(2) -0.005(2)
O1 0.037(2) 0.064(3) 0.021(2) 0.001(2) -0.0020(18) -0.014(2)
C1B1 0.051(4) 0.045(4) 0.027(3) 0.008(3) -0.018(3) -0.011(3)
C1B2 0.044(4) 0.049(4) 0.031(3) 0.002(3) -0.006(3) -0.011(3)
C1B3 0.064(5) 0.057(5) 0.028(4) 0.011(3) -0.016(3) -0.020(4)
C1B4 0.084(6) 0.097(7) 0.037(4) 0.018(4) -0.017(4) -0.028(5)
O2 0.026(2) 0.041(3) 0.048(3) -0.008(2) -0.0139(19) 0.0060(18)
C2B1 0.041(4) 0.031(4) 0.053(4) -0.004(3) -0.018(3) 0.004(3)
C2B2 0.051(5) 0.058(5) 0.058(5) -0.010(4) -0.021(4) 0.007(4)
C2B3 0.058(5) 0.061(5) 0.066(5) -0.006(4) -0.021(4) 0.009(4)
C2B4 0.050(6) 0.112(9) 0.138(10) -0.063(8) 0.002(6) 0.013(5)
O3 0.105(7) 0.085(6) 0.023(3) 0.003(3) 0.006(4) 0.032(5)
C3B1 0.118(10) 0.094(8) 0.058(6) 0.022(5) 0.013(6) 0.040(7)
C3B2 0.104(8) 0.119(16) 0.044(6) 0.017(7) 0.008(5) 0.023(7)
C3B3 0.088(8) 0.054(9) 0.056(7) -0.025(6) -0.003(5) 0.002(6)
C3B4 0.079(10) 0.122(16) 0.063(7) -0.025(7) -0.008(7) -0.008(9)
O4 0.032(2) 0.045(3) 0.044(3) -0.014(2) -0.013(2) 0.0128(19)
C4B1 0.041(4) 0.035(4) 0.048(4) -0.010(3) -0.007(3) 0.002(3)
C4B2 0.035(4) 0.030(4) 0.045(4) 0.003(3) -0.003(3) 0.010(3)
C4B3 0.040(4) 0.041(4) 0.043(4) -0.004(3) -0.008(3) 0.004(3)
C4B4 0.036(4) 0.061(5) 0.087(6) -0.019(4) -0.003(4) 0.002(4)
O5 0.040(3) 0.056(3) 0.071(3) -0.021(3) -0.027(2) -0.009(2)
C5B1 0.043(4) 0.075(6) 0.083(6) -0.033(5) -0.033(4) -0.003(4)
C5B2 0.052(5) 0.055(5) 0.091(6) -0.023(4) -0.042(4) -0.007(4)
C5B3 0.081(6) 0.074(6) 0.090(7) 0.002(5) -0.054(5) -0.024(5)
C5B4 0.098(8) 0.123(9) 0.090(7) -0.002(6) -0.068(6) -0.036(7)
O6 0.134(6) 0.073(5) 0.082(4) 0.040(3) -0.026(4) -0.059(4)
C6B1 0.233(18) 0.122(12) 0.131(11) 0.057(9) -0.084(12) -0.134(13)
C6B2 0.161(13) 0.100(10) 0.089(9) -0.033(8) -0.019(9) -0.048(9)
C6B3 0.140(10) 0.062(7) 0.066(6) 0.001(5) 0.018(6) -0.022(6)
C6B4 0.123(11) 0.057(8) 0.254(18) 0.011(9) -0.005(11) 0.004(7)
O7 0.032(2) 0.068(3) 0.039(3) 0.002(2) -0.014(2) -0.018(2)
C7B1 0.031(3) 0.058(4) 0.033(3) 0.001(3) -0.014(3) -0.011(3)
C7B2 0.037(4) 0.076(6) 0.049(4) -0.007(4) -0.011(3) -0.022(4)
C7B3 0.033(4) 0.067(5) 0.051(4) -0.016(4) -0.017(3) -0.016(3)
C7B4 0.056(5) 0.059(5) 0.057(5) -0.009(4) -0.026(4) 0.003(4)
O8 0.034(2) 0.026(2) 0.037(2) 0.0040(17) -0.0008(18) -0.0039(17)
C8B1 0.035(3) 0.028(3) 0.030(3) 0.003(2) -0.006(3) -0.001(3)
C8B2 0.041(4) 0.036(4) 0.035(4) 0.004(3) -0.002(3) -0.004(3)
C8B3 0.046(4) 0.035(4) 0.051(4) 0.001(3) 0.003(3) -0.005(3)
C8B4 0.061(5) 0.037(4) 0.051(4) 0.008(3) 0.000(4) -0.009(3)
C1U 0.058(6) 0.038(5) 0.129(9) 0.009(5) 0.003(6) -0.012(4)
O1U 0.049(4) 0.082(5) 0.111(5) -0.009(4) -0.013(4) -0.007(3)
C2U 0.085(7) 0.067(7) 0.129(10) 0.030(6) -0.001(7) -0.014(5)
O2U 0.044(4) 0.058(4) 0.173(7) 0.008(4) -0.016(4) -0.018(3)
O4U 0.037(4) 0.159(7) 0.110(6) 0.002(5) -0.001(3) 0.004(4)
C3U 0.044(5) 0.063(6) 0.119(8) -0.012(5) -0.022(5) -0.016(4)
C4U 0.054(6) 0.107(8) 0.115(9) -0.015(7) -0.020(6) -0.033(5)
O3U 0.040(3) 0.085(5) 0.152(6) -0.050(4) -0.014(4) -0.009(3)
C33A 0.071(14) 0.065(13) 0.024(7) -0.009(7) 0.001(7) -0.027(12)
C34A 0.053(12) 0.044(11) 0.018(7) -0.003(6) -0.006(7) -0.002(10)
C35A 0.070(10) 0.067(10) 0.045(7) 0.002(6) -0.010(6) -0.024(8)
C36A 0.054(9) 0.066(9) 0.043(7) 0.005(6) -0.012(6) -0.019(7)
C31A 0.018(11) 0.053(13) 0.038(8) 0.000(7) -0.003(6) 0.003(10)
C32A 0.053(13) 0.072(13) 0.019(7) -0.007(6) 0.000(7) -0.024(11)
loop_
_atom_type_symbol
_atom_type_description
_atom_type_scat_dispersion_real
_atom_type_scat_dispersion_imag
_atom_type_scat_source
C C 0.0033 0.0016 'International Tables Vol C Tables 4.2.6.8 and 6.1.1.4'
H H 0.0000 0.0000 'International Tables Vol C Tables 4.2.6.8 and 6.1.1.4'
Au Au -2.0133 8.8022 'International Tables Vol C Tables 4.2.6.8 and 6.1.1.4'
Cl Cl 0.1484 0.1585 'International Tables Vol C Tables 4.2.6.8 and 6.1.1.4'
N N 0.0061 0.0033 'International Tables Vol C Tables 4.2.6.8 and 6.1.1.4'
O O 0.0106 0.0060 'International Tables Vol C Tables 4.2.6.8 and 6.1.1.4'
loop_
_geom_angle_atom_site_label_1
_geom_angle_atom_site_label_2
_geom_angle_atom_site_label_3
_geom_angle
_geom_angle_site_symmetry_1
_geom_angle_site_symmetry_3
_geom_angle_publ_flag
N1 Au1 N2 89.70(17) . . ?
N1 Au1 N3 179.17(17) . . ?
N4 Au1 N1 89.91(17) . . ?
N4 Au1 N2 179.44(17) . . ?
N4 Au1 N3 90.05(17) . . ?
N3 Au1 N2 90.35(17) . . ?
N5 Au2 N8 89.68(17) . . ?
N7 Au2 N5 178.71(18) . . ?
N7 Au2 N6 89.98(17) . . ?
N7 Au2 N8 90.42(17) . . ?
N6 Au2 N5 89.95(17) . . ?
N6 Au2 N8 178.36(19) . . ?
Cl6 Au4 Cl5 178.34(6) . . ?
Cl1 Au3 Cl4 178.29(9) . . ?
Cl2 Au3 Cl1 89.41(10) . . ?
Cl2 Au3 Cl4 89.17(10) . . ?
Cl3 Au3 Cl1 91.47(11) . . ?
Cl3 Au3 Cl2 179.00(10) . . ?
Cl3 Au3 Cl4 89.96(11) . . ?
C1A N1 Au1 125.6(4) . . ?
C1B N1 Au1 126.0(3) . . ?
C1B N1 C1A 107.1(4) . . ?
C2A N2 Au1 126.7(3) . . ?
C2A N2 C2B 107.1(4) . . ?
C2B N2 Au1 125.7(3) . . ?
C4A N4 Au1 126.6(4) . . ?
C4B N4 Au1 126.6(3) . . ?
C4B N4 C4A 106.5(4) . . ?
C3A N3 Au1 125.3(3) . . ?
C3B N3 Au1 126.3(4) . . ?
C3B N3 C3A 107.7(4) . . ?
C5A N5 Au2 125.2(3) . . ?
C5B N5 Au2 126.4(3) . . ?
C5B N5 C5A 107.5(4) . . ?
C7A N7 Au2 125.6(3) . . ?
C7B N7 Au2 125.7(3) . . ?
C7B N7 C7A 107.0(4) . . ?
C6A N6 Au2 126.3(4) . . ?
C6B N6 Au2 127.0(4) . . ?
C6B N6 C6A 106.5(5) . . ?
C8A N8 Au2 125.7(4) . . ?
C8B N8 Au2 126.4(3) . . ?
C8B N8 C8A 107.1(4) . . ?
C1A C1 C2A 123.5(5) . . ?
C1A C1 C11 117.0(5) . . ?
C2A C1 C11 119.4(5) . . ?
N1 C1A C1C 107.3(5) . . ?
C1 C1A N1 126.2(5) . . ?
C1 C1A C1C 126.3(5) . . ?
N1 C1B C1D 109.1(5) . . ?
N1 C1B C4 126.8(5) . . ?
C4 C1B C1D 124.1(5) . . ?
C1B C1D H1D 126.3 . . ?
C1C C1D C1B 107.4(5) . . ?
C1C C1D H1D 126.3 . . ?
C1A C1C H1C 125.4 . . ?
C1D C1C C1A 109.1(5) . . ?
C1D C1C H1C 125.4 . . ?
C2B C2 C21 118.4(5) . . ?
C3A C2 C2B 123.4(5) . . ?
C3A C2 C21 118.1(5) . . ?
N2 C2A C1 125.6(5) . . ?
N2 C2A C2C 108.4(5) . . ?
C1 C2A C2C 125.9(5) . . ?
N2 C2B C2 125.9(5) . . ?
N2 C2B C2D 108.2(5) . . ?
C2 C2B C2D 125.7(5) . . ?
C2A C2C H2C 125.8 . . ?
C2D C2C C2A 108.3(5) . . ?
C2D C2C H2C 125.8 . . ?
C2B C2D H2D 126.0 . . ?
C2C C2D C2B 107.9(5) . . ?
C2C C2D H2D 126.0 . . ?
C3B C3 C4A 124.0(5) . . ?
C3B C3 C31 117.9(8) . . ?
C3B C3 C31A 118.8(17) . . ?
C4A C3 C31 118.0(8) . . ?
C4A C3 C31A 115.7(17) . . ?
N3 C3A C3C 107.4(5) . . ?
C2 C3A N3 127.0(5) . . ?
C2 C3A C3C 125.4(5) . . ?
N3 C3B C3 126.3(5) . . ?
N3 C3B C3D 108.4(5) . . ?
C3 C3B C3D 125.4(5) . . ?
C3A C3C H3C 125.8 . . ?
C3D C3C C3A 108.5(5) . . ?
C3D C3C H3C 125.8 . . ?
C3B C3D H3D 126.0 . . ?
C3C C3D C3B 108.0(5) . . ?
C3C C3D H3D 126.0 . . ?
C1B C4 C4B 122.7(5) . . ?
C1B C4 C41 119.0(5) . . ?
C4B C4 C41 118.3(5) . . ?
N4 C4A C4C 108.7(5) . . ?
C3 C4A N4 126.1(5) . . ?
C3 C4A C4C 125.2(5) . . ?
N4 C4B C4 126.8(5) . . ?
N4 C4B C4D 109.5(5) . . ?
C4 C4B C4D 123.7(5) . . ?
C4A C4C H4C 125.8 . . ?
C4D C4C C4A 108.4(5) . . ?
C4D C4C H4C 125.8 . . ?
C4B C4D H4D 126.5 . . ?
C4C C4D C4B 106.9(5) . . ?
C4C C4D H4D 126.5 . . ?
C5A C5 C51 117.5(5) . . ?
C6A C5 C5A 124.0(5) . . ?
C6A C5 C51 118.5(5) . . ?
N5 C5A C5C 107.6(5) . . ?
C5 C5A N5 126.6(5) . . ?
C5 C5A C5C 125.7(5) . . ?
N5 C5B C5D 108.4(5) . . ?
N5 C5B C8 126.1(5) . . ?
C8 C5B C5D 125.5(5) . . ?
C5A C5C H5C 125.4 . . ?
C5D C5C C5A 109.1(5) . . ?
C5D C5C H5C 125.4 . . ?
C5B C5D H5D 126.3 . . ?
C5C C5D C5B 107.3(5) . . ?
C5C C5D H5D 126.3 . . ?
C6B C6 C61 116.4(5) . . ?
C7A C6 C6B 124.4(5) . . ?
C7A C6 C61 119.2(5) . . ?
N6 C6A C6C 108.1(5) . . ?
C5 C6A N6 126.1(5) . . ?
C5 C6A C6C 125.8(5) . . ?
N6 C6B C6 124.6(5) . . ?
N6 C6B C6D 109.5(5) . . ?
C6 C6B C6D 125.7(5) . . ?
C6A C6C H6C 125.7 . . ?
C6D C6C C6A 108.6(6) . . ?
C6D C6C H6C 125.7 . . ?
C6B C6D H6D 126.5 . . ?
C6C C6D C6B 107.0(5) . . ?
C6C C6D H6D 126.5 . . ?
C7B C7 C71 117.5(5) . . ?
C8A C7 C7B 123.9(5) . . ?
C8A C7 C71 118.6(5) . . ?
N7 C7A C7C 108.4(5) . . ?
C6 C7A N7 126.0(5) . . ?
C6 C7A C7C 125.7(5) . . ?
N7 C7B C7 125.7(5) . . ?
N7 C7B C7D 108.3(5) . . ?
C7 C7B C7D 126.0(5) . . ?
C7A C7C H7C 125.9 . . ?
C7D C7C C7A 108.1(5) . . ?
C7D C7C H7C 125.9 . . ?
C7B C7D H7D 125.9 . . ?
C7C C7D C7B 108.2(5) . . ?
C7C C7D H7D 125.9 . . ?
C5B C8 C8B 124.1(5) . . ?
C5B C8 C81 117.1(5) . . ?
C8B C8 C81 118.8(5) . . ?
N8 C8A C7 126.0(5) . . ?
N8 C8A C8C 108.7(4) . . ?
C7 C8A C8C 125.3(5) . . ?
N8 C8B C8 125.5(5) . . ?
N8 C8B C8D 108.6(4) . . ?
C8 C8B C8D 125.8(5) . . ?
C8A C8C H8C 125.9 . . ?
C8D C8C C8A 108.2(5) . . ?
C8D C8C H8C 125.9 . . ?
C8B C8D H8D 126.3 . . ?
C8C C8D C8B 107.3(5) . . ?
C8C C8D H8D 126.3 . . ?
C12 C11 C1 122.3(5) . . ?
C16 C11 C1 119.9(5) . . ?
C16 C11 C12 117.6(5) . . ?
C11 C12 H12 119.6 . . ?
C13 C12 C11 120.8(5) . . ?
C13 C12 H12 119.6 . . ?
C12 C13 H13 119.6 . . ?
C12 C13 C14 120.8(5) . . ?
C14 C13 H13 119.6 . . ?
C15 C14 C13 118.9(5) . . ?
O1 C14 C13 116.8(5) . . ?
O1 C14 C15 124.2(5) . . ?
C14 C15 H15 120.0 . . ?
C16 C15 C14 120.0(5) . . ?
C16 C15 H15 120.0 . . ?
C11 C16 H16 119.1 . . ?
C15 C16 C11 121.9(5) . . ?
C15 C16 H16 119.1 . . ?
C22 C21 C2 122.1(5) . . ?
C22 C21 C26 117.9(5) . . ?
C26 C21 C2 120.1(5) . . ?
C21 C22 H22 119.4 . . ?
C21 C22 C23 121.1(6) . . ?
C23 C22 H22 119.4 . . ?
C22 C23 H23 120.1 . . ?
C24 C23 C22 119.8(6) . . ?
C24 C23 H23 120.1 . . ?
C25 C24 C23 119.7(5) . . ?
O2 C24 C23 116.0(5) . . ?
O2 C24 C25 124.3(5) . . ?
C24 C25 H25 120.0 . . ?
C24 C25 C26 120.0(5) . . ?
C26 C25 H25 120.0 . . ?
C21 C26 H26 119.2 . . ?
C25 C26 C21 121.5(5) . . ?
C25 C26 H26 119.2 . . ?
C32 C31 C3 118.3(9) . . ?
C32 C31 C36 117.2(8) . . ?
C36 C31 C3 124.1(9) . . ?
C31 C32 H32 118.6 . . ?
C31 C32 C33 122.9(10) . . ?
C33 C32 H32 118.6 . . ?
C32 C33 H33 120.7 . . ?
C34 C33 C32 118.5(11) . . ?
C34 C33 H33 120.7 . . ?
C33 C34 C35 120.7(9) . . ?
C33 C34 O3 123.0(12) . . ?
C35 C34 O3 116.1(12) . . ?
C34 C35 H35 119.7 . . ?
C34 C35 C36 120.5(10) . . ?
C36 C35 H35 119.7 . . ?
C31 C36 H36 120.0 . . ?
C35 C36 C31 119.9(10) . . ?
C35 C36 H36 120.0 . . ?
C42 C41 C4 120.3(5) . . ?
C46 C41 C4 121.4(5) . . ?
C46 C41 C42 118.2(5) . . ?
C41 C42 H42 119.4 . . ?
C43 C42 C41 121.2(5) . . ?
C43 C42 H42 119.4 . . ?
C42 C43 H43 120.1 . . ?
C42 C43 C44 119.7(5) . . ?
C44 C43 H43 120.1 . . ?
C45 C44 C43 120.1(5) . . ?
O4 C44 C43 115.6(5) . . ?
O4 C44 C45 124.3(5) . . ?
C44 C45 H45 120.3 . . ?
C46 C45 C44 119.5(6) . . ?
C46 C45 H45 120.3 . . ?
C41 C46 H46 119.4 . . ?
C45 C46 C41 121.2(5) . . ?
C45 C46 H46 119.4 . . ?
C52 C51 C5 124.3(6) . . ?
C52 C51 C56 118.1(5) . . ?
C56 C51 C5 117.5(5) . . ?
C51 C52 H52 118.7 . . ?
C53 C52 C51 122.6(6) . . ?
C53 C52 H52 118.7 . . ?
C52 C53 H53 121.1 . . ?
C52 C53 C54 117.9(6) . . ?
C54 C53 H53 121.1 . . ?
C55 C54 C53 121.0(5) . . ?
O5 C54 C53 124.4(6) . . ?
O5 C54 C55 114.6(6) . . ?
C54 C55 H55 120.3 . . ?
C56 C55 C54 119.4(6) . . ?
C56 C55 H55 120.3 . . ?
C51 C56 H56 119.5 . . ?
C55 C56 C51 121.0(6) . . ?
C55 C56 H56 119.5 . . ?
C62 C61 C6 120.7(5) . . ?
C62 C61 C66 117.8(6) . . ?
C66 C61 C6 121.4(5) . . ?
C61 C62 H62 119.5 . . ?
C61 C62 C63 121.1(7) . . ?
C63 C62 H62 119.5 . . ?
C62 C63 H63 120.3 . . ?
C64 C63 C62 119.4(7) . . ?
C64 C63 H63 120.3 . . ?
C65 C64 C63 119.0(6) . . ?
O6 C64 C63 125.0(7) . . ?
O6 C64 C65 116.0(7) . . ?
C64 C65 H65 119.3 . . ?
C66 C65 C64 121.4(6) . . ?
C66 C65 H65 119.3 . . ?
C61 C66 H66 119.4 . . ?
C65 C66 C61 121.3(6) . . ?
C65 C66 H66 119.4 . . ?
C72 C71 C7 120.3(5) . . ?
C72 C71 C76 117.9(5) . . ?
C76 C71 C7 121.8(5) . . ?
C71 C72 H72 118.9 . . ?
C73 C72 C71 122.3(5) . . ?
C73 C72 H72 118.9 . . ?
C72 C73 H73 120.5 . . ?
C74 C73 C72 119.1(5) . . ?
C74 C73 H73 120.5 . . ?
C73 C74 C75 120.2(5) . . ?
O7 C74 C73 124.5(5) . . ?
O7 C74 C75 115.3(5) . . ?
C74 C75 H75 120.0 . . ?
C76 C75 C74 120.0(5) . . ?
C76 C75 H75 120.0 . . ?
C71 C76 H76 119.7 . . ?
C75 C76 C71 120.6(5) . . ?
C75 C76 H76 119.7 . . ?
C82 C81 C8 121.8(5) . . ?
C86 C81 C8 120.4(5) . . ?
C86 C81 C82 117.8(5) . . ?
C81 C82 H82 119.5 . . ?
C83 C82 C81 121.0(5) . . ?
C83 C82 H82 119.5 . . ?
C82 C83 H83 119.8 . . ?
C82 C83 C84 120.4(5) . . ?
C84 C83 H83 119.8 . . ?
C85 C84 C83 119.7(5) . . ?
O8 C84 C83 115.4(5) . . ?
O8 C84 C85 124.9(5) . . ?
C84 C85 H85 120.4 . . ?
C84 C85 C86 119.3(5) . . ?
C86 C85 H85 120.4 . . ?
C81 C86 C85 121.7(5) . . ?
C81 C86 H86 119.2 . . ?
C85 C86 H86 119.2 . . ?
C14 O1 C1B1 117.1(4) . . ?
O1 C1B1 H1BA 110.2 . . ?
O1 C1B1 H1BB 110.2 . . ?
O1 C1B1 C1B2 107.7(5) . . ?
H1BA C1B1 H1BB 108.5 . . ?
C1B2 C1B1 H1BA 110.2 . . ?
C1B2 C1B1 H1BB 110.2 . . ?
C1B1 C1B2 H1BC 109.5 . . ?
C1B1 C1B2 H1BD 109.5 . . ?
C1B1 C1B2 C1B3 110.5(5) . . ?
H1BC C1B2 H1BD 108.1 . . ?
C1B3 C1B2 H1BC 109.5 . . ?
C1B3 C1B2 H1BD 109.5 . . ?
C1B2 C1B3 H1BE 109.4 . . ?
C1B2 C1B3 H1BF 109.4 . . ?
C1B2 C1B3 C1B4 111.3(6) . . ?
H1BE C1B3 H1BF 108.0 . . ?
C1B4 C1B3 H1BE 109.4 . . ?
C1B4 C1B3 H1BF 109.4 . . ?
C1B3 C1B4 H1BG 109.5 . . ?
C1B3 C1B4 H1BH 109.5 . . ?
C1B3 C1B4 H1BI 109.5 . . ?
H1BG C1B4 H1BH 109.5 . . ?
H1BG C1B4 H1BI 109.5 . . ?
H1BH C1B4 H1BI 109.5 . . ?
C24 O2 C2B1 117.2(5) . . ?
O2 C2B1 H2BA 109.7 . . ?
O2 C2B1 H2BB 109.7 . . ?
O2 C2B1 C2B2 109.7(6) . . ?
H2BA C2B1 H2BB 108.2 . . ?
C2B2 C2B1 H2BA 109.7 . . ?
C2B2 C2B1 H2BB 109.7 . . ?
C2B1 C2B2 H2BC 108.5 . . ?
C2B1 C2B2 H2BD 108.5 . . ?
H2BC C2B2 H2BD 107.5 . . ?
C2B3 C2B2 C2B1 114.9(6) . . ?
C2B3 C2B2 H2BC 108.5 . . ?
C2B3 C2B2 H2BD 108.5 . . ?
C2B2 C2B3 H2BE 110.0 . . ?
C2B2 C2B3 H2BF 110.0 . . ?
C2B2 C2B3 C2B4 108.4(7) . . ?
H2BE C2B3 H2BF 108.4 . . ?
C2B4 C2B3 H2BE 110.0 . . ?
C2B4 C2B3 H2BF 110.0 . . ?
C2B3 C2B4 H2BG 109.5 . . ?
C2B3 C2B4 H2BH 109.5 . . ?
C2B3 C2B4 H2BI 109.5 . . ?
H2BG C2B4 H2BH 109.5 . . ?
H2BG C2B4 H2BI 109.5 . . ?
H2BH C2B4 H2BI 109.5 . . ?
C34 O3 C3B1 117.6(10) . . ?
O3 C3B1 H3BA 109.6 . . ?
O3 C3B1 H3BB 109.6 . . ?
O3 C3B1 C3B2 110.3(13) . . ?
H3BA C3B1 H3BB 108.1 . . ?
C3B2 C3B1 H3BA 109.6 . . ?
C3B2 C3B1 H3BB 109.6 . . ?
C3B1 C3B2 H3BC 108.5 . . ?
C3B1 C3B2 H3BD 108.5 . . ?
C3B1 C3B2 C3B3 114.9(11) . . ?
H3BC C3B2 H3BD 107.5 . . ?
C3B3 C3B2 H3BC 108.5 . . ?
C3B3 C3B2 H3BD 108.5 . . ?
C3B2 C3B3 H3BE 110.0 . . ?
C3B2 C3B3 H3BF 110.0 . . ?
H3BE C3B3 H3BF 108.4 . . ?
C3B4 C3B3 C3B2 108.4(11) . . ?
C3B4 C3B3 H3BE 110.0 . . ?
C3B4 C3B3 H3BF 110.0 . . ?
C3B3 C3B4 H3BG 109.5 . . ?
C3B3 C3B4 H3BH 109.5 . . ?
C3B3 C3B4 H3BI 109.5 . . ?
H3BG C3B4 H3BH 109.5 . . ?
H3BG C3B4 H3BI 109.5 . . ?
H3BH C3B4 H3BI 109.5 . . ?
C44 O4 C4B1 117.5(5) . . ?
O4 C4B1 H4BA 110.4 . . ?
O4 C4B1 H4BB 110.4 . . ?
O4 C4B1 C4B2 106.6(5) . . ?
H4BA C4B1 H4BB 108.6 . . ?
C4B2 C4B1 H4BA 110.4 . . ?
C4B2 C4B1 H4BB 110.4 . . ?
C4B1 C4B2 H4BC 108.9 . . ?
C4B1 C4B2 H4BD 108.9 . . ?
C4B1 C4B2 C4B3 113.3(5) . . ?
H4BC C4B2 H4BD 107.7 . . ?
C4B3 C4B2 H4BC 108.9 . . ?
C4B3 C4B2 H4BD 108.9 . . ?
C4B2 C4B3 H4BE 108.9 . . ?
C4B2 C4B3 H4BF 108.9 . . ?
C4B2 C4B3 C4B4 113.3(6) . . ?
H4BE C4B3 H4BF 107.7 . . ?
C4B4 C4B3 H4BE 108.9 . . ?
C4B4 C4B3 H4BF 108.9 . . ?
C4B3 C4B4 H4BG 109.5 . . ?
C4B3 C4B4 H4BH 109.5 . . ?
C4B3 C4B4 H4BI 109.5 . . ?
H4BG C4B4 H4BH 109.5 . . ?
H4BG C4B4 H4BI 109.5 . . ?
H4BH C4B4 H4BI 109.5 . . ?
C54 O5 C5B1 117.5(5) . . ?
O5 C5B1 H5BA 110.6 . . ?
O5 C5B1 H5BB 110.6 . . ?
O5 C5B1 C5B2 105.6(6) . . ?
H5BA C5B1 H5BB 108.8 . . ?
C5B2 C5B1 H5BA 110.6 . . ?
C5B2 C5B1 H5BB 110.6 . . ?
C5B1 C5B2 H5BC 108.8 . . ?
C5B1 C5B2 H5BD 108.8 . . ?
H5BC C5B2 H5BD 107.7 . . ?
C5B3 C5B2 C5B1 113.8(7) . . ?
C5B3 C5B2 H5BC 108.8 . . ?
C5B3 C5B2 H5BD 108.8 . . ?
C5B2 C5B3 H5BE 109.2 . . ?
C5B2 C5B3 H5BF 109.2 . . ?
H5BE C5B3 H5BF 107.9 . . ?
C5B4 C5B3 C5B2 112.3(7) . . ?
C5B4 C5B3 H5BE 109.2 . . ?
C5B4 C5B3 H5BF 109.2 . . ?
C5B3 C5B4 H5BG 109.5 . . ?
C5B3 C5B4 H5BH 109.5 . . ?
C5B3 C5B4 H5BI 109.5 . . ?
H5BG C5B4 H5BH 109.5 . . ?
H5BG C5B4 H5BI 109.5 . . ?
H5BH C5B4 H5BI 109.5 . . ?
C64 O6 C6B1 120.7(8) . . ?
O6 C6B1 H6BA 110.3 . . ?
O6 C6B1 H6BB 110.3 . . ?
H6BA C6B1 H6BB 108.6 . . ?
C6B2 C6B1 O6 106.9(11) . . ?
C6B2 C6B1 H6BA 110.3 . . ?
C6B2 C6B1 H6BB 110.3 . . ?
C6B1 C6B2 H6BC 108.5 . . ?
C6B1 C6B2 H6BD 108.5 . . ?
C6B1 C6B2 C6B3 115.2(11) . . ?
H6BC C6B2 H6BD 107.5 . . ?
C6B3 C6B2 H6BC 108.5 . . ?
C6B3 C6B2 H6BD 108.5 . . ?
C6B2 C6B3 H6BE 109.6 . . ?
C6B2 C6B3 H6BF 109.6 . . ?
H6BE C6B3 H6BF 108.1 . . ?
C6B4 C6B3 C6B2 110.3(10) . . ?
C6B4 C6B3 H6BE 109.6 . . ?
C6B4 C6B3 H6BF 109.6 . . ?
C6B3 C6B4 H6BG 109.5 . . ?
C6B3 C6B4 H6BH 109.5 . . ?
C6B3 C6B4 H6BI 109.5 . . ?
H6BG C6B4 H6BH 109.5 . . ?
H6BG C6B4 H6BI 109.5 . . ?
H6BH C6B4 H6BI 109.5 . . ?
C74 O7 C7B1 116.8(4) . . ?
O7 C7B1 H7BA 110.0 . . ?
O7 C7B1 H7BB 110.0 . . ?
O7 C7B1 C7B2 108.5(5) . . ?
H7BA C7B1 H7BB 108.4 . . ?
C7B2 C7B1 H7BA 110.0 . . ?
C7B2 C7B1 H7BB 110.0 . . ?
C7B1 C7B2 H7BC 109.2 . . ?
C7B1 C7B2 H7BD 109.2 . . ?
C7B1 C7B2 C7B3 111.8(6) . . ?
H7BC C7B2 H7BD 107.9 . . ?
C7B3 C7B2 H7BC 109.2 . . ?
C7B3 C7B2 H7BD 109.2 . . ?
C7B2 C7B3 H7BE 108.8 . . ?
C7B2 C7B3 H7BF 108.8 . . ?
H7BE C7B3 H7BF 107.7 . . ?
C7B4 C7B3 C7B2 113.6(6) . . ?
C7B4 C7B3 H7BE 108.8 . . ?
C7B4 C7B3 H7BF 108.8 . . ?
C7B3 C7B4 H7BG 109.5 . . ?
C7B3 C7B4 H7BH 109.5 . . ?
C7B3 C7B4 H7BI 109.5 . . ?
H7BG C7B4 H7BH 109.5 . . ?
H7BG C7B4 H7BI 109.5 . . ?
H7BH C7B4 H7BI 109.5 . . ?
C84 O8 C8B1 117.7(4) . . ?
O8 C8B1 H8BA 110.1 . . ?
O8 C8B1 H8BB 110.1 . . ?
O8 C8B1 C8B2 107.9(5) . . ?
H8BA C8B1 H8BB 108.4 . . ?
C8B2 C8B1 H8BA 110.1 . . ?
C8B2 C8B1 H8BB 110.1 . . ?
C8B1 C8B2 H8BC 109.4 . . ?
C8B1 C8B2 H8BD 109.4 . . ?
C8B1 C8B2 C8B3 111.4(5) . . ?
H8BC C8B2 H8BD 108.0 . . ?
C8B3 C8B2 H8BC 109.4 . . ?
C8B3 C8B2 H8BD 109.4 . . ?
C8B2 C8B3 H8BE 109.1 . . ?
C8B2 C8B3 H8BF 109.1 . . ?
C8B2 C8B3 C8B4 112.4(6) . . ?
H8BE C8B3 H8BF 107.9 . . ?
C8B4 C8B3 H8BE 109.1 . . ?
C8B4 C8B3 H8BF 109.1 . . ?
C8B3 C8B4 H8BG 109.5 . . ?
C8B3 C8B4 H8BH 109.5 . . ?
C8B3 C8B4 H8BI 109.5 . . ?
H8BG C8B4 H8BH 109.5 . . ?
H8BG C8B4 H8BI 109.5 . . ?
H8BH C8B4 H8BI 109.5 . . ?
O1U C1U C2U 118.4(10) . . ?
O1U C1U O2U 124.3(11) . . ?
O2U C1U C2U 117.3(9) . . ?
C1U C2U H2UA 109.5 . . ?
C1U C2U H2UB 109.5 . . ?
C1U C2U H2UC 109.5 . . ?
H2UA C2U H2UB 109.5 . . ?
H2UA C2U H2UC 109.5 . . ?
H2UB C2U H2UC 109.5 . . ?
O4U C3U C4U 117.9(9) . . ?
O3U C3U O4U 121.5(10) . . ?
O3U C3U C4U 120.6(9) . . ?
C3U C4U H4UA 109.5 . . ?
C3U C4U H4UB 109.5 . . ?
C3U C4U H4UC 109.5 . . ?
H4UA C4U H4UB 109.5 . . ?
H4UA C4U H4UC 109.5 . . ?
H4UB C4U H4UC 109.5 . . ?
C34A C33A H33A 120.9 . . ?
C34A C33A C32A 118.3(17) . . ?
C32A C33A H33A 120.9 . . ?
C33A C34A C35A 122.8(15) . . ?
C33A C34A O3A 113.6(17) . . ?
C35A C34A O3A 123.5(17) . . ?
C34A C35A H35A 121.3 . . ?
C34A C35A C36A 117.3(17) . . ?
C36A C35A H35A 121.3 . . ?
C35A C36A H36A 119.3 . . ?
C31A C36A C35A 121.3(17) . . ?
C31A C36A H36A 119.3 . . ?
C34A O3A C9 118.1(17) . . ?
O3A C9 H9A 110.5 . . ?
O3A C9 H9B 110.5 . . ?
O3A C9 C10 106(2) . . ?
H9A C9 H9B 108.7 . . ?
C10 C9 H9A 110.5 . . ?
C10 C9 H9B 110.5 . . ?
C9 C10 H10A 108.7 . . ?
C9 C10 H10B 108.7 . . ?
C9 C10 C17 114(2) . . ?
H10A C10 H10B 107.6 . . ?
C17 C10 H10A 108.7 . . ?
C17 C10 H10B 108.7 . . ?
C10 C17 H17A 110.2 . . ?
C10 C17 H17B 110.2 . . ?
H17A C17 H17B 108.5 . . ?
C18 C17 C10 108(2) . . ?
C18 C17 H17A 110.2 . . ?
C18 C17 H17B 110.2 . . ?
C17 C18 H18A 109.5 . . ?
C17 C18 H18B 109.5 . . ?
C17 C18 H18C 109.5 . . ?
H18A C18 H18B 109.5 . . ?
H18A C18 H18C 109.5 . . ?
H18B C18 H18C 109.5 . . ?
C36A C31A C3 119.1(15) . . ?
C32A C31A C3 123.1(16) . . ?
C32A C31A C36A 117.8(14) . . ?
C33A C32A H32A 118.8 . . ?
C31A C32A C33A 122.4(16) . . ?
C31A C32A H32A 118.8 . . ?
loop_
_geom_bond_atom_site_label_1
_geom_bond_atom_site_label_2
_geom_bond_distance
_geom_bond_site_symmetry_2
_geom_bond_publ_flag
Au1 N1 2.020(4) . ?
Au1 N2 2.029(4) . ?
Au1 N4 2.013(5) . ?
Au1 N3 2.022(4) . ?
Au2 N5 2.022(4) . ?
Au2 N7 2.015(4) . ?
Au2 N6 2.017(5) . ?
Au2 N8 2.023(4) . ?
Au4 Cl5 2.2605(19) . ?
Au4 Cl6 2.2585(19) . ?
Au3 Cl1 2.274(2) . ?
Au3 Cl2 2.273(2) . ?
Au3 Cl3 2.260(2) . ?
Au3 Cl4 2.278(2) . ?
N1 C1A 1.400(7) . ?
N1 C1B 1.382(7) . ?
N2 C2A 1.387(6) . ?
N2 C2B 1.389(7) . ?
N4 C4A 1.389(6) . ?
N4 C4B 1.372(7) . ?
N3 C3A 1.389(7) . ?
N3 C3B 1.383(7) . ?
N5 C5A 1.391(6) . ?
N5 C5B 1.379(7) . ?
N7 C7A 1.394(7) . ?
N7 C7B 1.388(7) . ?
N6 C6A 1.387(7) . ?
N6 C6B 1.380(7) . ?
N8 C8A 1.389(6) . ?
N8 C8B 1.378(7) . ?
C1 C1A 1.387(8) . ?
C1 C2A 1.398(7) . ?
C1 C11 1.491(7) . ?
C1A C1C 1.430(7) . ?
C1B C1D 1.424(7) . ?
C1B C4 1.384(8) . ?
C1D H1D 0.9500 . ?
C1D C1C 1.343(8) . ?
C1C H1C 0.9500 . ?
C2 C2B 1.400(7) . ?
C2 C3A 1.383(7) . ?
C2 C21 1.494(7) . ?
C2A C2C 1.411(8) . ?
C2B C2D 1.419(8) . ?
C2C H2C 0.9500 . ?
C2C C2D 1.352(7) . ?
C2D H2D 0.9500 . ?
C3 C3B 1.386(8) . ?
C3 C4A 1.388(8) . ?
C3 C31 1.512(9) . ?
C3 C31A 1.506(15) . ?
C3A C3C 1.442(7) . ?
C3B C3D 1.431(7) . ?
C3C H3C 0.9500 . ?
C3C C3D 1.339(8) . ?
C3D H3D 0.9500 . ?
C4 C4B 1.401(7) . ?
C4 C41 1.486(7) . ?
C4A C4C 1.420(8) . ?
C4B C4D 1.432(8) . ?
C4C H4C 0.9500 . ?
C4C C4D 1.348(8) . ?
C4D H4D 0.9500 . ?
C5 C5A 1.380(8) . ?
C5 C6A 1.374(8) . ?
C5 C51 1.497(7) . ?
C5A C5C 1.423(8) . ?
C5B C5D 1.436(7) . ?
C5B C8 1.383(7) . ?
C5C H5C 0.9500 . ?
C5C C5D 1.341(8) . ?
C5D H5D 0.9500 . ?
C6 C6B 1.401(8) . ?
C6 C7A 1.380(8) . ?
C6 C61 1.499(8) . ?
C6A C6C 1.418(8) . ?
C6B C6D 1.413(8) . ?
C6C H6C 0.9500 . ?
C6C C6D 1.349(9) . ?
C6D H6D 0.9500 . ?
C7 C7B 1.393(8) . ?
C7 C8A 1.393(7) . ?
C7 C71 1.495(7) . ?
C7A C7C 1.429(7) . ?
C7B C7D 1.433(7) . ?
C7C H7C 0.9500 . ?
C7C C7D 1.345(8) . ?
C7D H7D 0.9500 . ?
C8 C8B 1.398(7) . ?
C8 C81 1.496(7) . ?
C8A C8C 1.415(7) . ?
C8B C8D 1.433(7) . ?
C8C H8C 0.9500 . ?
C8C C8D 1.357(7) . ?
C8D H8D 0.9500 . ?
C11 C12 1.402(8) . ?
C11 C16 1.397(7) . ?
C12 H12 0.9500 . ?
C12 C13 1.370(8) . ?
C13 H13 0.9500 . ?
C13 C14 1.399(8) . ?
C14 C15 1.386(8) . ?
C14 O1 1.367(7) . ?
C15 H15 0.9500 . ?
C15 C16 1.374(7) . ?
C16 H16 0.9500 . ?
C21 C22 1.387(8) . ?
C21 C26 1.393(7) . ?
C22 H22 0.9500 . ?
C22 C23 1.395(8) . ?
C23 H23 0.9500 . ?
C23 C24 1.390(8) . ?
C24 C25 1.378(8) . ?
C24 O2 1.371(6) . ?
C25 H25 0.9500 . ?
C25 C26 1.386(7) . ?
C26 H26 0.9500 . ?
C31 C32 1.367(14) . ?
C31 C36 1.391(14) . ?
C32 H32 0.9500 . ?
C32 C33 1.388(12) . ?
C33 H33 0.9500 . ?
C33 C34 1.349(16) . ?
C34 C35 1.361(16) . ?
C34 O3 1.383(11) . ?
C35 H35 0.9500 . ?
C35 C36 1.389(11) . ?
C36 H36 0.9500 . ?
C41 C42 1.398(8) . ?
C41 C46 1.394(8) . ?
C42 H42 0.9500 . ?
C42 C43 1.378(8) . ?
C43 H43 0.9500 . ?
C43 C44 1.392(8) . ?
C44 C45 1.391(8) . ?
C44 O4 1.377(7) . ?
C45 H45 0.9500 . ?
C45 C46 1.385(8) . ?
C46 H46 0.9500 . ?
C51 C52 1.381(8) . ?
C51 C56 1.395(8) . ?
C52 H52 0.9500 . ?
C52 C53 1.377(8) . ?
C53 H53 0.9500 . ?
C53 C54 1.400(9) . ?
C54 C55 1.382(9) . ?
C54 O5 1.374(7) . ?
C55 H55 0.9500 . ?
C55 C56 1.379(8) . ?
C56 H56 0.9500 . ?
C61 C62 1.382(9) . ?
C61 C66 1.389(8) . ?
C62 H62 0.9500 . ?
C62 C63 1.405(9) . ?
C63 H63 0.9500 . ?
C63 C64 1.393(11) . ?
C64 C65 1.369(10) . ?
C64 O6 1.363(8) . ?
C65 H65 0.9500 . ?
C65 C66 1.368(8) . ?
C66 H66 0.9500 . ?
C71 C72 1.394(8) . ?
C71 C76 1.399(8) . ?
C72 H72 0.9500 . ?
C72 C73 1.383(7) . ?
C73 H73 0.9500 . ?
C73 C74 1.379(8) . ?
C74 C75 1.402(8) . ?
C74 O7 1.370(6) . ?
C75 H75 0.9500 . ?
C75 C76 1.385(8) . ?
C76 H76 0.9500 . ?
C81 C82 1.396(7) . ?
C81 C86 1.391(7) . ?
C82 H82 0.9500 . ?
C82 C83 1.386(8) . ?
C83 H83 0.9500 . ?
C83 C84 1.394(8) . ?
C84 C85 1.382(8) . ?
C84 O8 1.363(6) . ?
C85 H85 0.9500 . ?
C85 C86 1.405(7) . ?
C86 H86 0.9500 . ?
O1 C1B1 1.444(7) . ?
C1B1 H1BA 0.9900 . ?
C1B1 H1BB 0.9900 . ?
C1B1 C1B2 1.506(8) . ?
C1B2 H1BC 0.9900 . ?
C1B2 H1BD 0.9900 . ?
C1B2 C1B3 1.531(8) . ?
C1B3 H1BE 0.9900 . ?
C1B3 H1BF 0.9900 . ?
C1B3 C1B4 1.539(9) . ?
C1B4 H1BG 0.9800 . ?
C1B4 H1BH 0.9800 . ?
C1B4 H1BI 0.9800 . ?
O2 C2B1 1.426(7) . ?
C2B1 H2BA 0.9900 . ?
C2B1 H2BB 0.9900 . ?
C2B1 C2B2 1.530(9) . ?
C2B2 H2BC 0.9900 . ?
C2B2 H2BD 0.9900 . ?
C2B2 C2B3 1.449(10) . ?
C2B3 H2BE 0.9900 . ?
C2B3 H2BF 0.9900 . ?
C2B3 C2B4 1.573(11) . ?
C2B4 H2BG 0.9800 . ?
C2B4 H2BH 0.9800 . ?
C2B4 H2BI 0.9800 . ?
O3 C3B1 1.449(14) . ?
C3B1 H3BA 0.9900 . ?
C3B1 H3BB 0.9900 . ?
C3B1 C3B2 1.519(15) . ?
C3B2 H3BC 0.9900 . ?
C3B2 H3BD 0.9900 . ?
C3B2 C3B3 1.550(15) . ?
C3B3 H3BE 0.9900 . ?
C3B3 H3BF 0.9900 . ?
C3B3 C3B4 1.524(14) . ?
C3B4 H3BG 0.9800 . ?
C3B4 H3BH 0.9800 . ?
C3B4 H3BI 0.9800 . ?
O4 C4B1 1.448(7) . ?
C4B1 H4BA 0.9900 . ?
C4B1 H4BB 0.9900 . ?
C4B1 C4B2 1.493(8) . ?
C4B2 H4BC 0.9900 . ?
C4B2 H4BD 0.9900 . ?
C4B2 C4B3 1.521(9) . ?
C4B3 H4BE 0.9900 . ?
C4B3 H4BF 0.9900 . ?
C4B3 C4B4 1.542(9) . ?
C4B4 H4BG 0.9800 . ?
C4B4 H4BH 0.9800 . ?
C4B4 H4BI 0.9800 . ?
O5 C5B1 1.439(8) . ?
C5B1 H5BA 0.9900 . ?
C5B1 H5BB 0.9900 . ?
C5B1 C5B2 1.526(9) . ?
C5B2 H5BC 0.9900 . ?
C5B2 H5BD 0.9900 . ?
C5B2 C5B3 1.519(11) . ?
C5B3 H5BE 0.9900 . ?
C5B3 H5BF 0.9900 . ?
C5B3 C5B4 1.519(10) . ?
C5B4 H5BG 0.9800 . ?
C5B4 H5BH 0.9800 . ?
C5B4 H5BI 0.9800 . ?
O6 C6B1 1.446(13) . ?
C6B1 H6BA 0.9900 . ?
C6B1 H6BB 0.9900 . ?
C6B1 C6B2 1.414(18) . ?
C6B2 H6BC 0.9900 . ?
C6B2 H6BD 0.9900 . ?
C6B2 C6B3 1.527(15) . ?
C6B3 H6BE 0.9900 . ?
C6B3 H6BF 0.9900 . ?
C6B3 C6B4 1.500(15) . ?
C6B4 H6BG 0.9800 . ?
C6B4 H6BH 0.9800 . ?
C6B4 H6BI 0.9800 . ?
O7 C7B1 1.438(7) . ?
C7B1 H7BA 0.9900 . ?
C7B1 H7BB 0.9900 . ?
C7B1 C7B2 1.502(8) . ?
C7B2 H7BC 0.9900 . ?
C7B2 H7BD 0.9900 . ?
C7B2 C7B3 1.522(9) . ?
C7B3 H7BE 0.9900 . ?
C7B3 H7BF 0.9900 . ?
C7B3 C7B4 1.512(10) . ?
C7B4 H7BG 0.9800 . ?
C7B4 H7BH 0.9800 . ?
C7B4 H7BI 0.9800 . ?
O8 C8B1 1.444(7) . ?
C8B1 H8BA 0.9900 . ?
C8B1 H8BB 0.9900 . ?
C8B1 C8B2 1.501(8) . ?
C8B2 H8BC 0.9900 . ?
C8B2 H8BD 0.9900 . ?
C8B2 C8B3 1.524(9) . ?
C8B3 H8BE 0.9900 . ?
C8B3 H8BF 0.9900 . ?
C8B3 C8B4 1.529(9) . ?
C8B4 H8BG 0.9800 . ?
C8B4 H8BH 0.9800 . ?
C8B4 H8BI 0.9800 . ?
C1U O1U 1.238(10) . ?
C1U C2U 1.525(14) . ?
C1U O2U 1.258(11) . ?
C2U H2UA 0.9800 . ?
C2U H2UB 0.9800 . ?
C2U H2UC 0.9800 . ?
O4U C3U 1.271(10) . ?
C3U C4U 1.499(13) . ?
C3U O3U 1.239(10) . ?
C4U H4UA 0.9800 . ?
C4U H4UB 0.9800 . ?
C4U H4UC 0.9800 . ?
C33A H33A 0.9500 . ?
C33A C34A 1.36(2) . ?
C33A C32A 1.380(17) . ?
C34A C35A 1.36(2) . ?
C34A O3A 1.391(16) . ?
C35A H35A 0.9500 . ?
C35A C36A 1.405(18) . ?
C36A H36A 0.9500 . ?
C36A C31A 1.388(19) . ?
O3A C9 1.450(18) . ?
C9 H9A 0.9900 . ?
C9 H9B 0.9900 . ?
C9 C10 1.53(2) . ?
C10 H10A 0.9900 . ?
C10 H10B 0.9900 . ?
C10 C17 1.55(2) . ?
C17 H17A 0.9900 . ?
C17 H17B 0.9900 . ?
C17 C18 1.514(19) . ?
C18 H18A 0.9800 . ?
C18 H18B 0.9800 . ?
C18 H18C 0.9800 . ?
C31A C32A 1.355(19) . ?
C32A H32A 0.9500 . ?
loop_
_geom_torsion_atom_site_label_1
_geom_torsion_atom_site_label_2
_geom_torsion_atom_site_label_3
_geom_torsion_atom_site_label_4
_geom_torsion
_geom_torsion_site_symmetry_1
_geom_torsion_site_symmetry_2
_geom_torsion_site_symmetry_3
_geom_torsion_site_symmetry_4
_geom_torsion_publ_flag
Au1 N1 C1A C1 -18.5(7) . . . . ?
Au1 N1 C1A C1C 166.4(4) . . . . ?
Au1 N1 C1B C1D -167.4(4) . . . . ?
Au1 N1 C1B C4 12.2(8) . . . . ?
Au1 N2 C2A C1 -14.3(8) . . . . ?
Au1 N2 C2A C2C 169.4(4) . . . . ?
Au1 N2 C2B C2 15.0(8) . . . . ?
Au1 N2 C2B C2D -169.2(3) . . . . ?
Au1 N4 C4A C3 -6.6(8) . . . . ?
Au1 N4 C4A C4C 171.6(4) . . . . ?
Au1 N4 C4B C4 9.4(9) . . . . ?
Au1 N4 C4B C4D -171.7(4) . . . . ?
Au1 N3 C3A C2 15.3(8) . . . . ?
Au1 N3 C3A C3C -169.8(4) . . . . ?
Au1 N3 C3B C3 -9.8(8) . . . . ?
Au1 N3 C3B C3D 170.6(4) . . . . ?
Au2 N5 C5A C5 -14.4(8) . . . . ?
Au2 N5 C5A C5C 170.0(4) . . . . ?
Au2 N5 C5B C5D -170.1(4) . . . . ?
Au2 N5 C5B C8 11.3(8) . . . . ?
Au2 N7 C7A C6 15.8(8) . . . . ?
Au2 N7 C7A C7C -164.1(4) . . . . ?
Au2 N7 C7B C7 -17.8(8) . . . . ?
Au2 N7 C7B C7D 163.5(4) . . . . ?
Au2 N6 C6A C5 -11.1(9) . . . . ?
Au2 N6 C6A C6C 171.4(4) . . . . ?
Au2 N6 C6B C6 15.9(8) . . . . ?
Au2 N6 C6B C6D -169.8(4) . . . . ?
Au2 N8 C8A C7 -13.1(8) . . . . ?
Au2 N8 C8A C8C 169.6(4) . . . . ?
Au2 N8 C8B C8 15.1(8) . . . . ?
Au2 N8 C8B C8D -168.9(4) . . . . ?
N1 C1A C1C C1D 2.0(6) . . . . ?
N1 C1B C1D C1C 1.2(6) . . . . ?
N1 C1B C4 C4B -9.4(9) . . . . ?
N1 C1B C4 C41 171.8(5) . . . . ?
N2 C2A C2C C2D 0.9(6) . . . . ?
N2 C2B C2D C2C -2.0(6) . . . . ?
N4 C4A C4C C4D 1.1(7) . . . . ?
N4 C4B C4D C4C -0.9(7) . . . . ?
N3 C3A C3C C3D -1.7(7) . . . . ?
N3 C3B C3D C3C -0.9(7) . . . . ?
N5 C5A C5C C5D 0.1(7) . . . . ?
N5 C5B C5D C5C 0.5(7) . . . . ?
N5 C5B C8 C8B -8.0(9) . . . . ?
N5 C5B C8 C81 172.8(5) . . . . ?
N7 C7A C7C C7D -0.6(7) . . . . ?
N7 C7B C7D C7C 2.2(7) . . . . ?
N6 C6A C6C C6D 0.4(8) . . . . ?
N6 C6B C6D C6C -4.5(8) . . . . ?
N8 C8A C8C C8D -0.1(7) . . . . ?
N8 C8B C8D C8C -1.5(6) . . . . ?
C1 C1A C1C C1D -173.1(5) . . . . ?
C1 C2A C2C C2D -175.3(5) . . . . ?
C1 C11 C12 C13 172.3(5) . . . . ?
C1 C11 C16 C15 -172.4(5) . . . . ?
C1A N1 C1B C1D 0.1(6) . . . . ?
C1A N1 C1B C4 179.7(5) . . . . ?
C1A C1 C2A N2 9.1(9) . . . . ?
C1A C1 C2A C2C -175.2(5) . . . . ?
C1A C1 C11 C12 -122.1(6) . . . . ?
C1A C1 C11 C16 52.3(7) . . . . ?
C1B N1 C1A C1 173.9(5) . . . . ?
C1B N1 C1A C1C -1.2(6) . . . . ?
C1B C1D C1C C1A -1.9(6) . . . . ?
C1B C4 C4B N4 -2.2(10) . . . . ?
C1B C4 C4B C4D 179.0(6) . . . . ?
C1B C4 C41 C42 -63.1(8) . . . . ?
C1B C4 C41 C46 116.5(6) . . . . ?
C1D C1B C4 C4B 170.2(5) . . . . ?
C1D C1B C4 C41 -8.6(9) . . . . ?
C2 C2B C2D C2C 173.9(5) . . . . ?
C2 C3A C3C C3D 173.3(5) . . . . ?
C2 C21 C22 C23 179.0(5) . . . . ?
C2 C21 C26 C25 -179.2(5) . . . . ?
C2A N2 C2B C2 -173.4(5) . . . . ?
C2A N2 C2B C2D 2.5(6) . . . . ?
C2A C1 C1A N1 8.3(9) . . . . ?
C2A C1 C1A C1C -177.5(5) . . . . ?
C2A C1 C11 C12 56.7(8) . . . . ?
C2A C1 C11 C16 -128.9(6) . . . . ?
C2A C2C C2D C2B 0.6(6) . . . . ?
C2B N2 C2A C1 174.1(5) . . . . ?
C2B N2 C2A C2C -2.1(6) . . . . ?
C2B C2 C3A N3 -7.9(9) . . . . ?
C2B C2 C3A C3C 178.0(5) . . . . ?
C2B C2 C21 C22 -59.5(8) . . . . ?
C2B C2 C21 C26 119.6(6) . . . . ?
C3 C3B C3D C3C 179.5(6) . . . . ?
C3 C4A C4C C4D 179.3(6) . . . . ?
C3 C31 C32 C33 174.1(12) . . . . ?
C3 C31 C36 C35 -172.8(10) . . . . ?
C3 C31A C32A C33A 179(2) . . . . ?
C3A N3 C3B C3 179.4(6) . . . . ?
C3A N3 C3B C3D -0.2(6) . . . . ?
C3A C2 C2B N2 -8.4(9) . . . . ?
C3A C2 C2B C2D 176.5(5) . . . . ?
C3A C2 C21 C22 121.8(6) . . . . ?
C3A C2 C21 C26 -59.1(7) . . . . ?
C3A C3C C3D C3B 1.6(7) . . . . ?
C3B N3 C3A C2 -173.7(5) . . . . ?
C3B N3 C3A C3C 1.2(6) . . . . ?
C3B C3 C4A N4 1.3(10) . . . . ?
C3B C3 C4A C4C -176.7(6) . . . . ?
C3B C3 C31 C32 61.4(14) . . . . ?
C3B C3 C31 C36 -126.1(12) . . . . ?
C3B C3 C31A C36A -91(3) . . . . ?
C3B C3 C31A C32A 88(4) . . . . ?
C4 C1B C1D C1C -178.5(5) . . . . ?
C4 C4B C4D C4C 178.1(6) . . . . ?
C4 C41 C42 C43 179.3(6) . . . . ?
C4 C41 C46 C45 -179.2(6) . . . . ?
C4A N4 C4B C4 -177.4(6) . . . . ?
C4A N4 C4B C4D 1.5(6) . . . . ?
C4A C3 C3B N3 7.5(10) . . . . ?
C4A C3 C3B C3D -173.0(6) . . . . ?
C4A C3 C31 C32 -121.7(12) . . . . ?
C4A C3 C31 C36 50.8(15) . . . . ?
C4A C3 C31A C36A 103(3) . . . . ?
C4A C3 C31A C32A -79(4) . . . . ?
C4A C4C C4D C4B -0.2(7) . . . . ?
C4B N4 C4A C3 -179.8(6) . . . . ?
C4B N4 C4A C4C -1.6(6) . . . . ?
C4B C4 C41 C42 118.1(6) . . . . ?
C4B C4 C41 C46 -62.4(8) . . . . ?
C5 C5A C5C C5D -175.5(6) . . . . ?
C5 C6A C6C C6D -177.2(7) . . . . ?
C5 C51 C52 C53 177.7(6) . . . . ?
C5 C51 C56 C55 -178.1(5) . . . . ?
C5A N5 C5B C5D -0.4(6) . . . . ?
C5A N5 C5B C8 -179.1(5) . . . . ?
C5A C5 C6A N6 11.3(10) . . . . ?
C5A C5 C6A C6C -171.6(6) . . . . ?
C5A C5 C51 C52 110.8(7) . . . . ?
C5A C5 C51 C56 -71.5(7) . . . . ?
C5A C5C C5D C5B -0.4(7) . . . . ?
C5B N5 C5A C5 175.8(6) . . . . ?
C5B N5 C5A C5C 0.2(6) . . . . ?
C5B C8 C8B N8 -6.0(9) . . . . ?
C5B C8 C8B C8D 178.7(5) . . . . ?
C5B C8 C81 C82 122.0(6) . . . . ?
C5B C8 C81 C86 -57.0(7) . . . . ?
C5D C5B C8 C8B 173.5(6) . . . . ?
C5D C5B C8 C81 -5.7(8) . . . . ?
C6 C6B C6D C6C 169.8(6) . . . . ?
C6 C7A C7C C7D 179.5(6) . . . . ?
C6 C61 C62 C63 174.3(7) . . . . ?
C6 C61 C66 C65 -175.5(6) . . . . ?
C6A N6 C6B C6 -169.7(6) . . . . ?
C6A N6 C6B C6D 4.6(7) . . . . ?
C6A C5 C5A N5 2.4(10) . . . . ?
C6A C5 C5A C5C 177.2(6) . . . . ?
C6A C5 C51 C52 -72.5(8) . . . . ?
C6A C5 C51 C56 105.2(7) . . . . ?
C6A C6C C6D C6B 2.5(8) . . . . ?
C6B N6 C6A C5 174.5(6) . . . . ?
C6B N6 C6A C6C -3.1(7) . . . . ?
C6B C6 C7A N7 -8.6(10) . . . . ?
C6B C6 C7A C7C 171.3(6) . . . . ?
C6B C6 C61 C62 -57.6(9) . . . . ?
C6B C6 C61 C66 119.0(6) . . . . ?
C7 C7B C7D C7C -176.5(6) . . . . ?
C7 C8A C8C C8D -177.3(5) . . . . ?
C7 C71 C72 C73 -179.3(5) . . . . ?
C7 C71 C76 C75 178.9(6) . . . . ?
C7A N7 C7B C7 176.2(5) . . . . ?
C7A N7 C7B C7D -2.5(6) . . . . ?
C7A C6 C6B N6 -8.2(10) . . . . ?
C7A C6 C6B C6D 178.3(6) . . . . ?
C7A C6 C61 C62 121.7(7) . . . . ?
C7A C6 C61 C66 -61.7(8) . . . . ?
C7A C7C C7D C7B -1.0(7) . . . . ?
C7B N7 C7A C6 -178.2(6) . . . . ?
C7B N7 C7A C7C 1.9(6) . . . . ?
C7B C7 C8A N8 9.3(9) . . . . ?
C7B C7 C8A C8C -173.9(5) . . . . ?
C7B C7 C71 C72 54.5(8) . . . . ?
C7B C7 C71 C76 -124.9(6) . . . . ?
C8 C5B C5D C5C 179.2(5) . . . . ?
C8 C8B C8D C8C 174.4(5) . . . . ?
C8 C81 C82 C83 -179.3(5) . . . . ?
C8 C81 C86 C85 179.0(5) . . . . ?
C8A N8 C8B C8 -174.5(5) . . . . ?
C8A N8 C8B C8D 1.5(6) . . . . ?
C8A C7 C7B N7 7.3(9) . . . . ?
C8A C7 C7B C7D -174.3(6) . . . . ?
C8A C7 C71 C72 -124.5(6) . . . . ?
C8A C7 C71 C76 56.1(8) . . . . ?
C8A C8C C8D C8B 0.9(6) . . . . ?
C8B N8 C8A C7 176.4(5) . . . . ?
C8B N8 C8A C8C -0.9(6) . . . . ?
C8B C8 C81 C82 -57.3(7) . . . . ?
C8B C8 C81 C86 123.8(6) . . . . ?
C11 C1 C1A N1 -173.0(5) . . . . ?
C11 C1 C1A C1C 1.3(8) . . . . ?
C11 C1 C2A N2 -169.6(5) . . . . ?
C11 C1 C2A C2C 6.0(8) . . . . ?
C11 C12 C13 C14 -0.2(9) . . . . ?
C12 C11 C16 C15 2.3(8) . . . . ?
C12 C13 C14 C15 2.5(9) . . . . ?
C12 C13 C14 O1 -178.8(6) . . . . ?
C13 C14 C15 C16 -2.4(9) . . . . ?
C13 C14 O1 C1B1 175.7(5) . . . . ?
C14 C15 C16 C11 0.0(9) . . . . ?
C14 O1 C1B1 C1B2 177.1(5) . . . . ?
C15 C14 O1 C1B1 -5.7(9) . . . . ?
C16 C11 C12 C13 -2.2(9) . . . . ?
C21 C2 C2B N2 173.0(5) . . . . ?
C21 C2 C2B C2D -2.2(8) . . . . ?
C21 C2 C3A N3 170.7(5) . . . . ?
C21 C2 C3A C3C -3.3(8) . . . . ?
C21 C22 C23 C24 0.3(9) . . . . ?
C22 C21 C26 C25 -0.1(8) . . . . ?
C22 C23 C24 C25 -0.4(9) . . . . ?
C22 C23 C24 O2 -179.4(5) . . . . ?
C23 C24 C25 C26 0.3(8) . . . . ?
C23 C24 O2 C2B1 -179.9(5) . . . . ?
C24 C25 C26 C21 0.0(8) . . . . ?
C24 O2 C2B1 C2B2 175.4(5) . . . . ?
C25 C24 O2 C2B1 1.2(8) . . . . ?
C26 C21 C22 C23 -0.1(8) . . . . ?
C31 C3 C3B N3 -175.8(7) . . . . ?
C31 C3 C3B C3D 3.8(10) . . . . ?
C31 C3 C4A N4 -175.5(7) . . . . ?
C31 C3 C4A C4C 6.6(10) . . . . ?
C31 C32 C33 C34 -4(2) . . . . ?
C32 C31 C36 C35 -0.2(18) . . . . ?
C32 C33 C34 C35 6(2) . . . . ?
C32 C33 C34 O3 -179.3(12) . . . . ?
C33 C34 C35 C36 -5(2) . . . . ?
C33 C34 O3 C3B1 3(2) . . . . ?
C34 C35 C36 C31 2.3(17) . . . . ?
C34 O3 C3B1 C3B2 166.3(12) . . . . ?
C35 C34 O3 C3B1 178.1(13) . . . . ?
C36 C31 C32 C33 1(2) . . . . ?
C41 C4 C4B N4 176.6(5) . . . . ?
C41 C4 C4B C4D -2.2(9) . . . . ?
C41 C42 C43 C44 0.1(9) . . . . ?
C42 C41 C46 C45 0.3(9) . . . . ?
C42 C43 C44 C45 0.0(9) . . . . ?
C42 C43 C44 O4 -178.8(5) . . . . ?
C43 C44 C45 C46 0.0(9) . . . . ?
C43 C44 O4 C4B1 175.3(5) . . . . ?
C44 C45 C46 C41 -0.2(9) . . . . ?
C44 O4 C4B1 C4B2 179.5(5) . . . . ?
C45 C44 O4 C4B1 -3.4(9) . . . . ?
C46 C41 C42 C43 -0.3(9) . . . . ?
C51 C5 C5A N5 178.8(5) . . . . ?
C51 C5 C5A C5C -6.3(9) . . . . ?
C51 C5 C6A N6 -165.1(6) . . . . ?
C51 C5 C6A C6C 12.0(10) . . . . ?
C51 C52 C53 C54 0.9(10) . . . . ?
C52 C51 C56 C55 -0.2(9) . . . . ?
C52 C53 C54 C55 -1.7(9) . . . . ?
C52 C53 C54 O5 179.3(6) . . . . ?
C53 C54 C55 C56 1.6(9) . . . . ?
C53 C54 O5 C5B1 -0.2(9) . . . . ?
C54 C55 C56 C51 -0.6(9) . . . . ?
C54 O5 C5B1 C5B2 -179.2(6) . . . . ?
C55 C54 O5 C5B1 -179.1(6) . . . . ?
C56 C51 C52 C53 0.0(9) . . . . ?
C61 C6 C6B N6 171.1(5) . . . . ?
C61 C6 C6B C6D -2.4(9) . . . . ?
C61 C6 C7A N7 172.2(5) . . . . ?
C61 C6 C7A C7C -7.9(9) . . . . ?
C61 C62 C63 C64 0.9(13) . . . . ?
C62 C61 C66 C65 1.1(10) . . . . ?
C62 C63 C64 C65 1.9(13) . . . . ?
C62 C63 C64 O6 -175.5(8) . . . . ?
C63 C64 C65 C66 -3.1(12) . . . . ?
C63 C64 O6 C6B1 -4.5(15) . . . . ?
C64 C65 C66 C61 1.6(10) . . . . ?
C64 O6 C6B1 C6B2 -87.3(12) . . . . ?
C65 C64 O6 C6B1 178.1(10) . . . . ?
C66 C61 C62 C63 -2.3(11) . . . . ?
C71 C7 C7B N7 -171.8(5) . . . . ?
C71 C7 C7B C7D 6.7(9) . . . . ?
C71 C7 C8A N8 -171.7(5) . . . . ?
C71 C7 C8A C8C 5.1(9) . . . . ?
C71 C72 C73 C74 -0.4(9) . . . . ?
C72 C71 C76 C75 -0.5(9) . . . . ?
C72 C73 C74 C75 1.1(9) . . . . ?
C72 C73 C74 O7 179.9(6) . . . . ?
C73 C74 C75 C76 -1.5(9) . . . . ?
C73 C74 O7 C7B1 0.7(9) . . . . ?
C74 C75 C76 C71 1.2(9) . . . . ?
C74 O7 C7B1 C7B2 176.5(6) . . . . ?
C75 C74 O7 C7B1 179.5(5) . . . . ?
C76 C71 C72 C73 0.1(9) . . . . ?
C81 C8 C8B N8 173.2(5) . . . . ?
C81 C8 C8B C8D -2.1(9) . . . . ?
C81 C82 C83 C84 0.3(8) . . . . ?
C82 C81 C86 C85 0.0(8) . . . . ?
C82 C83 C84 C85 0.0(8) . . . . ?
C82 C83 C84 O8 -178.2(5) . . . . ?
C83 C84 C85 C86 -0.4(8) . . . . ?
C83 C84 O8 C8B1 174.4(5) . . . . ?
C84 C85 C86 C81 0.3(8) . . . . ?
C84 O8 C8B1 C8B2 -171.0(5) . . . . ?
C85 C84 O8 C8B1 -3.7(8) . . . . ?
C86 C81 C82 C83 -0.4(8) . . . . ?
O1 C14 C15 C16 179.0(6) . . . . ?
O1 C1B1 C1B2 C1B3 -174.2(5) . . . . ?
C1B1 C1B2 C1B3 C1B4 -178.0(6) . . . . ?
O2 C24 C25 C26 179.2(5) . . . . ?
O2 C2B1 C2B2 C2B3 65.7(8) . . . . ?
C2B1 C2B2 C2B3 C2B4 177.0(7) . . . . ?
O3 C34 C35 C36 179.7(10) . . . . ?
O3 C3B1 C3B2 C3B3 -68(2) . . . . ?
C3B1 C3B2 C3B3 C3B4 -172.3(15) . . . . ?
O4 C44 C45 C46 178.7(6) . . . . ?
O4 C4B1 C4B2 C4B3 -62.0(7) . . . . ?
C4B1 C4B2 C4B3 C4B4 -178.1(6) . . . . ?
O5 C54 C55 C56 -179.4(5) . . . . ?
O5 C5B1 C5B2 C5B3 57.3(9) . . . . ?
C5B1 C5B2 C5B3 C5B4 -175.7(7) . . . . ?
O6 C64 C65 C66 174.5(7) . . . . ?
O6 C6B1 C6B2 C6B3 -67.6(13) . . . . ?
C6B1 C6B2 C6B3 C6B4 178.2(11) . . . . ?
O7 C74 C75 C76 179.7(5) . . . . ?
O7 C7B1 C7B2 C7B3 -168.1(6) . . . . ?
C7B1 C7B2 C7B3 C7B4 -65.1(8) . . . . ?
O8 C84 C85 C86 177.7(5) . . . . ?
O8 C8B1 C8B2 C8B3 178.3(5) . . . . ?
C8B1 C8B2 C8B3 C8B4 -175.5(6) . . . . ?
C33A C34A C35A C36A 0(2) . . . . ?
C33A C34A O3A C9 172(2) . . . . ?
C34A C33A C32A C31A 2(4) . . . . ?
C34A C35A C36A C31A 0(4) . . . . ?
C34A O3A C9 C10 -177(2) . . . . ?
C35A C34A O3A C9 -5(3) . . . . ?
C35A C36A C31A C3 180(2) . . . . ?
C35A C36A C31A C32A 1(5) . . . . ?
C36A C31A C32A C33A -2(5) . . . . ?
O3A C34A C35A C36A 177(3) . . . . ?
O3A C9 C10 C17 43(4) . . . . ?
C9 C10 C17 C18 152(4) . . . . ?
C31A C3 C3B N3 -157.9(11) . . . . ?
C31A C3 C3B C3D 21.6(13) . . . . ?
C31A C3 C4A N4 167.1(10) . . . . ?
C31A C3 C4A C4C -10.8(12) . . . . ?
C32A C33A C34A C35A -1(2) . . . . ?
C32A C33A C34A O3A -178(2) . . . . ?
