#------------------------------------------------------------------------------
#$Date: 2019-11-08 01:21:21 +0200 (Fri, 08 Nov 2019) $
#$Revision: 224481 $
#$URL: file:///home/coder/svn-repositories/cod/cif/7/70/08/7700864.cif $
#------------------------------------------------------------------------------
#
# This file is available in the Crystallography Open Database (COD),
# http://www.crystallography.net/
#
# All data on this site have been placed in the public domain by the
# contributors.
#
data_7700864
loop_
_publ_author_name
'Chen, Ching-Chin'
'Wu, Yi-Wen'
'Nakamura, Mikio'
'Cheng, Ru-Jen'
'Tseng, Tzu-Hsien'
'Chen, Peter P.-Y.'
_publ_section_title
;
 Assessment of the intramolecular magnetic interactions in the highly
 saddled iron(iii) porphyrin \p-radical cations: the change from planar to
 saddle conformations.
;
_journal_issue                   36
_journal_name_full
'Dalton transactions (Cambridge, England : 2003)'
_journal_page_first              13820
_journal_page_last               13833
_journal_paper_doi               10.1039/c9dt02714a
_journal_volume                  48
_journal_year                    2019
_chemical_formula_sum            'C52 H44 Cl7 Fe N4 Sb'
_chemical_formula_weight         1150.66
_space_group_crystal_system      orthorhombic
_space_group_IT_number           36
_space_group_name_Hall           'C 2c -2'
_space_group_name_H-M_alt        'C m c 21'
_symmetry_space_group_name_Hall  'C 2c -2'
_symmetry_space_group_name_H-M   'C m c 21'
_atom_sites_solution_hydrogens   geom
_audit_creation_method           SHELXL-2014/7
_audit_update_record
;
2018-11-14 deposited with the CCDC.    2019-08-19 downloaded from the CCDC.
;
_cell_angle_alpha                90
_cell_angle_beta                 90
_cell_angle_gamma                90
_cell_formula_units_Z            4
_cell_length_a                   16.944(2)
_cell_length_b                   34.231(5)
_cell_length_c                   9.7978(11)
_cell_measurement_temperature    150(2)
_cell_volume                     5682.8(12)
_computing_structure_refinement  'SHELXL-2014/7 (Sheldrick, 2014)'
_diffrn_ambient_temperature      150(2)
_diffrn_measured_fraction_theta_full 0.997
_diffrn_measured_fraction_theta_max 0.997
_diffrn_radiation_type           MoK\a
_diffrn_radiation_wavelength     0.71073
_diffrn_reflns_av_R_equivalents  0.0390
_diffrn_reflns_av_unetI/netI     0.0172
_diffrn_reflns_Laue_measured_fraction_full 0.997
_diffrn_reflns_Laue_measured_fraction_max 0.997
_diffrn_reflns_limit_h_max       20
_diffrn_reflns_limit_h_min       -20
_diffrn_reflns_limit_k_max       42
_diffrn_reflns_limit_k_min       -42
_diffrn_reflns_limit_l_max       12
_diffrn_reflns_limit_l_min       -12
_diffrn_reflns_number            76685
_diffrn_reflns_point_group_measured_fraction_full 0.998
_diffrn_reflns_point_group_measured_fraction_max 0.998
_diffrn_reflns_theta_full        25.242
_diffrn_reflns_theta_max         26.000
_diffrn_reflns_theta_min         2.992
_exptl_absorpt_coefficient_mu    1.095
_exptl_crystal_density_diffrn    1.345
_exptl_crystal_F_000             2320
_refine_diff_density_max         2.639
_refine_diff_density_min         -1.062
_refine_diff_density_rms         0.099
_refine_ls_abs_structure_details
;
 Refined as an inversion twin.
;
_refine_ls_abs_structure_Flack   0.01(2)
_refine_ls_extinction_method     none
_refine_ls_goodness_of_fit_ref   1.045
_refine_ls_hydrogen_treatment    constr
_refine_ls_matrix_type           full
_refine_ls_number_parameters     309
_refine_ls_number_reflns         5780
_refine_ls_number_restraints     1
_refine_ls_restrained_S_all      1.045
_refine_ls_R_factor_all          0.0390
_refine_ls_R_factor_gt           0.0368
_refine_ls_shift/su_max          0.020
_refine_ls_shift/su_mean         0.000
_refine_ls_structure_factor_coef Fsqd
_refine_ls_weighting_details
'w=1/[\s^2^(Fo^2^)+(0.1101P)^2^] where P=(Fo^2^+2Fc^2^)/3'
_refine_ls_weighting_scheme      calc
_refine_ls_wR_factor_gt          0.1213
_refine_ls_wR_factor_ref         0.1244
_reflns_Friedel_coverage         0.884
_reflns_Friedel_fraction_full    0.999
_reflns_Friedel_fraction_max     0.999
_reflns_number_gt                5540
_reflns_number_total             5780
_reflns_threshold_expression     'I > 2\s(I)'
_cod_data_source_file            c9dt02714a2.cif
_cod_data_source_block           feomtppclo4
_cod_depositor_comments
'Adding full bibliography for 7700863--7700864.cif.'
_cod_database_code               7700864
_shelx_shelxl_version_number     2014/7
_shelx_space_group_comment
;
The symmetry employed for this shelxl refinement is uniquely defined
by the following loop, which should always be used as a source of
symmetry information in preference to the above space-group names.
They are only intended as comments.
;
_shelx_res_file
;

    feomtppclo4.res created by SHELXL-2014/7


TITL mo_feemtppclo4_0ma_a.res in Cc New: Cmc21
CELL 0.71073 16.944 34.231 9.7978 90 90 90
ZERR 4 0.002 0.005 0.0011 0 0 0
LATT -7
SYMM -X,-Y,0.5+Z
SYMM -X,+Y,+Z
SYMM +X,-Y,0.5+Z
SFAC C H Cl Fe N Sb
UNIT 208 176 28 4 16 4

L.S. 50 0   56
PLAN  -20
TEMP -123.15
BOND $H
CONF
fmap 2
acta
OMIT -1 52
TWIN -1 0 0 0 -1 0 0 0 -1 2
REM <olex2.extras>
REM <HklSrc "%.\\feomtppclo4.hkl">
REM </olex2.extras>

ACTA
ABIN
WGHT    0.110091
BASF   0.01274
FVAR       0.15606   0.50000
FE1   4    0.000000    0.100183    0.922405    10.50000    0.01057    0.01141 =
         0.01055    0.00068    0.00000    0.00000
SB1   6    0.500000    0.152800    0.369921    10.50000    0.01908    0.02708 =
         0.02801   -0.00081    0.00000    0.00000
CL1   3    0.000000    0.084450    1.142767    10.50000    0.02525    0.02461 =
         0.01206    0.00389    0.00000    0.00000
CL2   3    0.500000    0.085060    0.411302    10.50000    0.03253    0.02752 =
         0.09073    0.00726    0.00000    0.00000
CL3   3    0.360872    0.152477    0.366371    11.00000    0.02344    0.03244 =
         0.03656    0.00206   -0.00073   -0.00612
CL4   3    0.500000    0.221790    0.326798    10.50000    0.01662    0.02562 =
         0.04429   -0.00752    0.00000    0.00000
CL6   3    0.500000    0.141881    0.131511    10.50000    0.04316    0.05988 =
         0.03439   -0.02243    0.00000    0.00000
CL7   3    0.500000    0.165568    0.607248    10.50000    0.02888    0.07981 =
         0.03167    0.00996    0.00000    0.00000
N1    5    0.117961    0.103280    0.871510    11.00000    0.01073    0.01038 =
         0.01411   -0.00064    0.00190    0.00068
N2    5    0.000000    0.046952    0.830991    10.50000    0.00744    0.01007 =
         0.01774    0.00081    0.00000    0.00000
N3    5    0.000000    0.159505    0.935483    10.50000    0.00628    0.01312 =
         0.01959   -0.00357    0.00000    0.00000
C1    1    0.161356    0.137023    0.864790    11.00000    0.01335    0.01593 =
         0.01306   -0.00251   -0.00261   -0.00097
C2    1    0.161917    0.075080    0.804724    11.00000    0.01740    0.01325 =
         0.01041    0.00281    0.00077    0.00325
C3    1    0.141531    0.035318    0.816217    11.00000    0.01460    0.01266 =
         0.01257   -0.00407   -0.00098    0.00150
C4    1    0.065516    0.023505    0.855675    11.00000    0.01723    0.01035 =
         0.01337   -0.00347   -0.00106    0.00070
C5    1   -0.140873    0.170757    0.940978    11.00000    0.01408    0.01744 =
         0.01445    0.00232    0.00471    0.00252
C6    1   -0.065309    0.177950    0.989537    11.00000    0.01237    0.01118 =
         0.01476    0.00294    0.00337    0.00389
C7    1   -0.040179    0.206529    1.089483    11.00000    0.01730    0.01477 =
         0.01503    0.00197    0.00214    0.00245
C8    1    0.230762    0.131038    0.780162    11.00000    0.01633    0.02066 =
         0.02002    0.00416    0.00346   -0.00355
C9    1    0.229383    0.092619    0.741627    11.00000    0.01235    0.02273 =
         0.01894    0.00167    0.00172    0.00262
C10   1    0.041256   -0.014029    0.908325    11.00000    0.01296    0.01375 =
         0.01507    0.00016   -0.00014   -0.00221
C11   1   -0.090631    0.231235    1.181363    11.00000    0.01604    0.03327 =
         0.02563   -0.00777    0.00202    0.00169
AFIX  33
H11A  2   -0.146441    0.226091    1.162228    11.00000   -1.50000
H11B  2   -0.079185    0.224829    1.276819    11.00000   -1.50000
H11C  2   -0.079181    0.258903    1.164985    11.00000   -1.50000
AFIX   0
C12   1    0.288209    0.161445    0.731350    11.00000    0.02603    0.02344 =
         0.03386   -0.00459    0.01685   -0.00669
AFIX  33
H12A  2    0.276128    0.186531    0.774783    11.00000   -1.50000
H12B  2    0.342000    0.153490    0.755402    11.00000   -1.50000
H12C  2    0.283952    0.164138    0.632044    11.00000   -1.50000
AFIX   0
C13   1    0.286496    0.074736    0.642597    11.00000    0.02331    0.02352 =
         0.02840   -0.00724    0.01304   -0.00397
AFIX  33
H13A  2    0.274081    0.046979    0.630789    11.00000   -1.50000
H13B  2    0.282368    0.088104    0.554436    11.00000   -1.50000
H13C  2    0.340333    0.077448    0.677903    11.00000   -1.50000
AFIX   0
C14   1    0.091264   -0.046399    0.962954    11.00000    0.01713    0.01496 =
         0.02253    0.00334   -0.00293    0.00590
AFIX  33
H14C  2    0.147110   -0.039693    0.951637    11.00000   -1.50000
H14A  2    0.079741   -0.050202    1.060066    11.00000   -1.50000
H14B  2    0.079742   -0.070536    0.912990    11.00000   -1.50000
AFIX   0
C15   1    0.199956    0.004737    0.784138    11.00000    0.01627    0.01368 =
         0.01563    0.00144    0.00171    0.00052
C16   1    0.177926   -0.025601    0.694088    11.00000    0.02563    0.00889 =
         0.01840    0.00067    0.00031    0.00195
AFIX  43
H16A  2    0.127175   -0.025606    0.652878    11.00000   -1.20000
AFIX   0
C17   1    0.231753   -0.055748    0.666071    11.00000    0.03691    0.01917 =
         0.02728   -0.00228    0.01028    0.00716
AFIX  43
H17A  2    0.217575   -0.076147    0.605073    11.00000   -1.20000
AFIX   0
C18   1    0.305116   -0.055806    0.726880    11.00000    0.03748    0.02307 =
         0.03032    0.00446    0.00715    0.01259
AFIX  43
H18A  2    0.341098   -0.076391    0.707985    11.00000   -1.20000
AFIX   0
C19   1    0.326782   -0.026187    0.815081    11.00000    0.01565    0.03943 =
         0.03068    0.00034   -0.00334    0.01330
AFIX  43
H19A  2    0.377286   -0.026647    0.857157    11.00000   -1.20000
AFIX   0
C20   1    0.274615    0.004443    0.842567    11.00000    0.01600    0.01980 =
         0.02519   -0.00016   -0.00089    0.00250
AFIX  43
H20A  2    0.290267    0.025109    0.901354    11.00000   -1.20000
AFIX   0
C21   1   -0.206127    0.198998    0.971269    11.00000    0.01365    0.01259 =
         0.01897   -0.00344    0.00105    0.00163
C22   1   -0.200651    0.237646    0.926681    11.00000    0.01981    0.01489 =
         0.02529    0.00454   -0.00217   -0.00134
AFIX  43
H22A  2   -0.155412    0.246187    0.877793    11.00000   -1.20000
AFIX   0
C23   1   -0.261597    0.263469    0.954165    11.00000    0.02732    0.01747 =
         0.04051   -0.00238   -0.00786    0.00415
AFIX  43
H23A  2   -0.258497    0.289700    0.922961    11.00000   -1.20000
AFIX   0
C24   1   -0.325867    0.251316    1.025765    11.00000    0.02450    0.02859 =
         0.03435   -0.01250   -0.00160    0.01271
AFIX  43
H24A  2   -0.367146    0.269311    1.044533    11.00000   -1.20000
AFIX   0
C25   1   -0.332099    0.213878    1.070960    11.00000    0.01643    0.04619 =
         0.03392    0.00105    0.00906    0.00630
AFIX  43
H25A  2   -0.377050    0.206018    1.121991    11.00000   -1.20000
AFIX   0
C26   1   -0.271998    0.186845    1.042104    11.00000    0.01886    0.01509 =
         0.03259   -0.00305    0.00540    0.00020
AFIX  43
H26A  2   -0.276697    0.160464    1.071099    11.00000   -1.20000

AFIX   0
HKLF 4 1 -1 0 0 0 1 0 0 0 -1

REM  mo_feemtppclo4_0ma_a.res in Cc New: Cmc21
REM R1 =  0.0368 for    5540 Fo > 4sig(Fo)  and  0.0390 for all    5780 data
REM    309 parameters refined using      1 restraints

END

WGHT      0.0708     17.7797

REM Highest difference peak  2.639,  deepest hole -1.062,  1-sigma level  0.099
Q1    1   0.5000  0.1726  0.4307  10.50000  0.05    2.64
Q2    1   0.4024  0.1359  0.3637  11.00000  0.05    1.37
Q3    1   0.5000  0.1779  0.3114  10.50000  0.05    0.83
Q4    1   0.0000  0.1117  0.8698  10.50000  0.05    0.75
Q5    1   0.5000  0.2757  0.3707  10.50000  0.05    0.61
Q6    1   0.5000  0.1873  0.6463  10.50000  0.05    0.60
Q7    1   0.5000  0.1802  0.5493  10.50000  0.05    0.52
Q8    1   0.0000  0.1026  1.0883  10.50000  0.05    0.48
Q9    1   0.0589  0.0095  0.8724  11.00000  0.05    0.46
Q10   1   0.0000 -0.0167  0.8233  10.50000  0.05    0.45
Q11   1   0.1042 -0.0612  0.8940  11.00000  0.05    0.44
Q12   1   0.1486  0.1516  0.8923  11.00000  0.05    0.43
Q13   1   0.1347  0.1190  0.8465  11.00000  0.05    0.42
Q14   1   0.0000  0.0408  0.7412  10.50000  0.05    0.37
Q15   1   0.0000  0.0655  1.1010  10.50000  0.05    0.37
Q16   1   0.5000  0.2391  0.2839  10.50000  0.05    0.37
Q17   1   0.5000  0.1187  0.3396  10.50000  0.05    0.36
Q18   1   0.1358  0.0877  0.8562  11.00000  0.05    0.35
Q19   1   0.2967 -0.0106  0.8377  11.00000  0.05    0.34
Q20   1   0.5000  0.2120  0.2911  10.50000  0.05    0.33
;
_shelx_res_checksum              68272
_shelx_fab_file
;
    0    0    2    124.20    -27.11
    0    0    4    -61.52     36.17
    0    0    6    -44.54     24.67
    0    0    8     -6.84     -8.74
    0    0   10      6.44     -5.09
    0    0   12      6.63     -1.38
    1    1   12      2.70      1.40
    1    1   11     -1.33     -7.34
    1    1   10      5.95     -1.26
    1    1    9     -7.30     -1.49
    1    1    8     -0.85     -5.50
    1    1    7     -3.93     15.25
    1    1    6    -15.49    -10.51
    1    1    5     18.70     36.89
    1    1    4      2.58    -16.68
    1    1    3      0.61      3.94
    1    1    2     -6.10     16.27
    2    2   12     -1.58     -1.18
    2    2   11      0.84     -7.13
    2    2   10     -4.29     -1.12
    2    2    9     -8.04     -3.16
    2    2    8      0.21      5.35
    2    2    7    -12.43     20.05
    2    2    6      2.40     14.06
    2    2    5     -3.12     27.57
    2    2    4     -7.81     17.23
    2    2    3     48.50    -14.80
    2    2    2     20.97     -3.65
    2    2    1     60.19    -28.03
    3    3   11     -1.25      0.01
    3    3   10     -5.04      5.11
    3    3    9     -4.41      2.47
    3    3    8     10.00     12.81
    3    3    7      0.63     -0.39
    3    3    6     32.58     -1.32
    3    3    5     15.27      6.58
    3    3    4     18.46    -50.97
    3    3    3      7.59     15.47
    3    3    2    -48.89    -75.34
    3    3    1    -15.84    -37.01
    3    3    0   -110.37      0.28
    4    4   11      1.07      4.00
    4    4   10     -5.31     -0.50
    4    4    9      6.03     -0.90
    4    4    8     -0.06     11.16
    4    4    7      2.78     -6.12
    4    4    6      3.71     17.04
    4    4    5    -16.40    -14.68
    4    4    4      7.20     -4.20
    4    4    3    -24.89    -16.52
    4    4    2     36.47    -16.35
    4    4    1     -4.32     37.94
    4    4    0     62.84     -0.10
    5    5   11     -1.75      7.61
    5    5   10      2.29      1.33
    5    5    9      4.94      6.58
    5    5    8      3.30     -2.00
    5    5    7     18.30    -14.44
    5    5    6      5.79     -1.64
    5    5    5     12.81    -19.62
    5    5    4     -4.86     -5.95
    5    5    3    -23.58     -4.68
    5    5    2    -28.96    -17.44
    5    5    1    -25.55    -19.89
    5    5    0    -31.25     -0.01
    6    6   11     -0.05     -1.75
    6    6   10      7.25     -4.33
    6    6    9      2.92      1.57
    6    6    8     -4.97     -5.04
    6    6    7      0.29      0.03
    6    6    6    -21.28     -5.27
    6    6    5     -5.40     -8.81
    6    6    4    -20.41      7.76
    6    6    3     10.57     -8.75
    6    6    2     31.89     20.49
    6    6    1      9.28     32.81
    6    6    0     52.33      0.12
    7    7   11     -0.78     -1.49
    7    7   10      3.07     -0.46
    7    7    9     -4.08     -1.00
    7    7    8      7.09     -6.87
    7    7    7      1.25      1.22
    7    7    6     -0.74     -2.60
    7    7    5      5.95      4.97
    7    7    4    -19.72    -14.19
    7    7    3      1.97      1.01
    7    7    2     -8.43    -33.80
    7    7    1     -4.19    -29.78
    7    7    0     20.96     -0.08
    8    8   10      0.43      0.69
    8    8    9     -4.92     -4.82
    8    8    8     -1.17      1.13
    8    8    7     -9.40      1.76
    8    8    6     -9.21      0.45
    8    8    5     -6.73     11.96
    8    8    4     -4.00     -0.32
    8    8    3     -3.22      5.42
    8    8    2     15.86      6.26
    8    8    1      2.23    -14.83
    8    8    0     15.60     -0.17
    9    9   10     -3.47      1.41
    9    9    9     -0.64     -1.04
    9    9    8      3.47      5.72
    9    9    7      1.75     -0.79
    9    9    6      9.47      5.43
    9    9    5      4.54     -1.26
    9    9    4      3.17     -5.77
    9    9    3      1.08     -5.21
    9    9    2    -20.58    -21.40
    9    9    1      0.94     -9.57
    9    9    0    -18.47      0.18
   10   10   10      0.42      2.16
   10   10    9      0.98     -0.35
   10   10    8     -3.69      2.90
   10   10    7     -1.79     -3.73
   10   10    6     -7.74     -0.37
   10   10    5     -0.33     -2.58
   10   10    4     -6.24     -3.77
   10   10    3      2.17      3.54
   10   10    2     10.16     -9.96
   10   10    1      0.65     10.41
   10   10    0     13.69     -0.11
   11   11    9      3.81      2.12
   11   11    8      2.02      0.65
   11   11    7      4.60      1.53
   11   11    6     -0.58      3.40
   11   11    5     -1.16      0.52
   11   11    4     -4.98    -10.97
   11   11    3    -13.53     -0.87
   11   11    2     -4.94    -16.43
   11   11    1    -11.90     -4.71
   11   11    0      5.18      0.21
   12   12    9     -1.91     -1.59
   12   12    8     -1.05     -2.41
   12   12    7     -0.71      0.36
   12   12    6     -4.60     -1.37
   12   12    5     -3.53      3.60
   12   12    4      1.42      5.74
   12   12    3     -8.69      2.70
   12   12    2      6.96      8.31
   12   12    1     -3.94     -2.85
   12   12    0      6.76     -0.10
   13   13    8      0.70      0.15
   13   13    7     -0.52      2.40
   13   13    6      3.39      2.30
   13   13    5     -1.14     -4.36
   13   13    4     -2.35      2.59
   13   13    3      2.84     -5.21
   13   13    2     -4.75     -0.64
   13   13    1      2.86      0.44
   13   13    0     -2.96      0.50
   14   14    8     -0.08      0.54
   14   14    7     -1.11     -1.58
   14   14    6     -3.82      0.95
   14   14    5      2.52     -0.84
   14   14    4     -7.30     -1.73
   14   14    3      3.19      4.16
   14   14    2      3.43     -6.09
   14   14    1      0.70     -0.27
   14   14    0     10.61     -1.45
   15   15    7      0.49      1.00
   15   15    6      0.01      0.54
   15   15    5     -1.85      4.00
   15   15    4      0.26     -2.96
   15   15    3     -5.51     -1.12
   15   15    2      0.23     -3.38
   15   15    1     -5.09     -3.27
   15   15    0     -2.22      0.14
   16   16    6     -0.38      0.53
   16   16    5     -0.32     -2.21
   16   16    4      0.44      2.82
   16   16    3      0.78      2.58
   16   16    2      0.49      0.76
   16   16    1      1.19      0.31
   16   16    0      0.22      0.10
   17   17    5      0.97     -0.51
   17   17    4     -0.42     -1.84
   17   17    3     -0.55     -2.53
   17   17    2      3.05     -1.37
   17   17    1     -0.80      1.15
   17   17    0      3.59      0.50
   18   18    3      0.00     -0.47
   18   18    2      0.56     -2.07
   18   18    1      0.30     -3.31
   18   18    0      1.78      1.55
   19   17    1     -0.67      0.65
   19   17    0      2.56     -0.07
   18   16    4     -1.10      0.67
   18   16    3      2.07      1.75
   18   16    2      0.66     -1.70
   18   16    1      1.91      2.87
   18   16    0      3.21     -0.13
   17   15    5     -1.21     -0.31
   17   15    4      2.25     -0.21
   17   15    3      1.38     -2.29
   17   15    2     -1.18      1.59
   17   15    1      0.47      3.96
   17   15    0     -3.39     -0.09
   16   14    6     -1.10     -1.53
   16   14    5     -0.45     -0.13
   16   14    4     -0.45      0.38
   16   14    3      1.18      3.26
   16   14    2      1.19     -0.26
   16   14    1     -0.43     -0.76
   16   14    0      2.10     -2.65
   15   13    7     -0.53     -0.23
   15   13    6      1.65      0.21
   15   13    5      0.54     -0.67
   15   13    4     -2.51     -1.76
   15   13    3      3.35     -3.81
   15   13    2     -3.35     -3.45
   15   13    1      1.42      3.00
   15   13    0      0.28      0.46
   14   12    8     -0.22     -1.41
   14   12    7     -1.46      0.42
   14   12    6     -2.06     -1.32
   14   12    5     -1.19     -5.03
   14   12    4     -0.02      3.31
   14   12    3      4.10     -2.03
   14   12    2      2.94      3.56
   14   12    1      5.28      2.96
   14   12    0      4.81     -0.54
   13   11    8      0.93      0.46
   13   11    7      2.25      0.59
   13   11    6      3.65     -0.98
   13   11    5     -2.26     -1.64
   13   11    4      5.07     -1.18
   13   11    3     -2.72     -4.59
   13   11    2     -3.80      0.49
   13   11    1     -2.43      1.29
   13   11    0     -7.09      0.45
   12   10    9     -0.49     -0.57
   12   10    8     -2.73      1.69
   12   10    7     -1.60     -2.85
   12   10    6     -5.85     -1.71
   12   10    5     -1.78      1.77
   12   10    4     -1.81     -6.05
   12   10    3     -1.39      4.04
   12   10    2     10.39     -6.53
   12   10    1     -0.59      3.94
   12   10    0     13.03     -0.34
   11    9    9     -0.73     -0.27
   11    9    8      3.65      3.24
   11    9    7     -0.67     -1.47
   11    9    6      7.75      2.72
   11    9    5      6.95     -9.21
   11    9    4     -3.08     -5.61
   11    9    3     16.07     -3.71
   11    9    2    -14.03    -17.77
   11    9    1      9.74     10.40
   11    9    0     -9.79      0.37
   10    8   10      0.27      0.86
   10    8    9     -2.22     -1.80
   10    8    8     -2.48     -0.30
   10    8    7     -8.63      2.28
   10    8    6     -1.88     -2.55
   10    8    5     -6.42      0.10
   10    8    4      3.33      7.64
   10    8    3     12.14     -8.69
   10    8    2      8.61     17.39
   10    8    1     17.07      0.37
   10    8    0     -0.27     -0.42
    9    7   10      1.60     -0.68
    9    7    9     -3.89     -1.34
    9    7    8      3.99     -4.70
    9    7    7      2.00      0.29
    9    7    6      5.51     -1.90
    9    7    5      7.27      0.45
    9    7    4      4.18     -6.03
    9    7    3      5.53      1.82
    9    7    2     -5.83     -5.70
    9    7    1     -2.03    -14.46
    9    7    0      1.93     -0.05
    8    6   11      0.05     -2.41
    8    6   10      4.93     -4.20
    8    6    9      2.69      1.31
    8    6    8     -0.64     -3.50
    8    6    7     -2.31      2.10
    8    6    6    -13.14     -0.48
    8    6    5     -5.73     -4.09
    8    6    4    -16.45      6.10
    8    6    3      9.15     -6.16
    8    6    2     28.52      8.69
    8    6    1     11.53     27.45
    8    6    0     47.75     -0.02
    7    5   11     -0.65      5.49
    7    5   10      2.39      1.38
    7    5    9      3.50      9.25
    7    5    8      1.92     -1.44
    7    5    7      7.17     -5.77
    7    5    6      9.06     -3.57
    7    5    5     11.47    -23.52
    7    5    4      3.96     -4.06
    7    5    3     17.64     -7.78
    7    5    2    -20.33     -6.94
    7    5    1      3.24     21.82
    7    5    0    -29.62      0.00
    6    4   11      0.04      3.80
    6    4   10     -6.22     -1.11
    6    4    9      4.92      0.42
    6    4    8     -5.15      4.82
    6    4    7      2.82     -0.99
    6    4    6      1.64     10.00
    6    4    5    -10.81    -12.28
    6    4    4     17.80     15.59
    6    4    3     -7.23    -15.30
    6    4    2     20.74     19.34
    6    4    1      6.09     29.69
    6    4    0     17.93      0.07
    5    3   11     -0.68      0.17
    5    3   10     -7.06      4.06
    5    3    9     -2.13      1.33
    5    3    8      7.17      9.70
    5    3    7     -0.93     -1.94
    5    3    6     23.73      2.48
    5    3    5     12.90      3.35
    5    3    4     24.98    -29.07
    5    3    3      8.54     14.98
    5    3    2    -28.22    -44.46
    5    3    1     -6.20    -10.91
    5    3    0    -73.17      0.01
    4    2   11      1.87     -7.22
    4    2   10     -3.89     -1.56
    4    2    9     -5.49     -5.56
    4    2    8     -0.68      2.79
    4    2    7    -17.02     16.43
    4    2    6      0.40     16.64
    4    2    5    -11.97     15.85
    4    2    4     -5.98     16.98
    4    2    3     43.41     -7.09
    4    2    2     23.96     -2.07
    4    2    1     51.43     13.18
    4    2    0     72.29     -0.04
    3    1   11     -0.07     -5.65
    3    1   10      5.40      0.16
    3    1    9     -7.38      1.83
    3    1    8     -0.14     -6.69
    3    1    7    -12.25     13.05
    3    1    6     -7.66    -20.92
    3    1    5     10.95     16.60
    3    1    4     10.70    -11.14
    3    1    3     38.63     11.37
    3    1    2    -20.43     29.69
    3    1    1     21.70    -46.27
    3    1    0   -108.92      0.33
    2    0   12      4.81      0.22
    2    0   10      4.66     -4.38
    2    0    8    -10.07    -15.73
    2    0    6    -36.50     12.14
    2    0    4    -42.95     56.33
    2    0    2     80.99     27.43
    0    2   12     -2.56     -0.94
    0    2   11      0.38     -7.75
    0    2   10     -4.66     -0.59
    0    2    9     -7.34     -6.19
    0    2    8     -0.03      5.52
    0    2    7     -4.76     22.79
    0    2    6      4.53     11.08
    0    2    5      3.63     46.16
    0    2    4     -6.80     22.85
    0    2    3     29.24    -19.63
    0    2    2     15.75      3.47
    1    3   12     -5.81      1.42
    1    3   11     -1.90     -0.99
    1    3   10     -4.66      6.72
    1    3    9     -4.18      0.47
    1    3    8      7.88      8.02
    1    3    7      6.69      1.45
    1    3    6     44.24    -16.23
    1    3    5     20.29     19.21
    1    3    4     37.87    -39.76
    1    3    3    -18.69     13.79
    1    3    2    -93.39    -37.59
    1    3    1    -54.17   -103.11
    2    4   11      3.32      4.28
    2    4   10     -6.03      1.28
    2    4    9      7.63     -0.47
    2    4    8      0.41     13.36
    2    4    7     -1.23     -8.42
    2    4    6     13.08      7.45
    2    4    5    -24.75    -24.29
    2    4    4     16.86     -0.97
    2    4    3     -5.82    -13.32
    2    4    2      2.88     13.53
    2    4    1     17.78    107.84
    2    4    0     -1.07     -0.42
    3    5   11     -1.23      7.28
    3    5   10      2.81      0.68
    3    5    9      8.45      0.84
    3    5    8      5.02     -2.53
    3    5    7     22.21    -18.67
    3    5    6      5.27      1.37
    3    5    5      8.43    -15.98
    3    5    4    -11.82    -12.29
    3    5    3    -59.01      4.42
    3    5    2    -28.18    -35.83
    3    5    1    -59.95    -25.90
    3    5    0    -18.56      0.03
    4    6   11     -0.68     -0.24
    4    6   10      5.05     -4.80
    4    6    9      3.82     -0.02
    4    6    8    -12.22     -9.25
    4    6    7      3.75     -2.95
    4    6    6    -26.67    -10.67
    4    6    5     -5.63     -3.32
    4    6    4     -3.00     32.19
    4    6    3    -14.62     -0.72
    4    6    2     27.32     74.02
    4    6    1     -6.74     28.39
    4    6    0     24.30      0.03
    5    7   11     -0.87     -2.03
    5    7   10      4.63      0.04
    5    7    9     -4.02     -0.08
    5    7    8      4.24    -10.83
    5    7    7      0.40      4.87
    5    7    6     -1.83     -9.73
    5    7    5      4.64      9.47
    5    7    4    -18.85     -2.28
    5    7    3      7.68     -0.74
    5    7    2    -23.72     -8.97
    5    7    1      2.52    -36.77
    5    7    0     -4.60     -0.30
    6    8   11      2.18     -6.65
    6    8   10      1.02      0.06
    6    8    9     -6.84     -5.95
    6    8    8     -2.33      1.25
    6    8    7    -14.82      5.66
    6    8    6     -9.72     -1.62
    6    8    5     -4.04     19.25
    6    8    4     -3.73      2.05
    6    8    3      4.94     17.59
    6    8    2     13.41     16.51
    6    8    1      1.13     -1.43
    6    8    0      7.07      0.05
    7    9   11     -1.19      0.71
    7    9   10     -6.90      2.17
    7    9    9     -0.47     -4.14
    7    9    8      3.28      7.24
    7    9    7      4.58      1.52
    7    9    6     11.87      6.06
    7    9    5      0.27     13.29
    7    9    4     11.40    -10.96
    7    9    3    -22.14      3.45
    7    9    2    -20.83    -23.72
    7    9    1     -9.28    -32.32
    7    9    0    -26.79      0.08
    8   10   10     -0.89      2.14
    8   10    9      1.89      0.87
    8   10    8     -7.39      1.86
    8   10    7      0.24     -2.58
    8   10    6      1.85     -3.16
    8   10    5     -2.88      1.22
    8   10    4     12.44     13.09
    8   10    3     -7.17      8.30
    8   10    2      1.07     25.17
    8   10    1     -6.43      8.74
    8   10    0    -22.65     -0.02
    9   11   10     -0.34     -0.87
    9   11    9      5.49      4.69
    9   11    8      2.38      1.15
    9   11    7      6.32      0.92
    9   11    6      3.47      3.00
    9   11    5      1.24     -7.93
    9   11    4     -2.45     -6.55
    9   11    3     -6.46     -5.72
    9   11    2     -9.85    -11.82
    9   11    1     -6.76      6.04
    9   11    0     -7.44      0.20
   10   12   10      2.12     -1.17
   10   12    9     -1.96     -2.37
   10   12    8     -1.10     -4.66
   10   12    7      2.59     -1.71
   10   12    6     -7.85     -2.70
   10   12    5     -1.40      8.50
   10   12    4     -2.53      6.06
   10   12    3    -11.24     11.52
   10   12    2     10.67     12.55
   10   12    1     -9.26     -1.34
   10   12    0     12.42      0.03
   11   13    9      1.12      1.03
   11   13    8     -0.04     -0.58
   11   13    7      1.95      5.26
   11   13    6      5.13     -0.95
   11   13    5     -3.56      2.88
   11   13    4      5.91      3.99
   11   13    3     -7.49     -2.89
   11   13    2     -4.63      8.77
   11   13    1     -5.44    -11.99
   11   13    0    -10.09      0.31
   12   14    9     -2.15     -0.82
   12   14    8      0.76     -0.67
   12   14    7     -1.41     -2.54
   12   14    6      0.97      1.04
   12   14    5      3.50     -0.68
   12   14    4     -0.60      9.38
   12   14    3      8.04      2.78
   12   14    2      0.67     10.02
   12   14    1      5.30      1.46
   12   14    0     -3.37     -0.08
   13   15    8     -1.05      0.73
   13   15    7      1.38      0.65
   13   15    6     -0.61      1.55
   13   15    5      0.88      2.88
   13   15    4     -2.15     -6.33
   13   15    3     -0.38     -0.09
   13   15    2     -2.49     -7.19
   13   15    1     -1.13     -2.53
   13   15    0     -1.36      0.36
   14   16    7      0.70     -0.49
   14   16    6     -0.13      0.39
   14   16    5      1.44      4.05
   14   16    4      2.49      2.66
   14   16    3     -4.41      6.15
   14   16    2     -0.16      2.32
   14   16    1     -3.85     -3.33
   14   16    0     -0.29      0.04
   15   17    6      1.92     -0.09
   15   17    5     -0.29     -0.48
   15   17    4      4.21     -0.03
   15   17    3     -3.17     -3.09
   15   17    2      1.08      3.94
   15   17    1     -1.57     -0.77
   15   17    0     -6.21      0.47
   16   18    5      0.75     -2.76
   16   18    4     -2.30      1.74
   16   18    3      3.19      0.11
   16   18    2     -2.86      0.74
   16   18    1      3.43     -1.12
   16   18    0      0.58      2.52
   17   19    4     -2.15     -2.26
   17   19    3     -2.51     -0.75
   17   19    2      0.40     -2.11
   17   19    1     -2.63     -1.43
   17   19    0     -0.29     -0.73
   18   20    2     -3.02      1.40
   18   20    1      0.16     -1.54
   18   20    0     -3.87      0.48
   19   15    2     -1.77      0.45
   19   15    1      0.70      3.14
   19   15    0     -1.39      0.12
   18   14    4      0.44      1.49
   18   14    3      0.29      1.66
   18   14    2     -1.35      2.85
   18   14    1      1.29     -0.71
   18   14    0     -4.22     -1.59
   17   13    5     -0.21      2.86
   17   13    4      1.97     -0.05
   17   13    3     -1.41     -2.43
   17   13    2     -3.04      1.37
   17   13    1     -1.72     -1.19
   17   13    0     -5.29      0.75
   16   12    6     -1.80     -0.43
   16   12    5      1.46     -0.19
   16   12    4     -0.30     -0.31
   16   12    3     -0.52      1.03
   16   12    2      1.91      0.81
   16   12    1      1.39     -3.01
   16   12    0      4.24     -0.83
   15   11    7      1.58     -0.45
   15   11    6      2.59      0.45
   15   11    5      0.03     -1.47
   15   11    4      4.24      2.28
   15   11    3      3.05     -3.17
   15   11    2     -2.87      2.43
   15   11    1      3.02      3.70
   15   11    0     -7.07      1.44
   14   10    8     -0.52      0.41
   14   10    7     -0.11     -0.97
   14   10    6     -1.53     -2.18
   14   10    5     -2.82      3.46
   14   10    4      6.38      2.69
   14   10    3     -5.21      3.05
   14   10    2      4.32      7.73
   14   10    1     -2.26     -3.16
   14   10    0     -1.92     -0.11
   13    9    9     -0.38      0.14
   13    9    8      1.01      2.58
   13    9    7      2.23     -1.37
   13    9    6      4.87     -0.88
   13    9    5      3.92      1.98
   13    9    4      0.06     -5.68
   13    9    3      1.25      3.56
   13    9    2     -6.41     -7.25
   13    9    1     -1.13      0.48
   13    9    0     -8.28      0.21
   12    8    9     -1.32     -0.72
   12    8    8     -0.97     -1.03
   12    8    7     -3.63      0.94
   12    8    6     -2.71     -0.57
   12    8    5     -1.52      1.31
   12    8    4     -1.59      4.93
   12    8    3      7.26     -2.05
   12    8    2      4.75      8.58
   12    8    1     10.01     -1.57
   12    8    0      1.48     -0.21
   11    7   10      2.12     -0.38
   11    7    9     -1.44     -1.13
   11    7    8      2.58     -2.70
   11    7    7      2.09      1.02
   11    7    6      7.07     -2.36
   11    7    5      6.21     -3.14
   11    7    4     10.05      3.27
   11    7    3      8.74      0.37
   11    7    2     -7.91     11.54
   11    7    1      0.44     -3.00
   11    7    0    -15.95     -0.13
   10    6   10      1.85     -2.49
   10    6    9      1.85      2.13
   10    6    8     -1.81     -3.04
   10    6    7      0.40      2.58
   10    6    6     -4.77     -1.61
   10    6    5     -8.67      9.39
   10    6    4      0.38     14.79
   10    6    3    -13.62      1.61
   10    6    2     12.42     28.25
   10    6    1     -2.77      0.10
   10    6    0     12.31     -0.30
    9    5   10      0.87      0.87
    9    5    9      1.83      5.28
    9    5    8      0.55     -1.06
    9    5    7      6.39     -1.84
    9    5    6      4.32     -3.24
    9    5    5      8.16     -6.15
    9    5    4      3.75     -9.26
    9    5    3     -3.86      7.34
    9    5    2     -8.44     -8.85
    9    5    1    -11.57      6.09
    9    5    0    -19.48      0.35
    8    4   11      0.81      1.14
    8    4   10     -4.56     -0.83
    8    4    9      4.44      0.48
    8    4    8     -5.97      3.08
    8    4    7      1.98      1.80
    8    4    6     -1.22      4.09
    8    4    5     -7.54     -4.06
    8    4    4      4.29     18.05
    8    4    3     -3.62     -6.69
    8    4    2      4.29     21.79
    8    4    1      6.50     25.12
    8    4    0      1.38     -0.24
    7    3   11     -0.45      0.88
    7    3   10     -5.75      4.60
    7    3    9     -1.68      0.75
    7    3    8      1.08      7.50
    7    3    7      0.03     -3.50
    7    3    6     17.04     -1.33
    7    3    5      9.01      2.54
    7    3    4     32.49    -11.77
    7    3    3     -2.59     10.96
    7    3    2    -32.05      0.00
    7    3    1     -7.76    -15.62
    7    3    0    -80.31     -0.06
    6    2   11      1.22     -5.60
    6    2   10     -4.14     -1.29
    6    2    9     -3.81     -9.15
    6    2    8     -3.12     -0.43
    6    2    7     -9.46      9.93
    6    2    6     -0.12     12.45
    6    2    5    -11.80     25.42
    6    2    4     -0.19     22.75
    6    2    3     -8.58      5.44
    6    2    2     13.20     15.38
    6    2    1      3.28    -21.32
    6    2    0     35.35      0.08
    5    1   11      1.70     -5.65
    5    1   10      6.19      0.70
    5    1    9     -4.73     -1.23
    5    1    8      2.99     -1.05
    5    1    7    -11.82      8.42
    5    1    6     -4.10    -19.42
    5    1    5      4.25     16.38
    5    1    4      0.48    -23.22
    5    1    3     21.66     13.42
    5    1    2    -18.14      0.75
    5    1    1      9.50    -17.75
    5    1    0    -60.55     -0.20
    4    0   10      5.21     -2.82
    4    0    8    -11.62    -16.75
    4    0    6    -25.02     -0.54
    4    0    4    -27.83     56.70
    4    0    2     24.89     63.54
    4    0    0    107.80     -0.09
    0    4   12     -2.88     -0.67
    0    4   11      3.86      4.90
    0    4   10     -8.58      2.42
    0    4    9      8.37      1.36
    0    4    8     -1.16      8.12
    0    4    7     -4.33     -9.61
    0    4    6     20.86     -3.82
    0    4    5    -26.77    -34.58
    0    4    4     31.33     16.13
    0    4    3     17.46     -9.02
    0    4    2    -26.89     57.68
    0    4    1     46.46    162.08
    1    5   11     -0.22      9.09
    1    5   10      2.73      0.17
    1    5    9      8.34      4.11
    1    5    8      6.42     -6.50
    1    5    7     12.61    -21.02
    1    5    6      7.54     -0.28
    1    5    5      1.81    -39.14
    1    5    4     -9.00    -21.90
    1    5    3    -29.85     15.12
    1    5    2    -21.00    -50.39
    1    5    1    -26.64     56.88
    2    6   11     -0.18      0.65
    2    6   10      4.01     -5.27
    2    6    9      4.61     -1.20
    2    6    8    -13.27     -8.83
    2    6    7     -2.09     -7.76
    2    6    6    -34.12     -4.23
    2    6    5    -13.99    -14.41
    2    6    4     -2.54     41.74
    2    6    3     -9.63      0.24
    2    6    2     50.98     85.22
    2    6    1      8.10     73.69
    2    6    0     69.09     -0.03
    3    7   11     -2.27     -1.75
    3    7   10      4.92     -0.66
    3    7    9     -2.94     -0.17
    3    7    8      0.91    -15.82
    3    7    7      1.10      8.86
    3    7    6     -7.90     -6.27
    3    7    5     11.06      9.98
    3    7    4    -19.28     10.55
    3    7    3     15.78     -3.74
    3    7    2     -5.84     -7.60
    3    7    1      9.00    -49.32
    3    7    0     15.11      0.10
    4    8   11      2.37     -7.20
    4    8   10     -0.53      0.05
    4    8    9     -9.91     -1.66
    4    8    8     -7.04     -1.87
    4    8    7    -20.60     10.98
    4    8    6     -7.02     -7.98
    4    8    5      0.39     17.10
    4    8    4     12.09     14.75
    4    8    3     38.75     14.87
    4    8    2      5.08     50.41
    4    8    1     22.49     17.76
    4    8    0    -25.19      0.20
    5    9   11     -0.77     -0.43
    5    9   10     -6.22      2.63
    5    9    9     -1.25     -2.90
    5    9    8      8.58     10.38
    5    9    7     -4.28      7.16
    5    9    6     18.41      8.92
    5    9    5     -4.02      6.39
    5    9    4      8.55    -24.77
    5    9    3      9.53     -3.52
    5    9    2    -10.88    -49.47
    5    9    1     15.56     -5.05
    5    9    0     -8.95      0.02
    6   10   11      1.63      3.03
    6   10   10     -3.73      1.72
    6   10    9      1.14     -0.20
    6   10    8     -6.81      3.94
    6   10    7      0.25     -3.80
    6   10    6      7.19      2.98
    6   10    5     -1.36     -0.86
    6   10    4     22.08     17.31
    6   10    3    -13.58     12.09
    6   10    2      5.33     27.75
    6   10    1    -11.25     12.33
    6   10    0    -22.47      0.13
    7   11   10     -0.76     -0.49
    7   11    9      6.70      6.84
    7   11    8      0.70      2.43
    7   11    7      8.07     -2.07
    7   11    6      8.00      1.22
    7   11    5      1.52    -19.04
    7   11    4     10.43     -3.37
    7   11    3      4.36    -17.54
    7   11    2     -7.49     -1.35
    7   11    1      4.81     18.93
    7   11    0    -17.72      0.06
    8   12   10      4.74     -2.06
    8   12    9     -0.38      0.05
    8   12    8     -1.89     -7.83
    8   12    7     -0.53     -1.69
    8   12    6     -7.21     -6.09
    8   12    5     -0.22     -2.98
    8   12    4     -6.38     14.37
    8   12    3      9.19      3.83
    8   12    2      9.49     22.80
    8   12    1      3.52     18.62
    8   12    0     12.78      0.03
    9   13   10     -1.00     -0.69
    9   13    9      0.33      0.57
    9   13    8      2.31     -1.33
    9   13    7     -1.53      5.17
    9   13    6      0.97     -1.10
    9   13    5      0.10     -2.74
    9   13    4     -0.01     -6.54
    9   13    3      2.84     -4.01
    9   13    2      0.36     -4.53
    9   13    1      0.69     -2.75
    9   13    0      6.67      0.05
   10   14    9     -3.63     -2.36
   10   14    8      1.26     -2.49
   10   14    7     -3.66     -2.57
   10   14    6      2.83     -1.07
   10   14    5      0.83      6.51
   10   14    4      5.24     12.41
   10   14    3      5.84      2.67
   10   14    2      4.11     21.59
   10   14    1      5.69     -3.15
   10   14    0     -7.66      0.15
   11   15    9      0.49      1.34
   11   15    8     -2.22      2.71
   11   15    7     -1.43     -0.34
   11   15    6      4.14     -1.90
   11   15    5      2.02     -7.46
   11   15    4      3.65     -4.02
   11   15    3     13.68     -7.60
   11   15    2     -5.87     -4.48
   11   15    1     11.53      5.13
   11   15    0     -9.06      0.09
   12   16    8      0.90     -0.63
   12   16    7     -0.74     -2.34
   12   16    6     -0.43      1.62
   12   16    5      3.61      0.39
   12   16    4     -2.67     -1.71
   12   16    3      3.74      4.26
   12   16    2      0.24     -3.35
   12   16    1      1.14      4.91
   12   16    0      5.59     -0.70
   13   17    8     -0.55     -0.55
   13   17    7      0.59      0.75
   13   17    6     -0.08     -3.13
   13   17    5     -0.54      1.44
   13   17    4      5.60     -5.19
   13   17    3     -5.69     -1.81
   13   17    2      2.45     -0.30
   13   17    1     -4.56     -1.41
   13   17    0     -5.05     -0.20
   14   18    7     -0.45     -0.82
   14   18    6      1.84     -0.61
   14   18    5     -0.62     -3.29
   14   18    4      2.31      6.36
   14   18    3      4.08     -0.29
   14   18    2     -3.04      8.88
   14   18    1      4.62      2.21
   14   18    0     -3.85      1.35
   15   19    6     -0.77     -0.28
   15   19    5      0.83     -0.02
   15   19    4     -2.64     -4.50
   15   19    3      3.48     -3.31
   15   19    2      1.73     -2.89
   15   19    1      1.59      4.70
   15   19    0      0.95     -1.08
   16   20    5     -0.29      1.75
   16   20    4      0.42      1.71
   16   20    3     -0.59      3.36
   16   20    2     -3.72     -0.58
   16   20    1      0.37     -1.23
   16   20    0      0.71      0.71
   17   21    3     -0.46      0.04
   17   21    2      2.09      1.98
   17   21    1     -1.71      3.00
   17   21    0     -1.03     -2.58
   19   13    3      0.15     -1.54
   19   13    2     -1.76      0.84
   19   13    1     -0.38     -0.53
   19   13    0     -2.40      0.82
   18   12    5      0.56      0.69
   18   12    4      0.30     -0.51
   18   12    3     -3.35      1.12
   18   12    2      2.31      0.63
   18   12    1     -2.14     -5.63
   18   12    0      0.16     -0.48
   17   11    6     -0.65      0.99
   17   11    5      1.28      2.06
   17   11    4     -1.05     -0.82
   17   11    3      0.23      0.23
   17   11    2      0.54     -4.11
   17   11    1     -1.32     -0.26
   17   11    0      1.94      1.54
   16   10    7     -0.11     -0.82
   16   10    6     -1.64      0.79
   16   10    5     -0.94     -1.29
   16   10    4     -0.55      1.03
   16   10    3     -2.42      2.54
   16   10    2      2.81      3.11
   16   10    1      0.53     -2.10
   16   10    0      2.48      0.24
   15    9    8      0.11      1.73
   15    9    7      1.28      0.38
   15    9    6      3.69     -0.05
   15    9    5      0.28      2.48
   15    9    4      0.48     -1.43
   15    9    3     -2.92      2.16
   15    9    2     -1.33     -2.94
   15    9    1     -2.73     -0.75
   15    9    0     -5.26      0.48
   14    8    8     -0.48     -1.09
   14    8    7     -2.21      0.30
   14    8    6     -3.65      1.18
   14    8    5      0.80      6.11
   14    8    4     -4.16     -1.81
   14    8    3     -4.33      3.47
   14    8    2      3.58      1.39
   14    8    1     -2.53     -5.84
   14    8    0      7.33     -0.19
   13    7    9      0.22     -0.97
   13    7    8      1.49     -1.51
   13    7    7      1.11      1.49
   13    7    6      1.23      2.45
   13    7    5      5.59     -3.48
   13    7    4     -4.21     -2.47
   13    7    3      6.02      0.89
   13    7    2     -4.85     -5.64
   13    7    1      0.29      0.38
   13    7    0      0.10      0.05
   12    6    9      1.35      2.43
   12    6    8     -0.98     -2.22
   12    6    7     -1.15      1.10
   12    6    6     -4.25      0.33
   12    6    5     -5.78      4.66
   12    6    4      1.04     14.25
   12    6    3     -8.68     -3.74
   12    6    2      4.62     18.90
   12    6    1     -2.70     -2.52
   12    6    0      6.02     -0.14
   11    5   10     -0.26      1.70
   11    5    9      0.77      1.45
   11    5    8      0.00      0.22
   11    5    7      5.76     -1.54
   11    5    6      0.36     -1.13
   11    5    5      3.30      3.34
   11    5    4      2.42    -11.76
   11    5    3    -17.34      8.27
   11    5    2     -1.30    -11.01
   11    5    1    -20.60     -7.78
   11    5    0     -7.23      0.37
   10    4   10     -2.81     -2.15
   10    4    9      2.02      0.64
   10    4    8     -1.79      2.60
   10    4    7      1.91     -0.14
   10    4    6     -6.83      5.37
   10    4    5     -4.09      2.95
   10    4    4    -14.03      6.00
   10    4    3    -12.07      3.32
   10    4    2      3.83     -9.06
   10    4    1     -3.24      7.35
   10    4    0     20.77      0.01
    9    3   10     -3.00      4.25
    9    3    9     -0.63      0.38
    9    3    8      0.43      4.90
    9    3    7     -1.43     -2.66
    9    3    6      5.64      0.15
    9    3    5      5.08     -4.51
    9    3    4      9.40    -17.12
    9    3    3      3.51     -0.27
    9    3    2    -18.29    -19.86
    9    3    1     -2.65     -9.21
    9    3    0    -42.38      0.27
    8    2   11      0.03     -2.27
    8    2   10     -3.12     -0.60
    8    2    9     -3.33     -8.25
    8    2    8     -3.75     -1.10
    8    2    7     -2.79      2.78
    8    2    6     -0.83      6.71
    8    2    5     -8.42     17.53
    8    2    4     -2.53     18.78
    8    2    3    -12.06      3.72
    8    2    2      6.04     15.02
    8    2    1     -4.30    -25.20
    8    2    0     23.36      0.12
    7    1   11      0.66     -3.43
    7    1   10      5.22     -0.10
    7    1    9     -4.44     -3.23
    7    1    8      6.32      1.53
    7    1    7     -5.73      1.03
    7    1    6     -4.70     -9.84
    7    1    5      1.13     16.50
    7    1    4     -7.61    -28.92
    7    1    3     -8.39     11.01
    7    1    2     -4.86    -27.25
    7    1    1     -9.04    -34.94
    7    1    0    -17.07     -0.05
    6    0   10      6.31     -2.26
    6    0    8     -5.21    -12.92
    6    0    6    -17.55      1.24
    6    0    4    -38.67     26.73
    6    0    2     26.97     15.65
    6    0    0     94.56      0.30
    0    6   11      0.83      1.43
    0    6   10      4.53     -6.09
    0    6    9      3.15      1.33
    0    6    8    -11.41     -5.26
    0    6    7     -9.49    -11.96
    0    6    6    -40.86      2.31
    0    6    5    -21.52    -29.00
    0    6    4     -9.67     32.77
    0    6    3      5.87     -0.31
    0    6    2     68.81     70.15
    0    6    1     37.89    117.90
    0    6    0    128.45     -0.16
    1    7   11     -2.90     -1.93
    1    7   10      7.61     -2.83
    1    7    9     -3.23     -0.61
    1    7    8      1.13    -11.33
    1    7    7      1.21     10.96
    1    7    6    -20.49     10.23
    1    7    5     14.28     11.22
    1    7    4    -44.25     -5.71
    1    7    3     15.81     -7.61
    1    7    2     37.19    -66.31
    1    7    1      7.53    -63.32
    1    7    0    137.22     -0.04
    2    8   11      0.32     -8.46
    2    8   10     -1.12      0.09
    2    8    9    -12.26     -0.38
    2    8    8     -8.28     -1.26
    2    8    7    -16.41     12.10
    2    8    6    -11.48     -6.11
    2    8    5      8.88     31.31
    2    8    4     11.52     19.05
    2    8    3     20.15      7.77
    2    8    2     14.07     55.03
    2    8    1      5.36    -45.38
    2    8    0    -12.14      0.27
    3    9   11      0.65     -0.69
    3    9   10     -4.35      3.32
    3    9    9     -2.71      1.62
    3    9    8     11.82     12.44
    3    9    7     -6.61     12.52
    3    9    6     23.30      7.51
    3    9    5     -2.05      0.90
    3    9    4      3.84    -39.08
    3    9    3     41.61    -13.80
    3    9    2    -18.09    -67.89
    3    9    1     39.33     -2.87
    3    9    0    -15.45     -0.33
    4   10   11      2.43      2.20
    4   10   10     -3.73      1.88
    4   10    9     -0.26     -0.92
    4   10    8     -0.91      9.86
    4   10    7     -0.60     -7.52
    4   10    6      8.94      9.96
    4   10    5     -2.78     -4.20
    4   10    4      8.35     -0.65
    4   10    3    -18.69     10.65
    4   10    2      9.18     -8.88
    4   10    1    -15.52     14.40
    4   10    0      6.82      0.19
    5   11   11     -2.72      3.66
    5   11   10     -0.67      0.22
    5   11    9     10.07      5.23
    5   11    8      3.55      5.98
    5   11    7     13.35     -6.47
    5   11    6      5.15      5.88
    5   11    5      0.48    -22.43
    5   11    4      3.65    -13.78
    5   11    3     -9.53    -20.00
    5   11    2      5.61    -28.11
    5   11    1     -1.47      9.52
    5   11    0      7.87     -0.17
    6   12   11      2.13      2.02
    6   12   10      4.47     -2.28
    6   12    9      0.96      1.77
    6   12    8     -4.49    -11.11
    6   12    7      4.10     -4.13
    6   12    6    -11.07     -5.41
    6   12    5     -0.10     -4.77
    6   12    4    -10.45     21.62
    6   12    3      0.00     -2.32
    6   12    2      7.26     30.23
    6   12    1     -4.53      3.44
    6   12    0     14.73      0.02
    7   13   10      2.35     -1.25
    7   13    9     -0.45      2.60
    7   13    8      5.75     -1.57
    7   13    7     -5.39      4.10
    7   13    6     -3.89     -0.98
    7   13    5      4.20    -12.02
    7   13    4    -12.75    -13.43
    7   13    3     24.80    -12.43
    7   13    2      0.44    -20.35
    7   13    1     15.34     13.70
    7   13    0     20.70     -0.18
    8   14   10      0.13     -0.85
    8   14    9     -5.12     -6.39
    8   14    8      3.28     -1.96
    8   14    7     -4.97     -1.20
    8   14    6     -7.80      2.88
    8   14    5      0.08     14.82
    8   14    4    -10.63     -0.78
    8   14    3     -0.87      9.07
    8   14    2     12.88     -2.63
    8   14    1      0.49    -15.14
    8   14    0     25.52     -0.32
    9   15   10     -2.56      2.72
    9   15    9     -0.64      0.17
    9   15    8     -2.48      5.30
    9   15    7     -1.61      0.33
    9   15    6      5.16     -1.48
    9   15    5     -0.41     -2.99
    9   15    4      7.52     -8.49
    9   15    3      3.36     -9.34
    9   15    2     -6.50    -11.49
    9   15    1      6.23     -7.00
    9   15    0     -9.24      0.16
   10   16    9      1.22      1.07
   10   16    8      0.41      0.60
   10   16    7     -2.65     -2.12
   10   16    6      0.13      4.31
   10   16    5     -0.89     -2.60
   10   16    4     -4.82      2.73
   10   16    3      5.65      0.49
   10   16    2     -2.26     -2.33
   10   16    1      4.92      5.65
   10   16    0     -0.47     -0.69
   11   17    9      0.73     -0.29
   11   17    8     -0.40      1.07
   11   17    7      0.58     -0.52
   11   17    6     -4.58     -0.37
   11   17    5      1.92     -6.02
   11   17    4     -2.95    -11.97
   11   17    3      0.20     -1.48
   11   17    2      1.20    -17.18
   11   17    1     -0.56      7.46
   11   17    0      6.97     -0.72
   12   18    8      1.38     -0.30
   12   18    7     -0.10      0.99
   12   18    6     -2.25     -0.07
   12   18    5     -3.28      3.51
   12   18    4     -1.60      2.16
   12   18    3     -7.52      1.52
   12   18    2      3.12      2.07
   12   18    1     -4.98     -3.60
   12   18    0      7.82      0.30
   13   19    7     -0.52     -0.05
   13   19    6     -0.07     -2.11
   13   19    5     -1.68     -2.77
   13   19    4      1.34     -0.90
   13   19    3      1.98     -5.51
   13   19    2      1.97      0.33
   13   19    1      1.30      1.56
   13   19    0     -4.31     -0.71
   14   20    6     -0.65      1.10
   14   20    5     -0.76     -0.66
   14   20    4     -3.60      2.69
   14   20    3      3.29      0.93
   14   20    2     -4.00     -2.18
   14   20    1      4.89      1.21
   14   20    0      5.91      0.82
   15   21    5      1.12      1.62
   15   21    4     -0.74     -5.14
   15   21    3     -1.22     -0.28
   15   21    2      5.07     -4.68
   15   21    1     -4.47      2.33
   15   21    0      3.62     -2.46
   16   22    4      2.38      3.23
   16   22    3     -2.90      1.40
   16   22    2     -1.24      2.09
   16   22    1      1.32     -3.48
   16   22    0     -0.01      0.50
   17   23    2      2.19      0.78
   17   23    1      0.02      2.90
   17   23    0      0.76     -0.51
   20   12    0      0.33     -0.20
   19   11    3      0.66     -0.11
   19   11    2      0.55     -2.22
   19   11    1     -1.26     -0.40
   19   11    0      1.70      0.60
   18   10    5      0.43     -2.33
   18   10    4     -2.29     -0.46
   18   10    3     -0.48      1.01
   18   10    2      1.55     -0.68
   18   10    1      0.66     -0.41
   18   10    0      6.46     -0.56
   17    9    6      3.10      0.28
   17    9    5     -0.48     -1.49
   17    9    4     -2.08     -0.02
   17    9    3      3.12      0.34
   17    9    2     -0.45     -4.29
   17    9    1      1.97      4.42
   17    9    0      1.97      0.52
   16    8    7     -0.96      0.89
   16    8    6     -2.06     -0.96
   16    8    5     -1.55      0.12
   16    8    4     -1.25     -0.91
   16    8    3     -0.54     -0.50
   16    8    2     -0.07      3.82
   16    8    1     -0.75      1.41
   16    8    0      1.69     -0.30
   15    7    8     -0.20     -0.21
   15    7    7      0.61      1.26
   15    7    6      1.09      0.97
   15    7    5      3.69     -1.00
   15    7    4     -4.59     -3.71
   15    7    3      2.58      0.02
   15    7    2     -2.82     -7.86
   15    7    1     -1.95     -0.52
   15    7    0      2.52     -0.53
   14    6    8     -0.57     -1.60
   14    6    7     -1.94     -0.23
   14    6    6     -4.64      2.00
   14    6    5     -2.93     -2.70
   14    6    4     -4.03      4.92
   14    6    3      2.52     -4.53
   14    6    2      3.02      3.68
   14    6    1      2.73      4.78
   14    6    0     11.54     -0.05
   13    5    9      1.05     -0.61
   13    5    8      0.66     -0.14
   13    5    7      1.78      0.15
   13    5    6      2.39     -0.53
   13    5    5      0.09     -5.70
   13    5    4      1.64     -4.21
   13    5    3     -1.30     -2.06
   13    5    2     -2.22     -6.34
   13    5    1     -3.84      4.25
   13    5    0     -7.73      0.00
   12    4    9      0.24      1.13
   12    4    8     -1.94      2.04
   12    4    7     -0.71     -0.50
   12    4    6     -2.03      1.15
   12    4    5     -4.11      0.94
   12    4    4     -3.60      3.31
   12    4    3     -7.45     -0.65
   12    4    2      2.90     -1.38
   12    4    1     -1.79      3.40
   12    4    0     11.53     -0.17
   11    3   10     -1.76      2.53
   11    3    9     -0.18     -0.85
   11    3    8      0.25      2.31
   11    3    7     -0.73     -0.84
   11    3    6      1.89      1.98
   11    3    5      3.39     -4.80
   11    3    4     -1.51    -21.04
   11    3    3      4.79     -1.19
   11    3    2     -5.55    -31.24
   11    3    1      1.65     -2.74
   11    3    0     -9.78      0.39
   10    2   10     -1.36     -0.93
   10    2    9     -1.41     -4.79
   10    2    8     -1.98     -0.22
   10    2    7     -4.48      0.15
   10    2    6     -1.78      4.30
   10    2    5     -1.60     -2.52
   10    2    4     -7.60     10.29
   10    2    3     19.83     -7.43
   10    2    2      4.74      2.03
   10    2    1     16.64      6.80
   10    2    0     25.78     -0.38
    9    1   10      3.73      0.54
    9    1    9     -2.66     -2.23
    9    1    8      5.14      1.25
    9    1    7     -5.56     -0.86
    9    1    6      1.21     -4.60
    9    1    5     -0.35      1.88
    9    1    4      6.20    -15.12
    9    1    3      8.09     -4.90
    9    1    2     -5.77     -6.80
    9    1    1      3.06    -15.16
    9    1    0    -23.10      0.05
    8    0   10      3.94     -3.62
    8    0    8     -0.84    -10.17
    8    0    6     -8.60      0.80
    8    0    4    -23.03     16.66
    8    0    2     29.09      5.00
    8    0    0     75.64      0.00
    0    8   11     -0.77     -9.76
    0    8   10      0.54     -0.21
    0    8    9    -13.19     -2.89
    0    8    8     -7.32      3.95
    0    8    7    -11.04     13.07
    0    8    6    -16.78     -0.84
    0    8    5     10.69     48.36
    0    8    4      3.22     14.33
    0    8    3     -9.40      2.46
    0    8    2     24.69     42.15
    0    8    1    -27.85   -103.77
    0    8    0     25.38      0.21
    1    9   11      0.36     -2.32
    1    9   10     -3.69      4.25
    1    9    9     -0.74     -1.84
    1    9    8      9.92     13.38
    1    9    7      5.63     19.04
    1    9    6     27.63      3.80
    1    9    5      5.61     20.80
    1    9    4      6.18    -31.59
    1    9    3     23.03    -18.89
    1    9    2    -40.85    -53.86
    1    9    1     10.70    -64.40
    1    9    0    -66.39     -0.19
    2   10   11      2.13      1.04
    2   10   10     -6.46      2.17
    2   10    9     -1.33     -0.26
    2   10    8      1.51      6.97
    2   10    7      1.69     -9.11
    2   10    6     17.89     -1.01
    2   10    5     -2.81      1.58
    2   10    4     16.11     -2.89
    2   10    3    -30.01     16.49
    2   10    2    -23.60      6.30
    2   10    1    -24.53      7.24
    2   10    0    -48.21      0.09
    3   11   11     -1.55      5.08
    3   11   10      0.63      0.46
    3   11    9     12.17      3.82
    3   11    8      6.98     10.39
    3   11    7     12.08     -9.35
    3   11    6      6.94      5.12
    3   11    5     -7.41    -26.33
    3   11    4     -0.14    -22.63
    3   11    3    -14.80    -13.25
    3   11    2     -0.48    -39.92
    3   11    1     -6.28     28.15
    3   11    0      7.00     -0.18
    4   12   11      1.06      2.38
    4   12   10      3.54     -3.47
    4   12    9      2.73     -2.65
    4   12    8     -5.05    -12.55
    4   12    7     11.92     -9.89
    4   12    6    -17.73     -0.70
    4   12    5      0.96      4.57
    4   12    4    -17.42     27.06
    4   12    3    -42.88      6.12
    4   12    2     11.27     30.61
    4   12    1    -34.98    -24.73
    4   12    0     27.06      0.19
    5   13   11     -2.96     -2.23
    5   13   10      4.39     -1.29
    5   13    9      0.72      3.52
    5   13    8      1.18     -6.18
    5   13    7      0.34      3.30
    5   13    6     -5.81     -9.34
    5   13    5      7.06     -4.43
    5   13    4     -4.76     -2.71
    5   13    3     19.01    -11.25
    5   13    2    -11.84      7.66
    5   13    1     11.29      0.42
    5   13    0     -9.19     -0.18
    6   14   10      0.24     -1.27
    6   14    9     -6.80     -7.48
    6   14    8      1.48     -5.50
    6   14    7     -8.01      2.46
    6   14    6    -10.71     -0.52
    6   14    5     -1.10     20.51
    6   14    4    -19.75     -1.12
    6   14    3      0.63     14.63
    6   14    2      5.62     -3.94
    6   14    1     -0.55    -19.98
    6   14    0     26.60     -0.06
    7   15   10     -2.78      3.20
    7   15    9     -2.25     -0.38
    7   15    8     -0.01      7.80
    7   15    7     -2.49      3.14
    7   15    6      7.36      0.08
    7   15    5     -0.03      6.72
    7   15    4      7.60    -14.28
    7   15    3     -9.59     -0.01
    7   15    2     -8.51    -20.10
    7   15    1     -1.89    -14.39
    7   15    0    -11.74      0.10
    8   16   10     -0.90      0.14
    8   16    9      1.20     -1.10
    8   16    8     -1.55      2.55
    8   16    7      2.48     -2.70
    8   16    6      2.20      6.92
    8   16    5     -5.69      9.36
    8   16    4      1.31      7.18
    8   16    3    -14.01      8.77
    8   16    2     -1.62      4.90
    8   16    1    -10.03    -14.05
    8   16    0     -8.95      0.18
    9   17    9      1.45      2.14
    9   17    8     -2.70      1.71
    9   17    7      5.36     -1.30
    9   17    6      2.18     -1.31
    9   17    5      2.95     -9.77
    9   17    4      4.02     -2.35
    9   17    3      0.74     -3.94
    9   17    2     -7.36     -6.59
    9   17    1      0.81     10.75
    9   17    0    -14.30     -0.19
   10   18    9      0.52      0.31
   10   18    8      1.00     -1.29
   10   18    7      1.68      2.04
   10   18    6     -7.41      3.06
   10   18    5     -2.09      4.75
   10   18    4    -10.32     -0.98
   10   18    3     -9.15      6.93
   10   18    2      6.05     -4.61
   10   18    1     -9.06     -1.40
   10   18    0     19.27      0.03
   11   19    8      0.21     -0.25
   11   19    7      2.38      1.27
   11   19    6     -0.32     -2.28
   11   19    5     -1.57      5.26
   11   19    4      3.79      0.07
   11   19    3     -9.81     -0.41
   11   19    2      1.44      2.21
   11   19    1     -9.02     -8.73
   11   19    0     -4.88      0.43
   12   20    8     -0.42      0.78
   12   20    7     -0.33      1.10
   12   20    6      1.45      1.49
   12   20    5     -2.98      2.24
   12   20    4     -0.53      9.68
   12   20    3      0.52      1.13
   12   20    2     -4.18      8.80
   12   20    1      3.72     -4.20
   12   20    0     -3.13      1.71
   13   21    7      0.28      0.69
   13   21    6      0.57      1.88
   13   21    5      2.56     -2.28
   13   21    4     -0.99     -4.70
   13   21    3      4.77     -0.42
   13   21    2      0.78     -5.76
   13   21    1     -0.55      5.01
   13   21    0     -0.24     -1.24
   14   22    6      0.45      0.48
   14   22    5     -1.10      2.92
   14   22    4     -1.49      1.66
   14   22    3     -6.12      2.31
   14   22    2     -0.97     -2.28
   14   22    1     -1.11     -6.46
   14   22    0      5.12      1.32
   15   23    5      0.30     -3.02
   15   23    4      1.86     -0.21
   15   23    3      0.04      0.20
   15   23    2      1.30      2.77
   15   23    1     -4.04      0.04
   15   23    0     -4.55     -0.93
   16   24    3     -0.13     -0.22
   16   24    2     -1.18      0.13
   16   24    1      3.08     -1.79
   16   24    0     -0.41      1.31
   20   10    2      0.75      1.23
   20   10    1      0.16     -0.70
   20   10    0     -0.17     -0.40
   19    9    4     -1.28     -0.55
   19    9    3      1.84     -0.11
   19    9    2      0.26     -2.53
   19    9    1      0.68      1.87
   19    9    0      1.88      0.14
   18    8    5     -1.01     -2.41
   18    8    4      0.62      0.66
   18    8    3      1.39     -2.53
   18    8    2     -1.48      4.42
   18    8    1      3.63      4.54
   18    8    0     -0.28     -0.11
   17    7    6      2.60     -0.68
   17    7    5      1.24      0.31
   17    7    4      2.77      1.11
   17    7    3      1.74     -1.50
   17    7    2     -2.31      0.61
   17    7    1     -0.30     -0.28
   17    7    0     -7.52     -0.37
   16    6    7     -0.89     -0.60
   16    6    6     -3.79     -0.10
   16    6    5     -1.72      0.92
   16    6    4      1.11      1.74
   16    6    3     -0.77     -2.74
   16    6    2      1.24      4.32
   16    6    1     -0.45      1.32
   16    6    0      3.81     -0.27
   15    5    8      0.35     -0.65
   15    5    7      1.24     -0.91
   15    5    6      2.54     -0.69
   15    5    5      1.48     -5.05
   15    5    4      0.64     -0.56
   15    5    3      3.29     -0.52
   15    5    2     -3.07     -4.68
   15    5    1      2.18      2.27
   15    5    0     -7.53     -0.09
   14    4    8     -0.60      1.99
   14    4    7     -0.29      0.36
   14    4    6     -0.56     -2.15
   14    4    5     -5.55     -2.61
   14    4    4      5.84      6.31
   14    4    3     -0.70     -4.65
   14    4    2      2.09      8.71
   14    4    1      3.58      3.74
   14    4    0     -1.68     -0.10
   13    3    9      0.15     -1.10
   13    3    8     -0.11      1.52
   13    3    7      1.46     -1.15
   13    3    6      4.94     -2.89
   13    3    5      3.45      1.27
   13    3    4      7.60    -10.53
   13    3    3     -1.54      3.82
   13    3    2     -2.96     -8.85
   13    3    1     -1.86     -5.40
   13    3    0    -16.02      0.09
   12    2    9     -1.48     -1.46
   12    2    8     -1.04      0.83
   12    2    7     -2.01      0.26
   12    2    6     -0.77      2.89
   12    2    5     -0.20     -0.24
   12    2    4     -4.58      5.36
   12    2    3     14.05      0.59
   12    2    2      3.16      2.04
   12    2    1     12.65      5.17
   12    2    0     17.27     -0.09
   11    1   10      1.78      1.09
   11    1    9     -0.83     -1.28
   11    1    8      2.99     -0.76
   11    1    7     -3.92      0.98
   11    1    6      3.51     -3.97
   11    1    5      0.06     -3.44
   11    1    4      9.94     -2.43
   11    1    3     15.87     -6.22
   11    1    2     -7.28      8.07
   11    1    1     11.65     -0.12
   11    1    0    -29.81     -0.03
   10    0   10      2.00     -2.34
   10    0    8     -2.53     -5.53
   10    0    6     -0.25     -4.67
   10    0    4      1.68     20.26
   10    0    2     15.33     33.62
   10    0    0     28.18     -0.29
    0   10   11      0.78      0.45
    0   10   10     -9.16      3.36
    0   10    9     -0.40     -1.10
    0   10    8      0.28      0.77
    0   10    7      5.07     -7.71
    0   10    6     27.31    -11.61
    0   10    5      0.00      8.24
    0   10    4     30.01      9.42
    0   10    3    -37.80     21.45
    0   10    2    -45.80     36.30
    0   10    1    -33.64     -1.51
    0   10    0   -114.56      0.28
    1   11   11      0.47      8.05
    1   11   10     -0.75      1.95
    1   11    9     13.16      5.84
    1   11    8      6.58      7.35
    1   11    7      5.39    -10.15
    1   11    6     16.91     -4.31
    1   11    5    -13.34    -41.46
    1   11    4     19.66    -13.77
    1   11    3      7.48     -6.61
    1   11    2    -21.72     -9.42
    1   11    1     14.85     75.95
    1   11    0    -57.14     -0.30
    2   12   11      0.48      2.49
    2   12   10      3.41     -4.91
    2   12    9      3.00     -4.86
    2   12    8     -3.70    -14.55
    2   12    7      7.01    -15.22
    2   12    6    -19.76      2.78
    2   12    5     -4.84     -6.08
    2   12    4    -20.46     27.48
    2   12    3    -39.47     11.94
    2   12    2     20.40     28.82
    2   12    1    -26.78     18.94
    2   12    0     44.56      0.22
    3   13   11     -3.44     -0.61
    3   13   10      5.11     -0.85
    3   13    9      1.08      2.13
    3   13    8     -5.83     -6.73
    3   13    7      2.50      3.03
    3   13    6     -9.57    -10.65
    3   13    5      7.51      0.61
    3   13    4      4.82     10.64
    3   13    3     12.63     -6.80
    3   13    2      0.26     27.68
    3   13    1      5.63     -2.77
    3   13    0     -8.79     -0.07
    4   14   11      1.65     -3.22
    4   14   10     -0.98     -2.22
    4   14    9     -8.34     -6.25
    4   14    8     -3.52    -12.48
    4   14    7    -10.25      8.22
    4   14    6     -8.78     -5.58
    4   14    5      0.18     20.28
    4   14    4     -9.14     13.70
    4   14    3     12.15     13.49
    4   14    2     -2.61     25.54
    4   14    1      6.69    -20.29
    4   14    0      2.67     -0.14
    5   15   10     -1.60      3.68
    5   15    9     -5.85      3.18
    5   15    8      1.56      9.15
    5   15    7    -10.91      6.53
    5   15    6     13.84     -4.27
    5   15    5      0.66      3.67
    5   15    4     16.70    -14.68
    5   15    3     15.87      1.58
    5   15    2    -14.07     -9.58
    5   15    1     14.88     10.87
    5   15    0    -34.15      0.16
    6   16   10     -2.62      0.18
    6   16    9      1.19     -4.45
    6   16    8      0.13      7.12
    6   16    7     -0.05     -2.32
    6   16    6      3.89     10.42
    6   16    5     -8.06      8.39
    6   16    4      2.90      3.24
    6   16    3    -14.98     14.72
    6   16    2      5.93     -6.10
    6   16    1    -10.39     -7.75
    6   16    0      5.35      0.03
    7   17   10     -0.69      1.65
    7   17    9      3.49      4.34
    7   17    8     -4.41      1.81
    7   17    7     10.49     -2.64
    7   17    6     10.39     -3.51
    7   17    5      3.17     -8.65
    7   17    4     21.49      5.58
    7   17    3     -9.64     -5.90
    7   17    2     -9.70     14.42
    7   17    1     -7.22      5.60
    7   17    0    -38.97      0.19
    8   18    9      2.32      2.08
    8   18    8     -0.83     -4.64
    8   18    7      0.51     -0.37
    8   18    6     -4.56     -0.57
    8   18    5     -1.13     -5.57
    8   18    4     -4.75     10.10
    8   18    3      6.98      2.30
    8   18    2      2.40     12.64
    8   18    1      1.70     13.65
    8   18    0      4.79      0.34
    9   19    9     -0.57      0.48
    9   19    8      0.74     -1.58
    9   19    7      0.95      2.74
    9   19    6     -0.16     -4.69
    9   19    5      4.30      0.30
    9   19    4      2.52     -2.96
    9   19    3     -0.82     -0.79
    9   19    2      1.21      0.76
    9   19    1     -1.57      3.52
    9   19    0      0.93     -0.45
   10   20    8      1.13     -0.62
   10   20    7     -1.68      1.79
   10   20    6      1.51      0.56
   10   20    5     -1.76      7.94
   10   20    4      0.79      7.02
   10   20    3     -3.00      3.37
   10   20    2      3.11     11.14
   10   20    1     -1.32     -9.50
   10   20    0      4.37      1.66
   11   21    8     -1.12     -0.75
   11   21    7      0.77     -0.94
   11   21    6      6.88     -1.55
   11   21    5      3.12     -2.68
   11   21    4      9.20      1.31
   11   21    3      6.39     -2.79
   11   21    2     -4.52      6.82
   11   21    1      3.40      1.45
   11   21    0    -19.30     -0.49
   12   22    7     -0.81     -0.48
   12   22    6      0.73      1.92
   12   22    5      0.85     -1.76
   12   22    4     -4.43      0.43
   12   22    3      4.07      0.54
   12   22    2     -1.08     -1.30
   12   22    1      7.34      4.54
   12   22    0      4.74      1.10
   13   23    6      0.48     -0.57
   13   23    5      2.61     -1.11
   13   23    4      1.30     -4.37
   13   23    3     -2.09      2.51
   13   23    2      0.81     -2.69
   13   23    1     -6.91      1.19
   13   23    0     -0.27     -1.97
   14   24    5     -2.28      1.84
   14   24    4      0.27      2.93
   14   24    3     -2.68      1.34
   14   24    2      0.86      5.21
   14   24    1      1.83     -3.55
   14   24    0     -3.07      1.27
   15   25    4      1.34      0.55
   15   25    3      3.63     -1.48
   15   25    2     -0.13      1.94
   15   25    1      0.72      3.98
   15   25    0     -2.40      0.12
   16   26    2      0.00     -2.32
   16   26    1      1.19     -2.18
   16   26    0      2.46      0.36
   20    8    2      0.43      0.66
   20    8    1     -0.37      0.19
   20    8    0      0.88     -0.07
   19    7    4      2.29      0.25
   19    7    3      1.16      0.76
   19    7    2      0.27      0.10
   19    7    1     -0.03      0.39
   19    7    0     -4.16      0.21
   18    6    5     -2.11      2.23
   18    6    4      2.19      1.60
   18    6    3     -3.35     -0.36
   18    6    2      0.60      5.01
   18    6    1     -2.45     -0.86
   18    6    0     -2.98      0.08
   17    5    6      0.57     -0.51
   17    5    5      2.75      1.03
   17    5    4      0.30     -1.49
   17    5    3     -2.32      2.94
   17    5    2     -0.51     -3.89
   17    5    1     -3.41     -5.69
   17    5    0     -5.50     -0.39
   16    4    7      0.08     -0.02
   16    4    6     -0.67      1.55
   16    4    5     -3.02     -0.18
   16    4    4      0.90      2.21
   16    4    3     -2.66     -1.85
   16    4    2      3.80      2.53
   16    4    1      2.07      0.06
   16    4    0      6.29      0.10
   15    3    8      0.49      0.27
   15    3    7      0.24     -0.92
   15    3    6      3.22     -2.44
   15    3    5      3.60      0.64
   15    3    4      6.10     -3.75
   15    3    3     -0.41      4.56
   15    3    2     -1.91     -2.37
   15    3    1     -1.23     -2.52
   15    3    0    -14.12      0.13
   14    2    8     -0.39      1.01
   14    2    7     -0.52      0.27
   14    2    6      0.12      2.16
   14    2    5     -0.48      7.72
   14    2    4     -0.13      5.09
   14    2    3     -2.34      2.21
   14    2    2      1.61      5.47
   14    2    1     -0.74     -5.34
   14    2    0      8.65      0.29
   13    1    9     -0.56     -0.31
   13    1    8      1.40     -1.70
   13    1    7     -0.38     -0.18
   13    1    6     -0.44     -1.37
   13    1    5      2.53      4.92
   13    1    4      0.20     -5.27
   13    1    3      2.40      4.09
   13    1    2     -2.76     -3.25
   13    1    1     -0.07     -6.58
   13    1    0    -11.42      0.08
   12    0    8     -0.37     -1.81
   12    0    6     -4.55     -0.44
   12    0    4     -4.88     15.17
   12    0    2      7.02     18.07
   12    0    0     19.59     -0.04
    0   12   11      0.92      2.65
    0   12   10      2.53     -5.58
    0   12    9      3.33     -3.01
    0   12    8     -2.61    -18.16
    0   12    7     -0.34    -18.73
    0   12    6    -18.49      3.21
    0   12    5     -7.26    -22.52
    0   12    4    -18.84     26.77
    0   12    3    -17.82     12.82
    0   12    2     22.60     29.41
    0   12    1      0.20     64.44
    0   12    0     48.90     -0.03
    1   13   11     -1.65      2.01
    1   13   10      6.07     -1.33
    1   13    9     -1.63      4.90
    1   13    8     -7.37     -2.11
    1   13    7     -6.52     -1.02
    1   13    6    -18.10     -1.66
    1   13    5      4.32    -12.54
    1   13    4     -3.93      0.78
    1   13    3     32.53     -9.04
    1   13    2     30.43      1.75
    1   13    1     22.58     27.11
    1   13    0     56.88     -0.19
    2   14   11      0.72     -5.67
    2   14   10      2.46     -2.38
    2   14    9     -7.94     -6.57
    2   14    8     -4.30    -10.29
    2   14    7     -7.45     12.58
    2   14    6    -16.89      4.15
    2   14    5      2.66     23.08
    2   14    4    -20.74     13.72
    2   14    3      8.80      2.68
    2   14    2     18.86     11.44
    2   14    1      5.24    -42.41
    2   14    0     44.69     -0.14
    3   15   11     -0.92     -2.71
    3   15   10     -2.86      4.77
    3   15    9     -6.64      5.42
    3   15    8      0.78      8.63
    3   15    7    -10.85      9.91
    3   15    6     17.80     -6.14
    3   15    5      6.39      5.07
    3   15    4     24.17    -13.94
    3   15    3     33.89     -3.40
    3   15    2    -16.43     -3.36
    3   15    1     25.55      2.54
    3   15    0    -48.12      0.08
    4   16   10     -3.70      0.28
    4   16    9      0.40     -3.99
    4   16    8      3.87      9.57
    4   16    7     -6.91      0.00
    4   16    6      6.28     12.57
    4   16    5    -10.73     -3.62
    4   16    4     -2.09     -7.75
    4   16    3      8.77      4.47
    4   16    2      6.82    -25.83
    4   16    1      9.35     15.07
    4   16    0     17.38     -0.11
    5   17   10     -0.99      2.70
    5   17    9      4.09      5.32
    5   17    8     -0.40      7.42
    5   17    7     10.02     -5.28
    5   17    6     10.02      3.27
    5   17    5      2.95    -12.10
    5   17    4     15.46     -6.11
    5   17    3    -14.55     -6.83
    5   17    2      3.16     -8.26
    5   17    1    -10.87     11.17
    5   17    0    -14.95      0.04
    6   18   10      1.71     -2.49
    6   18    9      5.34      0.20
    6   18    8     -0.57     -4.35
    6   18    7      4.72     -3.86
    6   18    6     -6.80      2.75
    6   18    5     -2.50    -11.08
    6   18    4     -2.63     14.01
    6   18    3      5.26     -4.98
    6   18    2      7.53     15.82
    6   18    1      1.00      9.15
    6   18    0     13.41      0.16
    7   19   10      1.81     -1.10
    7   19    9     -0.74      1.95
    7   19    8     -0.08     -5.53
    7   19    7      0.56      1.32
    7   19    6     -2.78     -8.57
    7   19    5      8.11     -9.46
    7   19    4     -1.12     -3.96
    7   19    3     13.73    -10.38
    7   19    2     -0.59      3.48
    7   19    1      8.79     13.24
    7   19    0     -2.44     -0.54
    8   20    9     -0.45     -2.05
    8   20    8      3.55     -1.01
    8   20    7     -9.12      3.47
    8   20    6     -5.83      1.31
    8   20    5     -2.91      2.22
    8   20    4    -11.83     -2.09
    8   20    3      8.90      1.55
    8   20    2      8.62     -5.90
    8   20    1      8.02      0.64
    8   20    0     28.58      0.12
    9   21    9     -1.23     -0.76
    9   21    8      1.29      0.00
    9   21    7      0.34     -1.22
    9   21    6      5.93     -0.66
    9   21    5      2.64      2.70
    9   21    4      8.55     -5.36
    9   21    3     -2.25     -2.87
    9   21    2     -2.79     -1.05
    9   21    1     -2.05     -9.01
    9   21    0    -11.90     -0.42
   10   22    8     -0.34      1.03
   10   22    7     -3.50     -1.99
   10   22    6      1.53      0.32
   10   22    5     -2.10     -5.97
   10   22    4     -0.59      4.53
   10   22    3      9.40     -4.31
   10   22    2     -1.30      3.80
   10   22    1     10.76      7.29
   10   22    0     -3.31      0.95
   11   23    7      1.04     -0.96
   11   23    6     -0.22     -0.33
   11   23    5      3.63     -7.26
   11   23    4     -0.86     -8.62
   11   23    3      4.02     -0.57
   11   23    2     -2.18    -10.97
   11   23    1      0.33      9.11
   11   23    0      4.20     -3.53
   12   24    7     -0.71     -1.34
   12   24    6     -3.80     -0.35
   12   24    5     -2.35      2.44
   12   24    4     -4.36     -0.91
   12   24    3     -5.11      0.98
   12   24    2      6.07     -1.07
   12   24    1     -2.04     -1.87
   12   24    0     11.24      0.79
   13   25    6     -0.72     -2.63
   13   25    5      0.78     -0.23
   13   25    4      4.12      1.74
   13   25    3     -1.70     -0.95
   13   25    2     -0.17      3.31
   13   25    1     -1.72     -2.19
   13   25    0     -4.79     -0.61
   14   26    5     -0.98      1.79
   14   26    4     -1.71      0.60
   14   26    3      3.54     -2.04
   14   26    2      0.15      1.26
   14   26    1      5.24      1.09
   14   26    0      0.86      0.57
   15   27    3      0.12     -0.66
   15   27    2     -0.95     -2.73
   15   27    1     -0.78      1.34
   15   27    0      1.00     -0.53
   20    6    3     -0.03     -0.11
   20    6    2     -0.93      1.04
   20    6    1      0.50      1.09
   20    6    0      1.42      0.15
   19    5    4     -0.17     -1.38
   19    5    3     -1.26      2.80
   19    5    2     -0.03     -2.42
   19    5    1     -2.13     -2.58
   19    5    0     -3.02     -0.27
   18    4    6     -1.92      0.91
   18    4    5     -1.00     -0.01
   18    4    4     -2.74     -0.59
   18    4    3     -2.15      0.05
   18    4    2      1.04     -1.74
   18    4    1     -0.74     -1.02
   18    4    0      8.78     -0.35
   17    3    6      0.97     -0.50
   17    3    5      2.98     -1.29
   17    3    4     -1.27     -3.97
   17    3    3      2.62      3.65
   17    3    2     -0.66     -6.36
   17    3    1      0.56      0.37
   17    3    0     -1.36      0.29
   16    2    7      0.52      1.62
   16    2    6      0.92      2.89
   16    2    5     -3.21      2.48
   16    2    4     -1.57      4.26
   16    2    3     -0.10     -2.11
   16    2    2      0.14      2.92
   16    2    1      1.20      0.48
   16    2    0      8.72      0.33
   15    1    8      0.52     -0.32
   15    1    7     -0.93      0.14
   15    1    6     -1.71     -2.02
   15    1    5      2.20      3.86
   15    1    4     -1.36     -7.51
   15    1    3      0.28      3.44
   15    1    2      0.11     -4.87
   15    1    1     -3.26     -3.25
   15    1    0     -5.66     -0.09
   14    0    8     -0.73     -1.59
   14    0    6     -3.06      4.62
   14    0    4    -11.76      7.07
   14    0    2      2.57      1.63
   14    0    0     23.29      0.22
    0   14   11      0.84     -7.10
    0   14   10      5.79     -3.16
    0   14    9     -8.31     -7.05
    0   14    8     -1.96     -5.21
    0   14    7     -5.32     12.49
    0   14    6    -26.59     13.52
    0   14    5      2.58     26.28
    0   14    4    -37.53      3.75
    0   14    3      2.80     -4.21
    0   14    2     34.41    -14.78
    0   14    1     -1.64    -58.77
    0   14    0     94.20      0.29
    1   15   11     -2.00     -4.74
    1   15   10     -4.32      4.84
    1   15    9     -6.15      3.25
    1   15    8     -0.26     10.61
    1   15    7     -0.59     11.75
    1   15    6     14.14     -4.45
    1   15    5     13.76     23.77
    1   15    4     15.57    -16.98
    1   15    3     14.63     -2.72
    1   15    2    -13.60    -17.91
    1   15    1      1.73    -47.32
    1   15    0    -35.13      0.42
    2   16   11      2.72     -0.12
    2   16   10     -4.29      0.63
    2   16    9      1.06     -2.51
    2   16    8      6.55      7.27
    2   16    7     -3.58      4.87
    2   16    6      9.63      7.62
    2   16    5     -8.60      2.98
    2   16    4      1.01     -9.59
    2   16    3     -1.42     -1.79
    2   16    2    -10.62    -21.13
    2   16    1      3.89     -9.96
    2   16    0    -11.08     -0.18
    3   17   10     -1.89      3.17
    3   17    9      4.82      5.14
    3   17    8      4.74      8.83
    3   17    7      8.45    -10.36
    3   17    6     14.26      3.43
    3   17    5      3.30    -15.01
    3   17    4      8.65    -15.21
    3   17    3    -12.25     -4.81
    3   17    2     -6.19    -26.26
    3   17    1    -10.98     22.33
    3   17    0    -14.57      0.39
    4   18   10      2.82     -2.85
    4   18    9      7.37     -2.31
    4   18    8      0.14     -1.14
    4   18    7      8.79     -7.35
    4   18    6    -14.13      7.57
    4   18    5     -4.86     -8.83
    4   18    4    -14.96      6.24
    4   18    3    -18.32     -4.25
    4   18    2     16.32     -4.37
    4   18    1    -12.43     -3.34
    4   18    0     42.79     -0.02
    5   19   10      1.56     -1.07
    5   19    9      1.25      0.67
    5   19    8     -2.16     -9.98
    5   19    7      9.04     -0.40
    5   19    6     -5.58     -8.91
    5   19    5     10.08     -0.45
    5   19    4     -4.27      0.93
    5   19    3     -7.07     -9.11
    5   19    2     -4.00     11.23
    5   19    1     -7.71    -12.38
    5   19    0     -7.57      0.24
    6   20   10      0.44     -1.74
    6   20    9     -2.34     -2.10
    6   20    8      0.67     -4.31
    6   20    7    -11.04      4.38
    6   20    6     -9.34     -2.16
    6   20    5     -4.13      3.70
    6   20    4    -15.41      2.40
    6   20    3     16.52     -0.73
    6   20    2      1.71     -0.07
    6   20    1     15.37      1.07
    6   20    0     19.71      0.03
    7   21    9     -4.32     -1.02
    7   21    8      2.17      1.15
    7   21    7     -1.38      1.64
    7   21    6      2.77      1.86
    7   21    5      3.61      7.60
    7   21    4     -5.23    -15.90
    7   21    3     -5.02      2.45
    7   21    2     -1.84    -21.78
    7   21    1     -2.73    -10.18
    7   21    0      3.80     -0.40
    8   22    9     -1.08     -0.98
    8   22    8      0.19      4.86
    8   22    7     -3.44     -1.79
    8   22    6     -0.22      4.03
    8   22    5     -7.26      4.91
    8   22    4     -0.80      2.76
    8   22    3     -7.25      2.16
    8   22    2      2.52     -1.96
    8   22    1     -3.28     -7.47
    8   22    0      4.14      0.99
    9   23    8     -0.23      0.54
    9   23    7      6.46     -3.14
    9   23    6      1.68      1.42
    9   23    5      2.32     -5.62
    9   23    4      2.91     -3.65
    9   23    3     -1.86     -1.80
    9   23    2     -7.65     -5.09
    9   23    1     -4.18      0.58
    9   23    0    -11.91     -1.76
   10   24    8     -1.45      0.23
   10   24    7     -1.75     -0.38
   10   24    6     -7.46     -0.26
   10   24    5     -4.43     -1.82
   10   24    4    -10.28     -0.08
   10   24    3      0.09      0.82
   10   24    2      4.98     -2.58
   10   24    1      0.68      6.98
   10   24    0     14.01      0.64
   11   25    7      1.42      0.94
   11   25    6     -2.35     -0.40
   11   25    5      0.67      4.39
   11   25    4     -0.77     -1.92
   11   25    3     -8.44      2.86
   11   25    2      0.54     -5.66
   11   25    1     -7.19     -7.87
   11   25    0      6.05     -0.46
   12   26    6     -0.85      0.69
   12   26    5     -3.47      4.06
   12   26    4      1.64      5.63
   12   26    3      0.13     -0.78
   12   26    2      1.59      7.55
   12   26    1     -0.37     -5.48
   12   26    0     -3.95      1.68
   13   27    5      2.69     -1.65
   13   27    4      1.97     -0.03
   13   27    3      3.99     -2.40
   13   27    2     -3.33     -1.90
   13   27    1      2.78      1.29
   13   27    0     -3.56     -0.19
   14   28    4     -1.44     -2.58
   14   28    3      0.66      0.38
   14   28    2     -1.47     -3.30
   14   28    1     -0.54      0.82
   14   28    0      4.13     -0.11
   15   29    1     -2.67     -0.75
   15   29    0     -1.04      0.05
   20    4    3      0.10     -0.11
   20    4    2     -1.47      1.77
   20    4    1      1.10      1.37
   20    4    0      0.55     -0.20
   19    3    4     -1.14     -1.67
   19    3    3      0.89      0.01
   19    3    2     -1.12     -2.85
   19    3    1      0.14     -1.43
   19    3    0     -1.58      0.11
   18    2    6      0.75      2.22
   18    2    5     -1.58     -1.70
   18    2    4     -1.93      2.16
   18    2    3      2.72     -4.21
   18    2    2     -0.80      0.60
   18    2    1      4.81      3.58
   18    2    0      8.44      0.33
   17    1    7     -0.43      0.47
   17    1    6     -1.01     -3.06
   17    1    5      0.06     -0.73
   17    1    4      2.50     -3.49
   17    1    3      4.29      0.03
   17    1    2      0.61      0.49
   17    1    1      1.41      2.99
   17    1    0    -10.59      0.51
   16    0    6     -0.60      0.98
   16    0    4     -3.40      7.00
   16    0    2     -1.90      5.07
   16    0    0      9.01     -0.09
    0   16   11      2.06      0.09
    0   16   10     -3.73      1.24
    0   16    9      0.84     -2.57
    0   16    8      6.51      6.57
    0   16    7      2.53      8.75
    0   16    6     10.90      2.53
    0   16    5     -7.56     15.94
    0   16    4      4.65     -6.85
    0   16    3    -22.57      0.05
    0   16    2    -19.13    -11.02
    0   16    1    -13.95    -39.62
    0   16    0    -37.48     -0.13
    1   17   11     -1.02      3.43
    1   17   10     -3.51      3.52
    1   17    9      7.03      2.65
    1   17    8      4.73      5.00
    1   17    7     11.41    -11.00
    1   17    6     27.54     -7.23
    1   17    5      3.91    -11.91
    1   17    4     24.60     -2.53
    1   17    3    -17.81      3.38
    1   17    2    -33.97      1.89
    1   17    1    -14.20     23.42
    1   17    0    -75.60      0.10
    2   18   10      1.57     -4.00
    2   18    9      6.22     -1.33
    2   18    8     -0.79     -4.30
    2   18    7      2.34    -10.43
    2   18    6    -14.01      1.95
    2   18    5     -8.80    -18.60
    2   18    4    -11.90      4.44
    2   18    3    -15.64      1.92
    2   18    2      9.58      5.52
    2   18    1     -7.85     25.28
    2   18    0     27.99     -0.23
    3   19   10      2.37     -1.05
    3   19    9      1.15      0.17
    3   19    8     -2.76     -9.00
    3   19    7     11.43     -3.26
    3   19    6     -7.75     -7.59
    3   19    5      5.97      5.30
    3   19    4     -7.29      6.63
    3   19    3    -20.96      0.69
    3   19    2      0.84     13.15
    3   19    1    -18.86    -12.97
    3   19    0     -0.02      0.30
    4   20   10      1.46     -2.63
    4   20    9     -3.60     -1.44
    4   20    8     -4.08     -7.53
    4   20    7     -8.23      5.90
    4   20    6    -10.05     -6.32
    4   20    5     -3.12     11.18
    4   20    4     -4.50     16.39
    4   20    3      7.90      4.67
    4   20    2     -2.52     25.81
    4   20    1      7.93    -14.24
    4   20    0      0.87     -0.44
    5   21   10     -1.41      1.34
    5   21    9     -4.98     -0.60
    5   21    8      1.17     -1.67
    5   21    7     -3.30      4.80
    5   21    6      7.35     -3.87
    5   21    5      6.01      8.28
    5   21    4      0.27     -9.85
    5   21    3      8.08      3.94
    5   21    2    -13.01     -8.15
    5   21    1      3.58     -3.79
    5   21    0    -21.44     -0.04
    6   22    9     -2.88      1.02
    6   22    8     -0.77      7.67
    6   22    7     -8.84      0.39
    6   22    6      0.55      2.89
    6   22    5     -9.90      9.28
    6   22    4      1.28      0.06
    6   22    3     -7.70     10.49
    6   22    2      3.25     -7.10
    6   22    1     -1.44      0.18
    6   22    0      6.63     -0.11
    7   23    9      2.99     -0.21
    7   23    8      1.45      3.37
    7   23    7     11.09     -0.67
    7   23    6      8.67      5.61
    7   23    5      2.17      1.24
    7   23    4     11.11      0.42
    7   23    3    -16.44      2.18
    7   23    2     -7.46      0.54
    7   23    1    -15.79    -10.54
    7   23    0    -17.18     -0.28
    8   24    8     -4.05     -1.20
    8   24    7      0.27     -3.61
    8   24    6     -3.72     -3.35
    8   24    5     -2.37     -2.46
    8   24    4      0.90     11.14
    8   24    3      1.63      0.62
    8   24    2      1.30     17.23
    8   24    1      0.73      9.25
    8   24    0     -6.15      0.74
    9   25    8      0.06     -0.65
    9   25    7      3.45      3.17
    9   25    6     -1.34     -0.55
    9   25    5      3.27      1.00
    9   25    4     -3.07     -2.70
    9   25    3     -1.32      2.87
    9   25    2     -1.30     -5.10
    9   25    1      0.62      0.11
    9   25    0      4.48     -0.55
   10   26    7     -2.87      1.26
   10   26    6     -1.16     -0.16
   10   26    5     -2.80      8.70
   10   26    4      0.01      4.64
   10   26    3     -3.74      3.64
   10   26    2      6.07      7.29
   10   26    1     -4.06     -6.85
   10   26    0      3.94      1.60
   11   27    6      4.65      0.51
   11   27    5      2.93      1.22
   11   27    4      6.09      2.69
   11   27    3      1.40     -1.21
   11   27    2     -4.37      2.99
   11   27    1      0.90     -6.36
   11   27    0    -14.12      0.41
   12   28    5     -1.52     -2.36
   12   28    4     -0.19     -1.55
   12   28    3      5.23     -0.35
   12   28    2     -3.03      2.18
   12   28    1      3.16      5.85
   12   28    0     -4.57      0.16
   13   29    4     -1.25     -1.34
   13   29    3     -0.86      0.79
   13   29    2      0.70     -5.23
   13   29    1     -0.72      2.66
   13   29    0      3.27     -0.22
   14   30    2      0.74      1.13
   14   30    1     -2.52     -2.10
   14   30    0      0.25     -0.29
   20    2    3     -0.22     -0.97
   20    2    2     -0.13      1.03
   20    2    1     -0.47     -0.55
   20    2    0      2.61     -0.03
   19    1    5      0.11     -0.91
   19    1    4      2.54     -0.72
   19    1    3      1.54     -1.56
   19    1    2      1.49      0.38
   19    1    1      0.55     -0.17
   19    1    0     -6.39      0.61
   18    0    6      1.24      1.18
   18    0    4      1.26      4.98
   18    0    2     -0.06      5.99
   18    0    0      1.52     -0.39
    0   18   10      0.18     -4.50
    0   18    9      6.04      0.17
    0   18    8     -2.83     -8.08
    0   18    7     -4.15     -9.79
    0   18    6     -8.79     -3.80
    0   18    5    -10.83    -28.56
    0   18    4     -0.67      8.64
    0   18    3     -5.38      4.69
    0   18    2      2.39     26.08
    0   18    1      5.45     51.85
    0   18    0      2.20     -0.69
    1   19   10      3.57     -1.37
    1   19    9      0.21      0.40
    1   19    8     -1.27     -6.14
    1   19    7      3.14     -6.58
    1   19    6     -5.60     -2.59
    1   19    5     -0.71     -8.43
    1   19    4     -4.98      8.91
    1   19    3      2.10     -0.62
    1   19    2      8.73     14.38
    1   19    1      2.62     28.81
    1   19    0     15.36      0.50
    2   20   10      2.58     -2.62
    2   20    9     -5.62     -1.16
    2   20    8     -7.85     -6.55
    2   20    7     -9.58      4.94
    2   20    6    -18.04     -1.45
    2   20    5     -2.04      6.74
    2   20    4     -9.94     14.24
    2   20    3     14.76      4.73
    2   20    2     17.60     17.85
    2   20    1     10.73     -8.68
    2   20    0     34.76     -0.61
    3   21   10     -0.46      1.85
    3   21    9     -4.04     -0.40
    3   21    8      0.23      0.30
    3   21    7     -1.97     10.03
    3   21    6      9.48     -3.59
    3   21    5      5.97     12.12
    3   21    4      9.15     -3.82
    3   21    3     12.65      1.43
    3   21    2    -11.44      5.09
    3   21    1      5.15    -13.58
    3   21    0    -31.34      0.21
    4   22   10     -2.22      0.32
    4   22    9     -4.01      2.22
    4   22    8     -0.24      5.31
    4   22    7    -14.11      2.19
    4   22    6      5.85      0.45
    4   22    5     -7.67      0.78
    4   22    4      9.24      0.60
    4   22    3     16.21      6.55
    4   22    2     -1.37      1.42
    4   22    1     16.11     20.79
    4   22    0     -8.04     -0.38
    5   23    9      3.08      0.93
    5   23    8      5.71      8.09
    5   23    7      7.17      0.30
    5   23    6     11.75      8.60
    5   23    5      0.62     -7.87
    5   23    4      8.10     -8.54
    5   23    3     -5.75     -0.05
    5   23    2      1.30    -16.40
    5   23    1     -7.07      6.74
    5   23    0     -0.22     -0.09
    6   24    9      2.05      0.04
    6   24    8     -1.81     -0.61
    6   24    7      1.88     -8.14
    6   24    6     -2.29      0.11
    6   24    5     -1.74     -4.34
    6   24    4      6.01     12.18
    6   24    3     -5.64      0.87
    6   24    2      7.23     18.59
    6   24    1     -4.97      5.02
    6   24    0      1.68      0.12
    7   25    8     -0.16     -2.19
    7   25    7      7.27      2.64
    7   25    6      0.41     -3.43
    7   25    5      6.14     -7.69
    7   25    4      3.65      1.98
    7   25    3      8.48     -7.00
    7   25    2     -3.85      7.79
    7   25    1      5.60      2.96
    7   25    0     -7.94      0.14
    8   26    8     -1.62     -4.37
    8   26    7     -7.22      0.88
    8   26    6     -2.86     -5.04
    8   26    5     -1.47      1.21
    8   26    4     -4.10      2.74
    8   26    3     10.72      1.43
    8   26    2      6.05      5.11
    8   26    1      8.85      8.00
    8   26    0      8.65      0.09
    9   27    7     -0.74      3.36
    9   27    6      5.30      2.89
    9   27    5      2.21      2.40
    9   27    4      4.04     -3.47
    9   27    3      0.32     -0.92
    9   27    2     -0.41     -6.99
    9   27    1      1.13     -7.56
    9   27    0     -0.91     -0.26
   10   28    6      2.43      0.31
   10   28    5      0.55     -1.67
   10   28    4      5.99      1.45
   10   28    3      2.96     -1.65
   10   28    2     -1.51      7.46
   10   28    1      0.75      2.23
   10   28    0     -9.59      0.12
   11   29    6      1.52     -0.38
   11   29    5      1.58     -5.61
   11   29    4     -0.32     -2.29
   11   29    3      3.81     -2.88
   11   29    2     -2.37     -4.38
   11   29    1      6.01      7.62
   11   29    0     -1.12     -0.78
   12   30    4     -3.84     -2.67
   12   30    3     -2.77      1.89
   12   30    2      1.87     -3.04
   12   30    1     -1.77      2.63
   12   30    0      7.74     -0.66
   13   31    3     -2.62      0.75
   13   31    2      2.81      1.41
   13   31    1     -2.17     -2.08
   13   31    0     -0.48      0.11
   20    0    2      1.65     -0.54
   20    0    0      6.50     -0.21
    0   20   10      2.44     -2.52
    0   20    9     -5.83     -1.54
    0   20    8     -8.02     -6.14
    0   20    7    -13.16      2.78
    0   20    6    -24.32      5.05
    0   20    5     -0.51     -1.73
    0   20    4    -18.86      7.31
    0   20    3     29.55     -0.96
    0   20    2     30.17      0.61
    0   20    1     19.69      4.63
    0   20    0     70.99     -0.39
    1   21   10      0.34      2.65
    1   21    9     -4.31      0.62
    1   21    8      1.86      5.59
    1   21    7      0.37     11.82
    1   21    6      0.76      5.51
    1   21    5      5.49     20.23
    1   21    4     -2.54    -12.69
    1   21    3      8.06     -5.14
    1   21    2      5.93    -22.34
    1   21    1     -1.48    -34.18
    1   21    0     10.77      0.49
    2   22   10     -1.88      0.28
    2   22    9     -2.46      1.07
    2   22    8      0.37      3.41
    2   22    7     -8.54      5.69
    2   22    6      7.46      1.97
    2   22    5     -0.86      5.65
    2   22    4      8.12      0.03
    2   22    3      9.46      0.39
    2   22    2     -4.66     -1.19
    2   22    1     10.08     -5.32
    2   22    0     -9.10     -0.24
    3   23    9      3.19     -0.19
    3   23    8      8.49      9.72
    3   23    7      4.26     -1.14
    3   23    6     14.71      7.76
    3   23    5      1.91    -13.23
    3   23    4      6.53    -16.38
    3   23    3      3.11     -6.31
    3   23    2     -3.07    -23.53
    3   23    1      1.42     13.93
    3   23    0     -5.70      0.51
    4   24    9      2.54     -0.86
    4   24    8     -1.11     -0.23
    4   24    7      1.97    -12.03
    4   24    6     -6.95      4.36
    4   24    5     -2.78     -7.72
    4   24    4     -6.61      1.57
    4   24    3     -9.84     -1.42
    4   24    2     14.79     -4.90
    4   24    1     -3.64      9.37
    4   24    0     26.78     -0.11
    5   25    9      4.17     -0.34
    5   25    8     -0.55     -0.73
    5   25    7     11.40      1.47
    5   25    6     -3.00     -0.86
    5   25    5      5.61     -6.42
    5   25    4     -1.25     -0.67
    5   25    3     -5.40     -9.81
    5   25    2      1.22      1.44
    5   25    1     -5.69    -12.60
    5   25    0      5.87      0.91
    6   26    8     -1.88     -9.09
    6   26    7     -7.00     -2.68
    6   26    6     -6.12     -6.12
    6   26    5      0.38     -0.44
    6   26    4     -7.88      5.69
    6   26    3     13.50     -1.77
    6   26    2      1.13     11.40
    6   26    1     10.11      4.64
    6   26    0      1.45     -0.08
    7   27    8      1.34      3.15
    7   27    7     -2.68      4.37
    7   27    6     -0.62      1.06
    7   27    5      1.05     -1.13
    7   27    4     -5.72    -12.22
    7   27    3      8.86     -3.12
    7   27    2      1.00    -20.05
    7   27    1      8.13     -1.33
    7   27    0      8.48     -0.33
    8   28    7     -2.73     -1.61
    8   28    6      1.44      3.15
    8   28    5     -2.20      3.32
    8   28    4     -0.64     -2.34
    8   28    3     -5.34      1.77
    8   28    2      1.68     -4.89
    8   28    1     -4.85     -4.87
    8   28    0      3.91      0.12
    9   29    7      1.89     -1.62
    9   29    6      1.19      0.77
    9   29    5      0.66     -5.65
    9   29    4      3.14     -1.69
    9   29    3     -1.36     -4.73
    9   29    2     -5.04     -3.46
    9   29    1     -0.23      0.50
    9   29    0     -6.50     -0.16
   10   30    6     -3.21     -0.82
   10   30    5     -0.36     -3.75
   10   30    4     -4.73     -0.58
   10   30    3      1.15      0.50
   10   30    2      0.36     -0.61
   10   30    1      0.37      7.48
   10   30    0      5.11     -0.41
   11   31    5     -0.35      1.84
   11   31    4     -2.53     -0.75
   11   31    3     -2.50      0.03
   11   31    2      3.57     -4.54
   11   31    1     -1.08     -0.79
   11   31    0      9.09     -0.07
   12   32    3     -2.23      0.21
   12   32    2      0.63      1.91
   12   32    1     -2.81     -5.24
   12   32    0      0.89      0.26
   13   33    0     -2.70      0.20
    0   22   10     -1.15      1.12
    0   22    9     -2.02      0.25
    0   22    8      1.41      3.18
    0   22    7     -1.52      6.09
    0   22    6      4.16      3.42
    0   22    5      3.17     14.68
    0   22    4      0.53     -2.04
    0   22    3     -5.59     -0.13
    0   22    2     -4.40    -12.76
    0   22    1     -5.60    -34.28
    0   22    0     -2.15     -0.52
    1   23   10     -2.50      2.09
    1   23    9      3.91      0.02
    1   23    8      8.18      9.09
    1   23    7     10.01     -0.36
    1   23    6     18.05      0.40
    1   23    5      3.06     -0.72
    1   23    4     11.27    -13.58
    1   23    3    -18.31     -0.09
    1   23    2    -18.31    -12.17
    1   23    1    -14.21    -12.77
    1   23    0    -41.60      0.18
    2   24    9      3.61     -0.99
    2   24    8     -1.15     -4.36
    2   24    7      1.84    -12.46
    2   24    6     -2.23     -1.19
    2   24    5     -3.50    -10.13
    2   24    4     -3.00      6.09
    2   24    3     -9.93     -0.34
    2   24    2      0.61      6.02
    2   24    1     -0.78     19.18
    2   24    0      0.79     -0.24
    3   25    9      3.19      0.82
    3   25    8     -0.06      0.45
    3   25    7      9.50     -2.31
    3   25    6     -7.79     -0.48
    3   25    5      2.27     -5.48
    3   25    4     -7.75     -3.81
    3   25    3    -12.00     -5.01
    3   25    2      4.50    -10.67
    3   25    1    -11.59     -8.87
    3   25    0     17.92      0.12
    4   26    9     -1.60     -2.20
    4   26    8     -4.04     -9.96
    4   26    7     -2.22     -1.38
    4   26    6    -11.21     -4.10
    4   26    5     -0.85     10.93
    4   26    4     -9.19     11.03
    4   26    3     -7.20      3.22
    4   26    2     -0.38     17.00
    4   26    1     -5.64    -16.37
    4   26    0      1.62     -0.23
    5   27    8     -1.48      2.20
    5   27    7     -1.16      6.33
    5   27    6     -0.18     -4.17
    5   27    5      3.85      4.40
    5   27    4      0.82     -5.25
    5   27    3      8.82     -2.37
    5   27    2     -8.66     -2.60
    5   27    1      5.93     -7.27
    5   27    0    -12.91      0.10
    6   28    8     -0.50     -2.17
    6   28    7     -7.07      1.36
    6   28    6     -0.13      1.76
    6   28    5     -5.57      7.69
    6   28    4     -5.11     -3.35
    6   28    3     -2.27      6.69
    6   28    2     -1.36     -9.87
    6   28    1      0.25      1.46
    6   28    0      1.09     -0.47
    7   29    7      2.38     -0.48
    7   29    6      2.30      4.30
    7   29    5     -0.11      0.75
    7   29    4      3.76     -4.45
    7   29    3    -12.76      1.62
    7   29    2     -2.58     -9.19
    7   29    1     -9.17     -5.12
    7   29    0     -0.74      0.31
    8   30    7      3.20     -0.77
    8   30    6     -1.97      0.66
    8   30    5     -0.07      0.26
    8   30    4      0.21      5.80
    8   30    3     -6.76      1.99
    8   30    2     -0.76      9.58
    8   30    1     -6.88     -0.45
    8   30    0     -4.34     -0.02
    9   31    6     -2.24     -2.78
    9   31    5      0.30     -0.90
    9   31    4     -2.80     -0.42
    9   31    3      1.42     -1.41
    9   31    2     -0.08     -0.23
    9   31    1      2.66      3.05
    9   31    0      1.17      0.12
   10   32    5     -1.30      3.98
   10   32    4     -3.98      0.39
   10   32    3     -1.85      2.78
   10   32    2      1.70     -0.76
   10   32    1     -3.71     -4.05
   10   32    0      6.45      0.39
   11   33    4      3.02      1.42
   11   33    3     -1.67      0.95
   11   33    2     -0.63      2.45
   11   33    1     -1.69     -4.95
   11   33    0     -4.17      0.02
   12   34    1      1.41      0.08
   12   34    0     -4.21      0.15
    0   24    9      3.73     -0.38
    0   24    8     -2.38     -6.62
    0   24    7      3.11    -11.07
    0   24    6      5.12     -8.26
    0   24    5     -4.46     -9.52
    0   24    4      6.60     14.73
    0   24    3    -14.17      5.09
    0   24    2    -11.20     27.31
    0   24    1     -1.19     21.79
    0   24    0    -32.66     -0.11
    1   25    9      3.05      1.25
    1   25    8     -0.37      0.06
    1   25    7      3.24     -5.56
    1   25    6     -3.14     -4.71
    1   25    5     -0.87    -14.68
    1   25    4      1.27      0.79
    1   25    3      1.59      0.73
    1   25    2     -0.61      5.54
    1   25    1     -0.09     20.55
    1   25    0     -1.58      0.08
    2   26    9     -2.34     -2.68
    2   26    8     -5.08    -10.46
    2   26    7     -3.00     -0.28
    2   26    6    -15.27     -2.02
    2   26    5     -4.59      7.84
    2   26    4     -9.97     12.01
    2   26    3     -0.19      3.06
    2   26    2      8.30     15.67
    2   26    1     -0.38     -0.03
    2   26    0     15.56     -0.16
    3   27    9     -2.46      1.83
    3   27    8     -1.80      2.37
    3   27    7      0.03      8.43
    3   27    6      2.96     -4.37
    3   27    5      4.42      9.20
    3   27    4      6.56      2.21
    3   27    3      5.02      1.43
    3   27    2     -8.13      6.12
    3   27    1      0.98    -15.63
    3   27    0    -12.98      0.08
    4   28    8     -0.22     -2.56
    4   28    7     -9.01      4.05
    4   28    6      4.45     -1.29
    4   28    5     -4.75      6.19
    4   28    4      4.43      3.39
    4   28    3      9.36      7.13
    4   28    2     -7.75      7.75
    4   28    1      6.74      7.87
    4   28    0    -20.46     -0.31
    5   29    8      2.93      8.68
    5   29    7      1.40      0.63
    5   29    6      6.88      3.94
    5   29    5      0.35     -2.90
    5   29    4      7.85     -6.19
    5   29    3     -0.33      1.19
    5   29    2      0.42    -11.09
    5   29    1      0.05     10.50
    5   29    0     -2.00     -0.12
    6   30    7      3.71      0.25
    6   30    6      0.72      2.54
    6   30    5     -3.40      1.16
    6   30    4      3.02      5.90
    6   30    3    -11.33      3.14
    6   30    2      3.37      6.53
    6   30    1     -8.79     -1.50
    6   30    0      2.16     -0.08
    7   31    7      2.68     -3.27
    7   31    6      1.76     -2.42
    7   31    5      3.61     -3.00
    7   31    4      5.10      4.99
    7   31    3      0.14     -3.55
    7   31    2     -2.58     12.45
    7   31    1      0.06      2.04
    7   31    0     -8.77      0.29
    8   32    6     -2.98     -2.41
    8   32    5     -0.80      1.89
    8   32    4     -2.78      3.54
    8   32    3      7.33      1.45
    8   32    2      1.26      5.45
    8   32    1      3.64      3.79
    8   32    0      2.24     -0.18
    9   33    5      0.12      2.03
    9   33    4      1.42     -2.52
    9   33    3      1.16      1.75
    9   33    2      1.36     -2.15
    9   33    1      1.79     -1.75
    9   33    0      0.66     -0.13
   10   34    4      2.09      0.82
   10   34    3     -0.91      0.37
   10   34    2     -1.01      2.67
   10   34    1     -1.53     -3.18
   10   34    0     -3.50     -0.01
   11   35    2     -1.27      1.39
   11   35    1      2.57      3.36
   11   35    0     -6.14      0.04
    0   26    9     -2.56     -3.41
    0   26    8     -5.95    -11.30
    0   26    7     -7.94      0.55
    0   26    6    -14.74     -0.90
    0   26    5     -6.11     -1.42
    0   26    4     -7.50     11.24
    0   26    3     15.93     -1.43
    0   26    2     13.61     17.67
    0   26    1     13.43     23.20
    0   26    0     25.09      0.35
    1   27    9     -4.32      2.82
    1   27    8     -0.31      4.52
    1   27    7     -5.87      6.70
    1   27    6     -1.02      3.83
    1   27    5      5.02      2.55
    1   27    4     -2.09     -4.47
    1   27    3     16.30     -4.05
    1   27    2      6.56    -14.99
    1   27    1      8.46     -7.36
    1   27    0     27.15     -0.31
    2   28    8     -0.36      0.81
    2   28    7     -4.84      6.03
    2   28    6      1.39      1.59
    2   28    5     -0.94      8.89
    2   28    4      0.55     -0.53
    2   28    3      5.09      4.25
    2   28    2     -1.27      1.64
    2   28    1      1.55     -9.16
    2   28    0     -6.63      0.51
    3   29    8      3.31      7.15
    3   29    7      1.00      0.57
    3   29    6     14.38      1.88
    3   29    5      3.16     -6.70
    3   29    4     10.84     -7.16
    3   29    3      7.52     -2.61
    3   29    2     -2.77     -6.39
    3   29    1      7.11     11.86
    3   29    0    -12.44      0.05
    4   30    8      2.13     -2.53
    4   30    7      0.22     -3.66
    4   30    6     -0.18      2.54
    4   30    5     -5.15     -8.49
    4   30    4     -2.32     -1.30
    4   30    3      0.30     -1.74
    4   30    2      6.96     -6.74
    4   30    1      1.46     12.82
    4   30    0     10.97     -0.26
    5   31    7      4.26     -4.68
    5   31    6      1.66      2.16
    5   31    5      3.89     -6.22
    5   31    4     -1.01      0.95
    5   31    3     -5.26     -4.54
    5   31    2      4.16      0.20
    5   31    1     -3.51     -0.04
    5   31    0      9.71      0.37
    6   32    7      0.11      0.65
    6   32    6     -4.14     -3.55
    6   32    5      1.18     -0.56
    6   32    4     -1.96      5.80
    6   32    3      7.29     -1.57
    6   32    2      1.00     10.25
    6   32    1      3.11     -2.06
    6   32    0      1.06     -0.22
    7   33    6      2.66     -1.29
    7   33    5      1.37     -2.66
    7   33    4     -1.25     -4.67
    7   33    3     10.44     -2.64
    7   33    2      0.45     -3.62
    7   33    1      8.36      5.07
    7   33    0     -0.77     -0.24
    8   34    5     -2.04      1.46
    8   34    4     -1.94     -2.48
    8   34    3      0.48      0.73
    8   34    2      1.83     -6.48
    8   34    1      0.74     -1.98
    8   34    0      7.42      0.12
    9   35    4      3.48      0.07
    9   35    3     -2.49      0.46
    9   35    2     -0.66     -0.53
    9   35    1     -0.59     -0.55
    9   35    0     -5.91     -0.07
   10   36    2      0.68      1.42
   10   36    1      1.70      3.62
   10   36    0      1.18     -0.17
    0   28    9     -0.88     -3.01
    0   28    8      0.47      3.07
    0   28    7     -2.52      6.64
    0   28    6     -5.96      6.51
    0   28    5      1.24     12.13
    0   28    4     -8.58     -7.63
    0   28    3      0.36     -0.12
    0   28    2      6.21    -14.89
    0   28    1     -4.48    -22.61
    0   28    0     15.67      0.10
    1   29    8      3.39      5.89
    1   29    7      5.04      1.50
    1   29    6     14.61      2.38
    1   29    5      4.29      3.58
    1   29    4      5.66     -8.89
    1   29    3     -9.64     -1.36
    1   29    2     -7.13    -12.46
    1   29    1     -5.09    -15.25
    1   29    0    -15.90     -0.27
    2   30    8      2.32     -1.98
    2   30    7      0.82     -5.63
    2   30    6     -0.02     -0.56
    2   30    5     -3.60     -6.89
    2   30    4      0.31     -1.30
    2   30    3     -4.13      0.05
    2   30    2     -1.75      0.04
    2   30    1     -2.68      8.17
    2   30    0     -7.75      0.02
    3   31    8     -0.24      0.81
    3   31    7      2.56     -5.47
    3   31    6     -1.48      3.29
    3   31    5      2.07     -8.47
    3   31    4     -6.29     -3.96
    3   31    3     -5.93     -4.77
    3   31    2      4.94     -9.17
    3   31    1     -2.35      6.61
    3   31    0     14.90     -0.22
    4   32    7      1.29     -0.37
    4   32    6    -11.21     -1.55
    4   32    5      0.50      3.89
    4   32    4     -8.19      3.09
    4   32    3     -6.51      1.56
    4   32    2      3.68      1.21
    4   32    1     -5.78    -13.26
    4   32    0     14.32      0.14
    5   33    6      1.58     -2.22
    5   33    5      3.28      1.69
    5   33    4     -1.44     -2.08
    5   33    3      2.09     -1.08
    5   33    2     -4.02      3.53
    5   33    1      1.03     -4.71
    5   33    0     -7.26      0.16
    6   34    6     -3.71     -1.07
    6   34    5     -2.08      2.97
    6   34    4     -3.46     -2.89
    6   34    3      4.34      1.26
    6   34    2     -0.15     -6.72
    6   34    1      4.42     -0.47
    6   34    0      4.32      0.05
    7   35    5     -0.84     -0.59
    7   35    4     -0.07     -3.96
    7   35    3     -5.48      2.18
    7   35    2     -0.25     -9.31
    7   35    1     -2.66     -1.35
    7   35    0      0.21      0.05
    8   36    4      0.80      1.13
    8   36    3     -5.34     -0.91
    8   36    2      0.91      1.53
    8   36    1     -3.59     -2.67
    8   36    0      2.18      0.11
    9   37    2     -1.41      0.51
    9   37    1      0.43      0.96
    9   37    0     -2.74      0.11
    0   30    8      2.85     -0.93
    0   30    7      5.92     -5.94
    0   30    6      0.47     -3.03
    0   30    5     -2.91      0.94
    0   30    4      3.68      2.33
    0   30    3    -15.40      5.35
    0   30    2     -8.54      8.18
    0   30    1    -11.83     -3.68
    0   30    0    -25.53      0.21
    1   31    8     -2.37     -3.08
    1   31    7      4.10     -4.68
    1   31    6      4.99     -3.65
    1   31    5     -1.28     -7.00
    1   31    4      4.67      2.92
    1   31    3     -6.84     -0.84
    1   31    2     -5.65      9.38
    1   31    1     -0.75     12.75
    1   31    0    -15.62      0.11
    2   32    7     -3.06     -0.83
    2   32    6    -13.84     -0.91
    2   32    5     -2.43      0.23
    2   32    4     -5.39      6.02
    2   32    3     -0.66      2.82
    2   32    2      4.39      4.59
    2   32    1     -1.19      4.07
    2   32    0     13.91     -0.18
    3   33    7      2.47      3.63
    3   33    6      0.44      0.19
    3   33    5      2.50      7.77
    3   33    4     -0.89      0.97
    3   33    3     -4.98      1.32
    3   33    2     -0.70      4.27
    3   33    1     -4.23    -10.32
    3   33    0     -0.70      0.36
    4   34    6     -1.58     -3.34
    4   34    5     -1.00      8.12
    4   34    4      4.47      2.91
    4   34    3      2.40      3.74
    4   34    2     -3.46      7.27
    4   34    1      1.57     -7.36
    4   34    0     -8.45      0.27
    5   35    6      4.86      0.60
    5   35    5     -1.77     -1.22
    5   35    4      4.13     -2.74
    5   35    3      0.58      0.62
    5   35    2     -4.36     -2.66
    5   35    1      0.64      5.27
    5   35    0    -10.70     -0.11
    6   36    5     -1.81      1.93
    6   36    4      0.58      0.67
    6   36    3     -6.04      2.30
    6   36    2      2.81     -2.00
    6   36    1     -3.39     -0.66
    6   36    0      6.16      0.52
    7   37    4      2.72      3.45
    7   37    3     -4.25     -0.56
    7   37    2     -2.43      5.32
    7   37    1     -4.09     -2.76
    7   37    0     -6.64     -0.23
    8   38    2     -0.57      4.75
    8   38    1      1.02      1.86
    8   38    0      0.41      0.12
    0   32    7     -6.36     -1.35
    0   32    6    -10.10     -3.28
    0   32    5     -3.58     -6.05
    0   32    4      1.01     10.67
    0   32    3      9.02      3.10
    0   32    2      2.49     14.45
    0   32    1      6.85     21.01
    0   32    0      6.44     -0.15
    1   33    7      0.80      3.87
    1   33    6      1.19      2.05
    1   33    5      1.99     -0.38
    1   33    4     -1.85     -0.33
    1   33    3      8.50     -3.86
    1   33    2      7.59     -1.42
    1   33    1      6.43      4.77
    1   33    0     16.03     -0.08
    2   34    7     -2.21      1.11
    2   34    6     -2.73     -2.01
    2   34    5      0.25      6.86
    2   34    4      0.57      2.73
    2   34    3      4.15      1.51
    2   34    2      2.16      1.63
    2   34    1      2.00    -10.59
    2   34    0      5.44     -0.03
    3   35    6      9.59     -0.87
    3   35    5     -0.90     -0.93
    3   35    4      7.41     -1.09
    3   35    3      3.44     -2.12
    3   35    2     -6.79      3.43
    3   35    1      2.08      1.14
    3   35    0    -18.14     -0.04
    4   36    5     -2.26     -3.64
    4   36    4      2.04      1.53
    4   36    3      6.00      0.21
    4   36    2      2.14     -0.86
    4   36    1      5.28     10.85
    4   36    0      0.73     -0.14
    5   37    5      0.83     -3.93
    5   37    4      0.85      0.60
    5   37    3     -1.89     -2.82
    5   37    2      1.90     -1.71
    5   37    1     -1.81      2.05
    5   37    0      2.39     -0.82
    6   38    3      1.48     -0.38
    6   38    2      1.00      5.19
    6   38    1     -0.26     -1.05
    6   38    0      1.76      0.25
    7   39    2     -1.55      2.53
    7   39    1      2.52      1.39
    7   39    0     -5.04     -0.40
    0   34    7     -5.74      0.63
    0   34    6     -5.64      0.47
    0   34    5      0.96      2.16
    0   34    4     -6.38     -0.79
    0   34    3      8.29     -2.02
    0   34    2      6.93     -8.38
    0   34    1      3.80     -8.75
    0   34    0     21.70     -0.61
    1   35    6      6.06      3.37
    1   35    5      1.73      2.34
    1   35    4     -1.43     -6.88
    1   35    3     -1.12     -2.16
    1   35    2     -2.81     -9.44
    1   35    1     -2.82    -11.37
    1   35    0     -3.80      0.30
    2   36    6      0.68     -0.46
    2   36    5     -0.79     -1.69
    2   36    4      1.47      0.53
    2   36    3      1.28      2.09
    2   36    2     -1.59     -0.27
    2   36    1      0.77      1.70
    2   36    0     -6.14     -0.04
    3   37    5      1.00     -7.46
    3   37    4     -1.20     -3.08
    3   37    3      0.96     -4.77
    3   37    2      0.78     -5.77
    3   37    1      1.45      7.81
    3   37    0      2.37     -0.76
    4   38    4     -7.29     -0.11
    4   38    3     -0.54      0.45
    4   38    2      3.21     -4.52
    4   38    1     -1.01     -1.21
    4   38    0     11.93      0.43
    5   39    3     -1.50      0.34
    5   39    2     -0.69      1.32
    5   39    1     -1.54     -4.25
    5   39    0     -1.90     -0.63
    6   40    1      3.24      2.80
    6   40    0      0.17      0.53
    0   36    6     -1.41      0.10
    0   36    5      0.00      4.36
    0   36    4     -0.33     -1.14
    0   36    3     -8.30      5.03
    0   36    2     -2.47     -1.89
    0   36    1     -7.13    -10.59
    0   36    0     -8.28      0.30
    1   37    5      0.70     -1.81
    1   37    4      4.08     -1.31
    1   37    3     -5.93     -1.09
    1   37    2     -5.77      3.36
    1   37    1     -2.42      2.64
    1   37    0    -15.20      0.24
    2   38    5     -1.46     -1.86
    2   38    4     -3.83      1.81
    2   38    3     -0.01      2.16
    2   38    2      1.32     -0.64
    2   38    1     -0.42      5.15
    2   38    0      6.36      0.20
    3   39    4     -2.28     -2.12
    3   39    3     -4.34      1.67
    3   39    2      1.68     -1.45
    3   39    1     -3.49     -4.17
    3   39    0      4.69     -0.12
    4   40    3     -2.04      1.35
    4   40    2     -0.32      1.94
    4   40    1     -1.52     -5.62
    4   40    0     -1.49      1.32
    5   41    0     -4.46     -0.10
    0   38    5     -2.25     -1.55
    0   38    4      2.39      4.61
    0   38    3      0.71      2.89
    0   38    2     -0.51      6.89
    0   38    1      1.16      9.16
    0   38    0     -2.55     -0.28
    1   39    4      0.79     -0.09
    1   39    3      1.17     -1.98
    1   39    2      1.33      3.32
    1   39    1      2.23      4.16
    1   39    0      1.71     -0.26
    2   40    3      0.26      1.08
    2   40    2      1.95      0.19
    2   40    1      0.20     -2.30
    2   40    0      4.11      0.63
    3   41    2     -2.39      4.19
    3   41    1     -0.30     -2.89
    3   41    0     -7.26     -0.43
    0   40    3      5.82     -0.61
    0   40    2      2.70     -2.02
    0   40    1      4.38      4.96
    0   40    0      8.80     -0.03
    1   41    2      1.68     -3.06
    1   41    1      0.13     -4.10
    1   41    0      4.58     -0.24
    2   42    0     -3.10     -0.07
    0   42    1     -2.77     -3.57
    0   42    0     -0.93      0.24
    2    0    0    269.90     -0.43
    1    1    0    -77.91      0.17
    0    2    0     75.75     -0.68
    2    2    0     85.46     -0.40
    1    3    0   -255.95      0.54
    0    4    0    -94.76     -0.11
    1    5    0    -12.40      0.30
   20   14    0     -0.46     -0.42
   20   16    0     -0.07     -0.08
   20   18    0     -0.27      0.31
   19   19    0     -0.58     -0.38
   19   21    0      0.70     -1.05
   18   22    0      0.07      0.62
   18   24    0      0.83      0.71
   17   25    0      1.20      0.43
   18   26    0     -0.04     -0.09
   17   27    0     -2.68     -0.28
   16   28    0      0.59     -0.54
   16   30    0      0.01     -0.07
   15   31    0     -2.01      0.45
   14   32    0     -1.72     -0.06
   14   34    0      0.74      0.05
   13   35    0      0.85      0.00
   12   36    0      2.86     -0.19
   11   37    0      2.77      0.24
   10   38    0      4.59      0.04
    9   39    0     -0.10      0.09
    8   40    0      3.36      0.01
    7   41    0      2.05     -0.11
    4   42    0     -2.63      0.06
    6   42    0      1.74      0.22
    1    1    1    -26.00   -153.14
    0    2    1     29.15    -84.66
   20   12    1      0.64     -1.01
   20   14    1     -0.24     -0.99
   20   16    1     -0.43      0.27
   20   18    1      0.51     -0.86
   19   19    1     -0.97     -1.15
   19   21    1     -0.56      1.79
   18   22    1      1.81      0.00
   18   24    1      0.89     -1.05
   17   25    1     -1.54      1.30
   17   27    1     -1.18     -0.28
   16   28    1      0.17     -0.72
   16   30    1      0.58      0.93
   15   31    1     -0.24      0.36
   14   32    1      2.08     -0.65
   13   33    1      1.43     -0.20
   14   34    1      1.49      1.06
   13   35    1      0.74      2.44
   12   36    1      0.82      2.15
   11   37    1      0.58      1.36
   10   38    1      0.01      0.00
    9   39    1      1.01     -0.14
    8   40    1      1.47      2.47
    5   41    1      0.53     -0.14
    7   41    1      0.39     -0.72
    2   42    1     -0.09      0.40
    4   42    1      1.70      4.21
    6   42    1     -0.08      1.64
   20   12    2      0.20      0.62
   20   14    2     -0.51      0.13
   20   16    2      0.77     -0.58
   19   17    2      2.19     -0.34
   19   19    2      0.06      0.05
   19   21    2      0.06      1.29
   18   22    2     -1.08      1.20
   18   24    2      0.08     -2.14
   17   25    2      0.88     -0.94
   17   27    2     -1.04      0.85
   16   28    2     -0.37     -0.52
   15   29    2      0.36     -0.87
   16   30    2     -0.13      1.91
   15   31    2      1.22      1.81
   14   32    2      0.07      2.76
   13   33    2     -1.62      2.22
   12   34    2     -1.85      2.19
   13   35    2     -0.38     -1.63
   12   36    2      0.96     -1.18
   11   37    2      0.36     -2.72
   10   38    2      0.57     -0.70
    9   39    2     -0.54     -1.57
    6   40    2      0.41     -0.64
    8   40    2      1.48     -2.43
    5   41    2     -2.23      0.40
    7   41    2      0.91     -4.29
    0   42    2     -1.80     -3.19
    2   42    2     -1.35     -0.34
    4   42    2     -0.75      1.19
    6   42    2     -0.15     -1.70
   20    8    3     -0.28     -1.03
   20   10    3     -1.96      0.26
   20   12    3     -0.95      0.12
   20   14    3      0.61     -0.01
   19   15    3      1.41     -0.18
   20   16    3     -0.54      0.85
   19   17    3     -0.52     -0.06
   19   19    3     -0.79     -0.74
   18   20    3     -1.14      1.41
   18   22    3      0.54      0.63
   17   23    3      3.00     -1.41
   17   25    3      0.85     -0.97
   16   26    3      0.33     -1.04
   16   28    3     -0.34      1.25
   15   29    3     -2.77      1.38
   14   30    3     -2.11      1.44
   15   31    3      0.53     -0.36
   14   32    3      0.55     -0.54
   13   33    3      0.69     -0.63
   12   34    3      2.47     -0.45
   11   35    3      1.16      0.06
   10   36    3      1.91     -2.40
   12   36    3      1.67     -0.58
    9   37    3      0.52     -1.69
   11   37    3      0.40     -0.63
    8   38    3      2.51     -0.18
   10   38    3      0.56      0.34
    7   39    3      4.30     -0.78
    9   39    3      1.79      0.46
    6   40    3      4.00     -0.48
    8   40    3      2.23      0.65
    1   41    3      0.32     -2.04
    3   41    3     -1.21     -0.26
    5   41    3     -0.74     -0.19
    7   41    3     -0.57     -0.58
    0   42    3     -1.27      1.45
    2   42    3      1.04      0.16
    4   42    3      2.50     -0.39
   20    0    4      0.69      0.40
   20    2    4     -0.98      0.14
   20    4    4     -2.16      0.48
   20    6    4      0.71      1.44
   20    8    4      0.91      0.02
   20   10    4     -0.80      0.34
   19   11    4     -0.27     -0.08
   20   12    4     -0.12      0.25
   19   13    4      1.03     -0.08
   19   15    4      0.19     -0.87
   19   17    4      0.58     -0.59
   18   18    4     -1.05      0.45
   18   20    4      1.52      0.93
   17   21    4      0.74     -1.20
   18   22    4      0.88      0.57
   17   23    4     -0.32     -0.43
   16   24    4     -0.62      1.01
   17   25    4      0.46      0.03
   16   26    4     -2.16     -1.11
   15   27    4      0.26     -0.57
   15   29    4      1.12      0.70
   14   30    4     -0.40     -0.16
   13   31    4      0.14      1.99
   12   32    4      0.55      0.43
   13   33    4      1.72      1.64
   12   34    4      0.86      0.30
   11   35    4      1.45      0.69
   10   36    4      0.54      0.44
    9   37    4     -0.72      1.47
    6   38    4     -1.35      1.90
    8   38    4     -0.86      1.14
    5   39    4     -0.38     -0.35
    7   39    4      0.83      0.88
    0   40    4     -1.21      1.63
    2   40    4      0.16      1.10
    4   40    4      1.13      0.10
    6   40    4     -0.45     -1.07
    1   41    4     -1.12     -1.47
    3   41    4      3.14      0.90
    5   41    4      1.25     -0.23
    0   42    4     -2.39     -0.21
    2   42    4      0.23      0.44
   20    2    5     -0.41     -1.11
   19    3    5      1.51     -0.67
   20    4    5      0.21     -0.63
   19    5    5      0.72      2.29
   20    6    5     -0.76      0.14
   19    7    5      0.34      1.07
   20    8    5     -0.58     -1.71
   19    9    5      0.19     -0.74
   19   11    5      0.77      1.42
   19   13    5     -0.58      1.03
   18   14    5     -0.88     -0.71
   18   16    5      0.01     -1.39
   18   18    5     -0.16     -0.87
   17   19    5      0.68      2.87
   17   21    5      0.27      0.55
   16   22    5     -1.44      0.33
   16   24    5     -0.96      0.59
   15   25    5      1.14     -2.23
   15   27    5      2.12      0.43
   14   28    5     -1.16      0.11
   13   29    5      1.26     -1.42
   12   30    5     -0.45     -0.48
   13   31    5      0.20      1.55
   12   32    5     -0.19      1.75
   11   33    5     -0.39      1.78
   10   34    5     -0.15      0.59
    9   35    5      0.46     -1.35
    8   36    5      0.03      0.08
    7   37    5      0.75     -0.66
    4   38    5      0.24     -1.01
    6   38    5      0.71      0.00
    1   39    5      0.24     -0.69
    3   39    5      1.82      3.14
    5   39    5      1.56      2.01
    0   40    5     -1.09     -0.61
    2   40    5     -0.73      2.97
    4   40    5     -0.24      3.48
    1   41    5      0.98     -0.68
   19    1    6      0.35     -1.44
   19    3    6     -0.10     -0.66
   19    5    6     -0.24     -0.95
   18    6    6     -1.85      0.06
   19    7    6      2.07     -0.14
   18    8    6      0.21     -0.08
   19    9    6      1.10      0.35
   18   10    6     -1.65      0.33
   18   12    6     -1.16     -0.63
   17   13    6      1.01     -0.49
   18   14    6      0.30     -0.11
   17   15    6      1.41      0.09
   17   17    6      0.75      0.14
   16   18    6     -0.86      1.01
   17   19    6     -0.93     -0.37
   16   20    6      0.02     -0.13
   15   21    6     -0.87     -0.20
   16   22    6      1.82     -0.87
   15   23    6      0.00     -0.41
   14   24    6     -0.37     -0.26
   15   25    6     -0.35     -0.32
   14   26    6     -0.51      1.83
   13   27    6      1.74     -0.42
   12   28    6      0.58      1.22
   13   29    6      1.20     -0.13
   12   30    6     -1.69     -0.14
   11   31    6     -1.00     -0.58
   10   32    6     -1.36      0.16
    9   33    6      3.10      0.61
    8   34    6     -0.94      0.59
    7   35    6      2.70      2.14
    9   35    6      2.43      1.00
    4   36    6      0.01      1.51
    6   36    6     -2.38      2.15
    8   36    6     -1.80      0.68
    1   37    6      3.45     -0.98
    3   37    6      1.96      0.76
    5   37    6      2.39      1.21
    0   38    6     -2.13     -2.69
    2   38    6     -4.48     -0.36
    4   38    6     -4.86      0.68
    1   39    6      0.01      0.82
    3   39    6     -1.44      1.68
   18    2    7      0.18      0.14
   17    3    7     -0.58     -0.79
   18    4    7      0.09      0.19
   17    5    7     -0.13     -1.09
   18    6    7      0.50      0.60
   17    7    7      0.72      0.83
   18    8    7     -0.22     -0.16
   17    9    7      0.34      0.28
   17   11    7      0.19      0.03
   16   12    7     -0.48      0.11
   17   13    7     -0.13     -0.26
   16   14    7     -0.30     -0.33
   16   16    7     -0.05      0.23
   15   17    7      0.26      1.22
   16   18    7     -0.14     -1.19
   15   19    7      0.18      0.12
   14   20    7     -0.88     -0.39
   15   21    7      0.19      0.95
   14   22    7      0.39     -0.47
   13   23    7      1.17      0.44
   14   24    7      0.68     -1.23
   13   25    7     -0.28      0.20
   12   26    7     -1.45     -0.28
   11   27    7      1.37      0.72
   10   28    7     -0.63     -1.62
   12   28    7     -0.39      0.60
   11   29    7      1.07      0.65
   10   30    7      0.75     -0.66
    9   31    7      0.70     -1.83
    8   32    7     -1.09      3.13
    5   33    7     -0.82      0.64
    7   33    7     -1.46     -0.65
    4   34    7     -2.03      2.06
    6   34    7     -2.90      1.06
    1   35    7      2.23      2.84
    3   35    7      0.75      1.95
    5   35    7     -0.93      1.13
    0   36    7      1.14     -2.82
    2   36    7     -0.86     -2.59
    4   36    7     -1.79     -1.22
    1   37    7      1.90      0.78
   16    0    8     -1.01     -0.48
   17    1    8      0.56      0.67
   16    2    8     -0.20     -0.10
   17    3    8      0.28     -0.63
   16    4    8     -0.18      0.47
   17    5    8     -0.13     -0.22
   16    6    8     -0.10      0.31
   16    8    8      0.09     -0.51
   16   10    8      0.04     -0.63
   15   11    8      0.24      0.17
   16   12    8      0.44     -0.45
   15   13    8      0.07      0.21
   15   15    8     -0.31     -0.24
   14   16    8      0.53     -0.48
   15   17    8      0.16     -0.45
   14   18    8      0.24      0.32
   13   19    8     -0.40      0.12
   14   20    8     -0.16      0.79
   13   21    8     -0.16     -0.39
   12   22    8     -0.76      0.70
   11   23    8      0.54     -0.36
   13   23    8      0.38     -0.46
   12   24    8      0.94     -0.03
   11   25    8      1.68     -0.62
   10   26    8     -1.47     -0.05
    9   27    8      2.58      1.58
    8   28    8      0.87     -1.38
   10   28    8     -0.88     -0.67
    7   29    8      0.71      6.74
    9   29    8      0.90      2.29
    6   30    8      0.93     -1.90
    8   30    8      0.27     -1.18
    5   31    8      0.99      1.49
    7   31    8     -0.01      0.01
    0   32    8     -0.90     -2.47
    2   32    8     -0.72     -2.18
    4   32    8     -1.96     -2.53
    6   32    8     -1.34     -2.69
    1   33    8     -0.89      0.83
    3   33    8     -1.19      0.54
    5   33    8     -1.35     -0.47
    0   34    8     -0.14     -0.19
    2   34    8      0.11     -0.25
   15    1    9     -0.94      0.56
   14    2    9     -0.78      0.97
   15    3    9     -0.02      0.11
   14    4    9      0.13      0.49
   15    5    9      0.99     -0.90
   14    6    9     -0.17      0.50
   15    7    9      0.75     -1.09
   14    8    9     -1.42      0.18
   15    9    9     -0.24      0.67
   14   10    9     -0.42      0.61
   13   11    9      2.30      0.87
   14   12    9     -0.70     -1.14
   13   13    9      0.89      0.74
   14   14    9     -0.78     -0.90
   13   15    9      0.63      0.96
   12   16    9      0.95      0.25
   13   17    9      0.24     -0.56
   12   18    9      0.04     -0.28
   11   19    9     -0.94     -1.10
   10   20    9     -0.18     -1.00
   12   20    9     -0.58      0.49
   11   21    9     -0.12      0.27
   10   22    9      0.06      0.22
    9   23    9      0.54     -0.42
    8   24    9      0.33      0.44
   10   24    9     -0.04      0.31
    7   25    9      3.65      0.55
    9   25    9      0.96      1.11
    6   26    9     -2.17     -1.24
    8   26    9     -1.40      0.40
    5   27    9     -1.62     -0.27
    7   27    9     -0.84      0.25
    2   28    9     -1.36     -1.72
    4   28    9     -1.80      0.30
    6   28    9     -2.31      0.08
    1   29    9      1.83      4.11
    3   29    9      1.30      2.82
    5   29    9      0.27      2.51
    0   30    9      1.84     -2.47
    2   30    9      1.49     -2.51
    4   30    9      1.20     -1.68
    1   31    9      1.03      0.76
    3   31    9      0.01      0.84
   12    0   10      1.68     -1.74
   13    1   10     -0.26      0.67
   12    2   10      0.06     -1.03
   13    3   10     -0.52      1.04
   12    4   10     -1.65     -1.49
   13    5   10     -0.36      1.17
   12    6   10      0.43     -0.54
   13    7   10      1.13     -0.17
   12    8   10      0.47     -0.37
   11    9   10     -1.01     -0.63
   13    9   10     -0.17     -0.64
   12   10   10     -0.09      1.30
   11   11   10     -1.17     -0.27
   12   12   10     -0.05     -0.03
   11   13   10     -0.77      0.34
   10   14   10      0.14     -1.47
   11   15   10     -0.20      1.74
   10   16   10      0.98     -0.32
    9   17   10      0.07      0.80
    8   18   10      1.54     -1.77
   10   18   10      0.80     -0.74
    9   19   10      0.85     -0.83
    8   20   10      0.30     -0.63
    7   21   10     -1.71      0.46
    9   21   10     -1.12      0.22
    6   22   10     -0.60      1.54
    8   22   10      0.02      1.31
    3   23   10     -0.90      2.41
    5   23   10      0.12      2.40
    7   23   10     -0.37      1.33
    0   24   10      0.06     -0.25
    2   24   10     -0.37     -0.05
    4   24   10     -0.03     -0.57
    6   24   10      0.62     -0.83
    1   25   10      0.82     -1.39
    3   25   10      1.17     -0.17
    5   25   10      0.92     -0.30
    0   26   10      0.88     -1.91
    2   26   10      1.16     -1.41
    4   26   10      1.08     -1.84
    1   27   10     -0.26      0.71
    3   27   10     -0.72      0.63
    9    1   11     -0.09     -1.19
   11    1   11     -0.51     -0.78
   10    2   11     -0.31     -1.63
    9    3   11      0.32      0.36
   11    3   11      0.45     -0.43
   10    4   11      0.76     -0.12
    9    5   11     -0.55      2.65
   11    5   11     -0.31      1.41
   10    6   11      0.44     -0.60
    9    7   11     -1.21      0.58
    8    8   11      0.99     -3.31
   10    8   11      0.50     -1.47
    9    9   11     -0.52      1.40
    8   10   11      1.26      1.43
   10   10   11      0.06     -0.45
    7   11   11     -1.55      2.59
    9   11   11     -0.25      0.17
    8   12   11      1.18     -0.04
    7   13   11     -2.40     -2.15
    9   13   11     -0.97     -0.94
    6   14   11      1.67     -1.87
    8   14   11      0.52     -0.03
    5   15   11     -1.18     -1.90
    7   15   11     -1.11     -1.44
    4   16   11      2.63     -0.02
    6   16   11      1.90      0.71
    8   16   11      1.56      1.13
    3   17   11     -0.30      3.63
    5   17   11     -0.82      2.57
    7   17   11     -0.37      1.05
    0   18   11      1.45      3.16
    2   18   11      1.18      2.30
    4   18   11      0.86      1.04
    6   18   11      1.06      0.60
    1   19   11     -1.07      2.20
    3   19   11     -1.51      0.79
    5   19   11     -0.96     -0.02
    0   20   11      0.35     -2.40
    2   20   11     -0.15     -1.84
    4   20   11     -0.38     -0.71
    1   21   11     -0.15     -1.35
    3   21   11     -0.30     -1.86
    0   22   11     -0.26     -2.78
    2   22   11      0.03     -1.85
    4    0   12      4.21      1.88
    6    0   12      3.00      2.13
    3    1   12      1.75      1.82
    5    1   12      1.07      0.83
    7    1   12     -0.19      0.56
    4    2   12     -1.01     -1.44
    6    2   12     -0.94     -0.89
    3    3   12     -4.60     -0.48
    5    3   12     -4.00     -1.06
    7    3   12     -1.24     -1.22
    2    4   12     -1.50     -1.74
    4    4   12     -1.00     -1.85
    6    4   12     -0.63     -1.08
    1    5   12      0.60     -0.57
    3    5   12     -0.19     -0.07
    5    5   12      0.72      0.77
    7    5   12      1.17      0.02
    0    6   12      5.80     -1.60
    2    6   12      4.47     -0.79
    4    6   12      3.62      0.13
    6    6   12      2.59      0.24
    1    7   12      2.33      1.04
    3    7   12      1.80      3.22
    5    7   12      1.71      2.97
    0    8   12      0.22      0.61
    2    8   12      0.40      0.34
    4    8   12      0.06     -1.23
    6    8   12     -0.89     -1.39
    1    9   12     -3.79      1.28
    3    9   12     -2.77      0.94
    5    9   12     -2.96      0.45
    0   10   12     -2.94     -0.64
    2   10   12     -2.07     -2.04
    4   10   12     -1.41     -2.84
    1   11   12     -0.35     -0.07
    3   11   12     -0.81     -0.31
    5   11   12      0.11      0.45
    0   12   12      2.29     -0.88
    2   12   12      1.41     -0.54
    4   12   12      1.03      0.15
    1   13   12      1.96      1.08
    3   13   12      1.74      1.18
    0   14   12      2.39     -1.21
    2   14   12      2.12      0.03
    1   15   12     -2.71      0.91
    0    0    0      0.00      0.00
# SQUEEZE RESULTS (Version = 120716)
# Note: Data are Listed for all Voids in the P1 Unit Cell
# i.e. Centre of Gravity, Solvent Accessible Volume,
# Recovered number of Electrons in the Void and
# Details about the Squeezed Material
loop_
  _platon_squeeze_void_nr
  _platon_squeeze_void_average_x
  _platon_squeeze_void_average_y
  _platon_squeeze_void_average_z
  _platon_squeeze_void_volume
  _platon_squeeze_void_count_electrons
  _platon_squeeze_void_content
   1  0.500  0.000  0.026       268        95 ' '
   2  0.500  0.220 -0.067        27         1 ' '
   3  0.500  0.350 -0.052       153        51 ' '
   4  0.000  0.500  0.026       268        95 ' '
   5  0.000  0.720 -0.067        27         1 ' '
   6  0.000  0.850 -0.052       153        51 ' '
   7  0.000  0.151  0.449       154        50 ' '
   8  0.500  0.651  0.449       154        50 ' '
   9  0.000  0.284  0.428        25         1 ' '
  10  0.500  0.784  0.428        25         1 ' '
# Missing Reflections Below sin(th)/lambda = 0.25
loop_
  _platon_missing_refln_index_h
  _platon_missing_refln_index_k
  _platon_missing_refln_index_l
  _platon_missing_refln_theta
    2    0    0     2.404
    1    1    0     1.341
    0    2    0     1.190
    2    2    0     2.683
    1    3    0     2.152
    0    4    0     2.380
    1    5    0     3.209
    1    1    1     2.474
    0    2    1     2.395
_platon_squeeze_void_probe_radius                  1.20
_platon_squeeze_details
)
TITL mo_feemtppclo4_0ma_a.res in Cc New: Cmc21
CELL   16.9440   34.2310    9.7978     90.00     90.00     90.00
SPGR Cmc21
# Solvent Accessible Volume =      1260
# Electrons Found in S.A.V. =       397
# Note: Atoms in Void as Cxxx and Qxxx all others
C101 0.500 0.343 0.092 !      15.72 eA-3
C102 1.000 0.503 0.071 !      10.85 eA-3
C103 0.862 0.147 0.392 !       8.60 eA-3
C104 0.500 0.054 0.888 !       6.76 eA-3
C105 0.093 0.149 0.539 !       3.95 eA-3
C106 0.971 0.144 0.448 !       3.12 eA-3
Q107 1.000 0.325 0.935 !       2.79 eA-3
Q108 0.591 0.100 0.934 !       1.47 eA-3
Q109 0.598 0.130 0.385 !       1.42 eA-3
C110 0.028 0.481 0.657 !       1.11 eA-3
C111 1.000 0.137 0.522 !       1.11 eA-3
Q112 0.500 0.389 0.416 !       1.07 eA-3
Q113 1.000 0.328 0.798 !       0.90 eA-3
Q114 1.000 0.417 0.572 !       0.89 eA-3
Q115 1.000 0.227 0.870 !       0.74 eA-3
Q116 0.500 0.403 0.123 !       0.69 eA-3
Q117 0.500 0.186 0.650 !       0.68 eA-3
Q118 1.000 0.213 0.398 !       0.68 eA-3
Q119 0.562 0.005 0.744 !       0.65 eA-3
Q120 0.172 0.174 0.421 !       0.63 eA-3
Q121 1.000 0.399 0.214 !       0.60 eA-3
C122 1.000 0.284 0.438 !       0.60 eA-3
Q123 0.860 0.180 0.330 !       0.56 eA-3
Q124 0.500 0.399 0.602 !       0.56 eA-3
Q125 0.500 0.055 0.665 !       0.55 eA-3
Q126 0.119 0.118 0.346 !       0.55 eA-3
Q127 0.092 0.477 0.274 !       0.54 eA-3
Q128 1.000 0.211 0.649 !       0.54 eA-3
Q129 0.500 0.483 0.853 !       0.54 eA-3
Q130 0.500 0.182 0.787 !       0.53 eA-3
Q131 0.063 0.185 0.740 !       0.52 eA-3
Q132 1.000 0.436 0.731 !       0.51 eA-3
Q133 0.157 0.366 0.407 !       0.51 eA-3
)
;
_shelx_fab_checksum              70699
loop_
_space_group_symop_operation_xyz
'x, y, z'
'-x, -y, z+1/2'
'-x, y, z'
'x, -y, z+1/2'
'x+1/2, y+1/2, z'
'-x+1/2, -y+1/2, z+1/2'
'-x+1/2, y+1/2, z'
'x+1/2, -y+1/2, z+1/2'
loop_
_atom_site_label
_atom_site_type_symbol
_atom_site_fract_x
_atom_site_fract_y
_atom_site_fract_z
_atom_site_U_iso_or_equiv
_atom_site_adp_type
_atom_site_occupancy
_atom_site_site_symmetry_order
_atom_site_calc_flag
_atom_site_refinement_flags_posn
_atom_site_refinement_flags_adp
_atom_site_refinement_flags_occupancy
Fe1 Fe 0.0000 0.10018(2) 0.92240(10) 0.0108(2) Uani 1 2 d S T P
Sb1 Sb 0.5000 0.15280(2) 0.36992(5) 0.02472(17) Uani 1 2 d S T P
Cl1 Cl 0.0000 0.08445(5) 1.14277(17) 0.0206(3) Uani 1 2 d S T P
Cl2 Cl 0.5000 0.08506(6) 0.4113(4) 0.0503(7) Uani 1 2 d S T P
Cl3 Cl 0.36087(8) 0.15248(4) 0.3664(2) 0.0308(3) Uani 1 1 d . . .
Cl4 Cl 0.5000 0.22179(5) 0.3268(2) 0.0288(4) Uani 1 2 d S T P
Cl6 Cl 0.5000 0.14188(9) 0.1315(3) 0.0458(6) Uani 1 2 d S T P
Cl7 Cl 0.5000 0.16557(10) 0.6072(3) 0.0468(6) Uani 1 2 d S T P
N1 N 0.1180(2) 0.10328(10) 0.8715(5) 0.0117(7) Uani 1 1 d . . .
N2 N 0.0000 0.04695(15) 0.8310(6) 0.0117(11) Uani 1 2 d S T P
N3 N 0.0000 0.15950(16) 0.9355(6) 0.0130(11) Uani 1 2 d S T P
C1 C 0.1614(3) 0.13702(13) 0.8648(5) 0.0141(8) Uani 1 1 d . . .
C2 C 0.1619(3) 0.07508(13) 0.8047(5) 0.0137(9) Uani 1 1 d . . .
C3 C 0.1415(3) 0.03532(13) 0.8162(5) 0.0133(9) Uani 1 1 d . . .
C4 C 0.0655(3) 0.02350(13) 0.8557(5) 0.0136(9) Uani 1 1 d . . .
C5 C -0.1409(3) 0.17076(13) 0.9410(5) 0.0153(9) Uani 1 1 d . . .
C6 C -0.0653(3) 0.17795(13) 0.9895(5) 0.0128(9) Uani 1 1 d . . .
C7 C -0.0402(3) 0.20653(13) 1.0895(5) 0.0157(9) Uani 1 1 d . . .
C8 C 0.2308(3) 0.13104(15) 0.7802(5) 0.0190(10) Uani 1 1 d . . .
C9 C 0.2294(3) 0.09262(15) 0.7416(5) 0.0180(9) Uani 1 1 d . . .
C10 C 0.0413(3) -0.01403(13) 0.9083(5) 0.0139(9) Uani 1 1 d . . .
C11 C -0.0906(3) 0.23124(17) 1.1814(6) 0.0250(11) Uani 1 1 d . . .
H11A H -0.1464 0.2261 1.1622 0.037 Uiso 1 1 calc R U .
H11B H -0.0792 0.2248 1.2768 0.037 Uiso 1 1 calc R U .
H11C H -0.0792 0.2589 1.1650 0.037 Uiso 1 1 calc R U .
C12 C 0.2882(4) 0.16145(17) 0.7314(6) 0.0278(12) Uani 1 1 d . . .
H12A H 0.2761 0.1865 0.7748 0.042 Uiso 1 1 calc R U .
H12B H 0.3420 0.1535 0.7554 0.042 Uiso 1 1 calc R U .
H12C H 0.2840 0.1641 0.6320 0.042 Uiso 1 1 calc R U .
C13 C 0.2865(3) 0.07474(15) 0.6426(6) 0.0251(11) Uani 1 1 d . . .
H13A H 0.2741 0.0470 0.6308 0.038 Uiso 1 1 calc R U .
H13B H 0.2824 0.0881 0.5544 0.038 Uiso 1 1 calc R U .
H13C H 0.3403 0.0774 0.6779 0.038 Uiso 1 1 calc R U .
C14 C 0.0913(3) -0.04640(13) 0.9630(5) 0.0182(10) Uani 1 1 d . . .
H14C H 0.1471 -0.0397 0.9516 0.027 Uiso 1 1 calc R U .
H14A H 0.0797 -0.0502 1.0601 0.027 Uiso 1 1 calc R U .
H14B H 0.0797 -0.0705 0.9130 0.027 Uiso 1 1 calc R U .
C15 C 0.2000(3) 0.00474(14) 0.7841(5) 0.0152(9) Uani 1 1 d . . .
C16 C 0.1779(3) -0.02560(13) 0.6941(5) 0.0176(9) Uani 1 1 d . . .
H16A H 0.1272 -0.0256 0.6529 0.021 Uiso 1 1 calc R U .
C17 C 0.2318(4) -0.05575(16) 0.6661(6) 0.0278(12) Uani 1 1 d . . .
H17A H 0.2176 -0.0761 0.6051 0.033 Uiso 1 1 calc R U .
C18 C 0.3051(4) -0.05581(17) 0.7269(6) 0.0303(13) Uani 1 1 d . . .
H18A H 0.3411 -0.0764 0.7080 0.036 Uiso 1 1 calc R U .
C19 C 0.3268(3) -0.02619(18) 0.8151(6) 0.0286(12) Uani 1 1 d . . .
H19A H 0.3773 -0.0266 0.8572 0.034 Uiso 1 1 calc R U .
C20 C 0.2746(3) 0.00444(15) 0.8426(5) 0.0203(10) Uani 1 1 d . . .
H20A H 0.2903 0.0251 0.9014 0.024 Uiso 1 1 calc R U .
C21 C -0.2061(3) 0.19900(13) 0.9713(5) 0.0151(9) Uani 1 1 d . . .
C22 C -0.2007(3) 0.23765(14) 0.9267(6) 0.0200(10) Uani 1 1 d . . .
H22A H -0.1554 0.2462 0.8778 0.024 Uiso 1 1 calc R U .
C23 C -0.2616(3) 0.26347(15) 0.9542(6) 0.0284(12) Uani 1 1 d . . .
H23A H -0.2585 0.2897 0.9230 0.034 Uiso 1 1 calc R U .
C24 C -0.3259(4) 0.25132(17) 1.0258(7) 0.0292(12) Uani 1 1 d . . .
H24A H -0.3671 0.2693 1.0445 0.035 Uiso 1 1 calc R U .
C25 C -0.3321(3) 0.2139(2) 1.0710(6) 0.0322(13) Uani 1 1 d . . .
H25A H -0.3771 0.2060 1.1220 0.039 Uiso 1 1 calc R U .
C26 C -0.2720(3) 0.18684(15) 1.0421(6) 0.0222(11) Uani 1 1 d . . .
H26A H -0.2767 0.1605 1.0711 0.027 Uiso 1 1 calc R U .
loop_
_atom_site_aniso_label
_atom_site_aniso_U_11
_atom_site_aniso_U_22
_atom_site_aniso_U_33
_atom_site_aniso_U_23
_atom_site_aniso_U_13
_atom_site_aniso_U_12
Fe1 0.0106(4) 0.0114(4) 0.0105(4) 0.0007(3) 0.000 0.000
Sb1 0.0191(3) 0.0271(3) 0.0280(3) -0.0008(2) 0.000 0.000
Cl1 0.0252(9) 0.0246(8) 0.0121(7) 0.0039(6) 0.000 0.000
Cl2 0.0325(11) 0.0275(10) 0.091(2) 0.0073(12) 0.000 0.000
Cl3 0.0234(6) 0.0324(7) 0.0366(7) 0.0021(6) -0.0007(8) -0.0061(5)
Cl4 0.0166(9) 0.0256(9) 0.0443(11) -0.0075(8) 0.000 0.000
Cl6 0.0432(14) 0.0599(14) 0.0344(12) -0.0224(12) 0.000 0.000
Cl7 0.0289(11) 0.0798(17) 0.0317(12) 0.0100(12) 0.000 0.000
N1 0.0107(17) 0.0104(15) 0.0141(16) -0.0006(16) 0.0019(17) 0.0007(13)
N2 0.007(2) 0.010(2) 0.018(3) 0.001(2) 0.000 0.000
N3 0.006(3) 0.013(2) 0.020(3) -0.004(2) 0.000 0.000
C1 0.013(2) 0.0159(19) 0.0131(19) -0.003(2) -0.003(2) -0.0010(16)
C2 0.017(2) 0.013(2) 0.010(2) 0.0028(17) 0.0008(18) 0.0032(17)
C3 0.015(2) 0.013(2) 0.0126(19) -0.0041(17) -0.0010(17) 0.0015(17)
C4 0.017(2) 0.0103(18) 0.013(2) -0.0035(18) -0.0011(18) 0.0007(16)
C5 0.014(2) 0.017(2) 0.014(2) 0.0023(18) 0.0047(19) 0.0025(18)
C6 0.012(2) 0.0112(19) 0.015(2) 0.0029(17) 0.0034(17) 0.0039(16)
C7 0.017(2) 0.015(2) 0.015(2) 0.0020(18) 0.0021(18) 0.0024(19)
C8 0.016(2) 0.021(2) 0.020(2) 0.004(2) 0.0035(19) -0.0036(18)
C9 0.012(2) 0.023(2) 0.019(2) 0.0017(19) 0.0017(19) 0.0026(18)
C10 0.013(2) 0.014(2) 0.015(2) 0.0002(16) -0.0001(18) -0.0022(17)
C11 0.016(2) 0.033(3) 0.026(3) -0.008(2) 0.002(2) 0.002(2)
C12 0.026(3) 0.023(3) 0.034(3) -0.005(2) 0.017(2) -0.007(2)
C13 0.023(3) 0.024(2) 0.028(3) -0.007(2) 0.013(2) -0.004(2)
C14 0.017(2) 0.015(2) 0.023(2) 0.0033(18) -0.0029(19) 0.0059(19)
C15 0.016(2) 0.0137(19) 0.016(2) 0.0014(18) 0.0017(19) 0.0005(17)
C16 0.026(3) 0.009(2) 0.018(2) 0.0007(18) 0.000(2) 0.0019(18)
C17 0.037(3) 0.019(2) 0.027(3) -0.002(2) 0.010(2) 0.007(2)
C18 0.037(3) 0.023(3) 0.030(3) 0.004(2) 0.007(3) 0.013(2)
C19 0.016(2) 0.039(3) 0.031(3) 0.000(2) -0.003(2) 0.013(2)
C20 0.016(2) 0.020(2) 0.025(3) 0.000(2) -0.001(2) 0.0025(18)
C21 0.014(2) 0.013(2) 0.019(2) -0.0034(18) 0.0010(18) 0.0016(17)
C22 0.020(2) 0.015(2) 0.025(2) 0.005(2) -0.002(2) -0.0013(18)
C23 0.027(3) 0.017(2) 0.041(3) -0.002(2) -0.008(3) 0.004(2)
C24 0.025(3) 0.029(3) 0.034(3) -0.013(2) -0.002(2) 0.013(2)
C25 0.016(3) 0.046(3) 0.034(3) 0.001(3) 0.009(2) 0.006(3)
C26 0.019(3) 0.015(2) 0.033(3) -0.003(2) 0.005(2) 0.000(2)
loop_
_atom_type_symbol
_atom_type_description
_atom_type_scat_dispersion_real
_atom_type_scat_dispersion_imag
_atom_type_scat_source
C C 0.0033 0.0016 'International Tables Vol C Tables 4.2.6.8 and 6.1.1.4'
H H 0.0000 0.0000 'International Tables Vol C Tables 4.2.6.8 and 6.1.1.4'
Cl Cl 0.1484 0.1585 'International Tables Vol C Tables 4.2.6.8 and 6.1.1.4'
Fe Fe 0.3463 0.8444 'International Tables Vol C Tables 4.2.6.8 and 6.1.1.4'
N N 0.0061 0.0033 'International Tables Vol C Tables 4.2.6.8 and 6.1.1.4'
Sb Sb -0.5866 1.5461 'International Tables Vol C Tables 4.2.6.8 and 6.1.1.4'
loop_
_geom_angle_atom_site_label_1
_geom_angle_atom_site_label_2
_geom_angle_atom_site_label_3
_geom_angle
_geom_angle_site_symmetry_1
_geom_angle_site_symmetry_3
N2 Fe1 N3 157.4(2) . .
N2 Fe1 N1 86.53(11) . 3
N3 Fe1 N1 87.93(11) . 3
N2 Fe1 N1 86.53(11) . .
N3 Fe1 N1 87.93(11) . .
N1 Fe1 N1 151.4(3) 3 .
N2 Fe1 Cl1 102.17(17) . .
N3 Fe1 Cl1 100.39(19) . .
N1 Fe1 Cl1 104.30(13) 3 .
N1 Fe1 Cl1 104.30(13) . .
Cl2 Sb1 Cl3 89.88(3) . 3_655
Cl2 Sb1 Cl3 89.88(3) . .
Cl3 Sb1 Cl3 178.23(10) 3_655 .
Cl2 Sb1 Cl6 90.83(12) . .
Cl3 Sb1 Cl6 89.12(5) 3_655 .
Cl3 Sb1 Cl6 89.12(5) . .
Cl2 Sb1 Cl7 90.73(12) . .
Cl3 Sb1 Cl7 90.88(5) 3_655 .
Cl3 Sb1 Cl7 90.88(5) . .
Cl6 Sb1 Cl7 178.45(12) . .
Cl2 Sb1 Cl4 179.77(11) . .
Cl3 Sb1 Cl4 90.12(3) 3_655 .
Cl3 Sb1 Cl4 90.12(3) . .
Cl6 Sb1 Cl4 88.95(9) . .
Cl7 Sb1 Cl4 89.50(10) . .
C1 N1 C2 106.0(4) . .
C1 N1 Fe1 125.1(3) . .
C2 N1 Fe1 126.9(3) . .
C4 N2 C4 105.9(5) . 3
C4 N2 Fe1 116.2(3) . .
C4 N2 Fe1 116.2(3) 3 .
C6 N3 C6 106.6(6) 3 .
C6 N3 Fe1 118.7(3) 3 .
C6 N3 Fe1 118.7(3) . .
N1 C1 C5 122.0(4) . 3
N1 C1 C8 110.0(4) . .
C5 C1 C8 127.8(4) 3 .
N1 C2 C3 120.3(4) . .
N1 C2 C9 110.0(4) . .
C3 C2 C9 129.5(4) . .
C4 C3 C2 121.7(4) . .
C4 C3 C15 118.0(4) . .
C2 C3 C15 120.3(4) . .
N2 C4 C3 121.2(4) . .
N2 C4 C10 110.4(4) . .
C3 C4 C10 128.0(4) . .
C6 C5 C1 123.4(4) . 3
C6 C5 C21 119.9(4) . .
C1 C5 C21 116.7(4) 3 .
N3 C6 C5 121.8(5) . .
N3 C6 C7 109.4(4) . .
C5 C6 C7 128.5(4) . .
C7 C7 C6 107.1(3) 3 .
C7 C7 C11 124.7(3) 3 .
C6 C7 C11 128.2(5) . .
C9 C8 C1 106.2(4) . .
C9 C8 C12 126.1(5) . .
C1 C8 C12 127.4(5) . .
C8 C9 C2 107.3(4) . .
C8 C9 C13 124.0(5) . .
C2 C9 C13 128.5(5) . .
C10 C10 C4 106.5(3) 3 .
C10 C10 C14 124.5(3) 3 .
C4 C10 C14 128.8(4) . .
C7 C11 H11A 109.5 . .
C7 C11 H11B 109.5 . .
H11A C11 H11B 109.5 . .
C7 C11 H11C 109.5 . .
H11A C11 H11C 109.5 . .
H11B C11 H11C 109.5 . .
C8 C12 H12A 109.5 . .
C8 C12 H12B 109.5 . .
H12A C12 H12B 109.5 . .
C8 C12 H12C 109.5 . .
H12A C12 H12C 109.5 . .
H12B C12 H12C 109.5 . .
C9 C13 H13A 109.5 . .
C9 C13 H13B 109.5 . .
H13A C13 H13B 109.5 . .
C9 C13 H13C 109.5 . .
H13A C13 H13C 109.5 . .
H13B C13 H13C 109.5 . .
C10 C14 H14C 109.5 . .
C10 C14 H14A 109.5 . .
H14C C14 H14A 109.5 . .
C10 C14 H14B 109.5 . .
H14C C14 H14B 109.5 . .
H14A C14 H14B 109.5 . .
C20 C15 C16 119.5(4) . .
C20 C15 C3 121.9(4) . .
C16 C15 C3 118.5(4) . .
C17 C16 C15 119.4(5) . .
C17 C16 H16A 120.3 . .
C15 C16 H16A 120.3 . .
C18 C17 C16 120.1(5) . .
C18 C17 H17A 119.9 . .
C16 C17 H17A 119.9 . .
C17 C18 C19 120.6(5) . .
C17 C18 H18A 119.7 . .
C19 C18 H18A 119.7 . .
C18 C19 C20 120.2(5) . .
C18 C19 H19A 119.9 . .
C20 C19 H19A 119.9 . .
C15 C20 C19 120.1(5) . .
C15 C20 H20A 119.9 . .
C19 C20 H20A 119.9 . .
C26 C21 C22 119.8(4) . .
C26 C21 C5 120.2(4) . .
C22 C21 C5 120.0(4) . .
C23 C22 C21 119.6(5) . .
C23 C22 H22A 120.2 . .
C21 C22 H22A 120.2 . .
C24 C23 C22 120.1(5) . .
C24 C23 H23A 119.9 . .
C22 C23 H23A 119.9 . .
C25 C24 C23 121.2(5) . .
C25 C24 H24A 119.4 . .
C23 C24 H24A 119.4 . .
C24 C25 C26 119.9(5) . .
C24 C25 H25A 120.0 . .
C26 C25 H25A 120.0 . .
C21 C26 C25 119.3(5) . .
C21 C26 H26A 120.3 . .
C25 C26 H26A 120.3 . .
loop_
_geom_bond_atom_site_label_1
_geom_bond_atom_site_label_2
_geom_bond_distance
_geom_bond_site_symmetry_2
Fe1 N2 2.030(5) .
Fe1 N3 2.035(6) .
Fe1 N1 2.063(4) 3
Fe1 N1 2.063(4) .
Fe1 Cl1 2.2252(18) .
Sb1 Cl2 2.354(2) .
Sb1 Cl3 2.3577(14) 3_655
Sb1 Cl3 2.3577(14) .
Sb1 Cl6 2.366(3) .
Sb1 Cl7 2.366(3) .
Sb1 Cl4 2.3991(19) .
N1 C1 1.371(5) .
N1 C2 1.384(6) .
N2 C4 1.391(5) .
N2 C4 1.391(5) 3
N3 C6 1.380(6) 3
N3 C6 1.380(6) .
C1 C5 1.418(7) 3
C1 C8 1.453(7) .
C2 C3 1.409(6) .
C2 C9 1.432(7) .
C3 C4 1.404(6) .
C3 C15 1.475(6) .
C4 C10 1.444(6) .
C5 C6 1.388(7) .
C5 C1 1.418(7) 3
C5 C21 1.498(6) .
C6 C7 1.448(7) .
C7 C7 1.362(10) 3
C7 C11 1.502(7) .
C8 C9 1.368(7) .
C8 C12 1.503(7) .
C9 C13 1.501(7) .
C10 C10 1.398(9) 3
C10 C14 1.494(6) .
C11 H11A 0.9800 .
C11 H11B 0.9800 .
C11 H11C 0.9800 .
C12 H12A 0.9800 .
C12 H12B 0.9800 .
C12 H12C 0.9800 .
C13 H13A 0.9800 .
C13 H13B 0.9800 .
C13 H13C 0.9800 .
C14 H14C 0.9800 .
C14 H14A 0.9800 .
C14 H14B 0.9800 .
C15 C20 1.389(7) .
C15 C16 1.413(7) .
C16 C17 1.404(7) .
C16 H16A 0.9500 .
C17 C18 1.378(9) .
C17 H17A 0.9500 .
C18 C19 1.382(9) .
C18 H18A 0.9500 .
C19 C20 1.398(7) .
C19 H19A 0.9500 .
C20 H20A 0.9500 .
C21 C26 1.379(7) .
C21 C22 1.396(7) .
C22 C23 1.386(8) .
C22 H22A 0.9500 .
C23 C24 1.361(9) .
C23 H23A 0.9500 .
C24 C25 1.360(9) .
C24 H24A 0.9500 .
C25 C26 1.405(8) .
C25 H25A 0.9500 .
C26 H26A 0.9500 .
loop_
_geom_torsion_atom_site_label_1
_geom_torsion_atom_site_label_2
_geom_torsion_atom_site_label_3
_geom_torsion_atom_site_label_4
_geom_torsion
_geom_torsion_site_symmetry_1
_geom_torsion_site_symmetry_4
C2 N1 C1 C5 -169.8(4) . 3
Fe1 N1 C1 C5 25.4(7) . 3
C2 N1 C1 C8 5.8(5) . .
Fe1 N1 C1 C8 -159.0(3) . .
C1 N1 C2 C3 167.4(4) . .
Fe1 N1 C2 C3 -28.2(6) . .
C1 N1 C2 C9 -6.9(6) . .
Fe1 N1 C2 C9 157.5(3) . .
N1 C2 C3 C4 20.6(7) . .
C9 C2 C3 C4 -166.3(5) . .
N1 C2 C3 C15 -160.5(4) . .
C9 C2 C3 C15 12.6(8) . .
C4 N2 C4 C3 167.8(3) 3 .
Fe1 N2 C4 C3 -61.6(6) . .
C4 N2 C4 C10 -5.2(7) 3 .
Fe1 N2 C4 C10 125.4(4) . .
C2 C3 C4 N2 27.2(8) . .
C15 C3 C4 N2 -151.7(5) . .
C2 C3 C4 C10 -161.1(5) . .
C15 C3 C4 C10 20.0(8) . .
C6 N3 C6 C5 169.9(3) 3 .
Fe1 N3 C6 C5 -52.6(7) . .
C6 N3 C6 C7 -5.1(7) 3 .
Fe1 N3 C6 C7 132.3(4) . .
C1 C5 C6 N3 19.5(8) 3 .
C21 C5 C6 N3 -161.9(5) . .
C1 C5 C6 C7 -166.5(5) 3 .
C21 C5 C6 C7 12.1(8) . .
N3 C6 C7 C7 3.2(4) . 3
C5 C6 C7 C7 -171.4(4) . 3
N3 C6 C7 C11 -175.0(5) . .
C5 C6 C7 C11 10.4(8) . .
N1 C1 C8 C9 -2.5(6) . .
C5 C1 C8 C9 172.7(5) 3 .
N1 C1 C8 C12 171.5(5) . .
C5 C1 C8 C12 -13.3(9) 3 .
C1 C8 C9 C2 -1.7(6) . .
C12 C8 C9 C2 -175.8(5) . .
C1 C8 C9 C13 174.2(5) . .
C12 C8 C9 C13 0.1(9) . .
N1 C2 C9 C8 5.4(6) . .
C3 C2 C9 C8 -168.2(5) . .
N1 C2 C9 C13 -170.2(5) . .
C3 C2 C9 C13 16.1(9) . .
N2 C4 C10 C10 3.3(5) . 3
C3 C4 C10 C10 -169.2(4) . 3
N2 C4 C10 C14 -172.6(5) . .
C3 C4 C10 C14 15.0(9) . .
C4 C3 C15 C20 -129.0(5) . .
C2 C3 C15 C20 52.1(7) . .
C4 C3 C15 C16 49.2(6) . .
C2 C3 C15 C16 -129.7(5) . .
C20 C15 C16 C17 0.5(7) . .
C3 C15 C16 C17 -177.7(5) . .
C15 C16 C17 C18 0.5(8) . .
C16 C17 C18 C19 -0.5(9) . .
C17 C18 C19 C20 -0.6(9) . .
C16 C15 C20 C19 -1.6(8) . .
C3 C15 C20 C19 176.6(5) . .
C18 C19 C20 C15 1.7(9) . .
C6 C5 C21 C26 -120.2(6) . .
C1 C5 C21 C26 58.4(6) 3 .
C6 C5 C21 C22 60.3(7) . .
C1 C5 C21 C22 -121.0(5) 3 .
C26 C21 C22 C23 0.0(8) . .
C5 C21 C22 C23 179.5(5) . .
C21 C22 C23 C24 0.9(9) . .
C22 C23 C24 C25 -0.4(10) . .
C23 C24 C25 C26 -0.9(10) . .
C22 C21 C26 C25 -1.4(8) . .
C5 C21 C26 C25 179.2(5) . .
C24 C25 C26 C21 1.8(9) . .
