#------------------------------------------------------------------------------
#$Date: 2019-11-08 01:21:21 +0200 (Fri, 08 Nov 2019) $
#$Revision: 224481 $
#$URL: file:///home/coder/svn-repositories/cod/cif/7/70/08/7700863.cif $
#------------------------------------------------------------------------------
#
# This file is available in the Crystallography Open Database (COD),
# http://www.crystallography.net/
#
# All data on this site have been placed in the public domain by the
# contributors.
#
data_7700863
loop_
_publ_author_name
'Chen, Ching-Chin'
'Wu, Yi-Wen'
'Nakamura, Mikio'
'Cheng, Ru-Jen'
'Tseng, Tzu-Hsien'
'Chen, Peter P.-Y.'
_publ_section_title
;
 Assessment of the intramolecular magnetic interactions in the highly
 saddled iron(iii) porphyrin \p-radical cations: the change from planar to
 saddle conformations.
;
_journal_issue                   36
_journal_name_full
'Dalton transactions (Cambridge, England : 2003)'
_journal_page_first              13820
_journal_page_last               13833
_journal_paper_doi               10.1039/c9dt02714a
_journal_volume                  48
_journal_year                    2019
_chemical_formula_moiety         'C61 H62 Cl9 Fe N4 Sb'
_chemical_formula_sum            'C61 H62 Cl9 Fe N4 Sb'
_chemical_formula_weight         1347.79
_chemical_name_common            feoetppsbcl6
_space_group_crystal_system      monoclinic
_space_group_IT_number           14
_space_group_name_Hall           '-P 2yn'
_space_group_name_H-M_alt        'P 1 21/n 1'
_symmetry_space_group_name_Hall  '-P 2yn'
_symmetry_space_group_name_H-M   'P 1 21/n 1'
_atom_sites_solution_hydrogens   geom
_audit_creation_method           SHELXL-2014/7
_audit_update_record
;
2018-11-14 deposited with the CCDC.    2019-08-19 downloaded from the CCDC.
;
_cell_angle_alpha                90
_cell_angle_beta                 106.174(2)
_cell_angle_gamma                90
_cell_formula_units_Z            4
_cell_length_a                   17.4501(8)
_cell_length_b                   18.5354(10)
_cell_length_c                   21.6356(12)
_cell_measurement_reflns_used    9324
_cell_measurement_temperature    150(2)
_cell_measurement_theta_max      27.30
_cell_measurement_theta_min      2.95
_cell_volume                     6720.9(6)
_computing_cell_refinement       'Bruker SAINT'
_computing_data_collection       'Bruker APEX2'
_computing_data_reduction        'Bruker SAINT'
_computing_molecular_graphics    'Bruker SHELXTL'
_computing_publication_material  'Bruker SHELXTL'
_computing_structure_refinement  'SHELXL-2014 (Sheldrick 2014)'
_computing_structure_solution    'SHELXS-97 (Sheldrick 2008)'
_diffrn_ambient_temperature      150(2)
_diffrn_measured_fraction_theta_full 0.997
_diffrn_measured_fraction_theta_max 0.998
_diffrn_measurement_device_type  'Bruker APEX-II CCD'
_diffrn_measurement_method       '\f and \w scans'
_diffrn_radiation_type           MoK\a
_diffrn_radiation_wavelength     0.71076
_diffrn_reflns_av_R_equivalents  0.0427
_diffrn_reflns_av_unetI/netI     0.0149
_diffrn_reflns_Laue_measured_fraction_full 0.997
_diffrn_reflns_Laue_measured_fraction_max 0.998
_diffrn_reflns_limit_h_max       21
_diffrn_reflns_limit_h_min       -21
_diffrn_reflns_limit_k_max       22
_diffrn_reflns_limit_k_min       -22
_diffrn_reflns_limit_l_max       26
_diffrn_reflns_limit_l_min       -26
_diffrn_reflns_number            216615
_diffrn_reflns_point_group_measured_fraction_full 0.997
_diffrn_reflns_point_group_measured_fraction_max 0.998
_diffrn_reflns_theta_full        25.243
_diffrn_reflns_theta_max         25.999
_diffrn_reflns_theta_min         2.852
_exptl_absorpt_coefficient_mu    1.014
_exptl_crystal_colour            brown
_exptl_crystal_density_diffrn    1.332
_exptl_crystal_description       block
_exptl_crystal_F_000             2744
_exptl_crystal_size_max          0.21
_exptl_crystal_size_mid          0.18
_exptl_crystal_size_min          0.095
_refine_diff_density_max         4.181
_refine_diff_density_min         -1.790
_refine_diff_density_rms         0.163
_refine_ls_extinction_method     none
_refine_ls_goodness_of_fit_ref   1.075
_refine_ls_hydrogen_treatment    constr
_refine_ls_matrix_type           full
_refine_ls_number_parameters     637
_refine_ls_number_reflns         13176
_refine_ls_number_restraints     299
_refine_ls_restrained_S_all      1.128
_refine_ls_R_factor_all          0.0950
_refine_ls_R_factor_gt           0.0799
_refine_ls_shift/su_max          0.063
_refine_ls_shift/su_mean         0.001
_refine_ls_structure_factor_coef Fsqd
_refine_ls_weighting_details
'w=1/[\s^2^(Fo^2^)+(0.3000P)^2^] where P=(Fo^2^+2Fc^2^)/3'
_refine_ls_weighting_scheme      calc
_refine_ls_wR_factor_gt          0.2894
_refine_ls_wR_factor_ref         0.3407
_reflns_Friedel_coverage         0.000
_reflns_number_gt                10776
_reflns_number_total             13176
_reflns_threshold_expression     'I > 2\s(I)'
_cod_data_source_file            c9dt02714a2.cif
_cod_data_source_block           feoetppsbcl6
_cod_depositor_comments
'Adding full bibliography for 7700863--7700864.cif.'
_cod_database_code               7700863
_shelx_shelxl_version_number     2014/7
_shelx_space_group_comment
;
The symmetry employed for this shelxl refinement is uniquely defined
by the following loop, which should always be used as a source of
symmetry information in preference to the above space-group names.
They are only intended as comments.
;
_shelx_estimated_absorpt_t_min   0.6729
_shelx_estimated_absorpt_t_max   0.7455
_platon_squeeze_void_probe_radius 1.20
_shelx_res_file
;

    feoetppsbcl6.res created by SHELXL-2014/7


TITL feoetppsbcl6_a.res in P-1 New: P21/n
CELL 0.71076 17.4501 18.5354 21.6356 90 106.174 90
ZERR 4 0.0008 0.001 0.0012 0 0.002 0
LATT 1
SYMM 0.5-X,0.5+Y,0.5-Z
SFAC C H Cl Fe N Sb
UNIT 244 248 36 4 16 4

L.S. 20 0   43
PLAN 20
TEMP -123.15
BOND $H
fmap 2
ACTA
OMIT -1 52
ISOR 0.001 0.001 C22 C37 > C60
DELU 0.001 0.001 N1 C1
DELU 0.001 0.001 $C
REM <olex2.extras>
REM <HklSrc "%.\\feoetppsbcl6.hkl">
REM </olex2.extras>

ABIN
WGHT    0.300000
FVAR       0.20774
FE1   4    0.143229    0.267141    0.319967    11.00000    0.01778    0.01552 =
         0.02162   -0.00084    0.00286   -0.00056
SB1   6    0.698772    0.258861    0.398986    11.00000    0.04894    0.04267 =
         0.04058   -0.00465    0.01887   -0.01337
CL1   3    0.113035    0.269296    0.213462    11.00000    0.04693    0.02584 =
         0.02147   -0.00010    0.00238    0.00004
CL2   3    0.720205    0.280100    0.509760    11.00000    0.05788    0.15056 =
         0.03430    0.00031    0.00699   -0.02862
CL3   3    0.693925    0.384713    0.381371    11.00000    0.06918    0.03860 =
         0.07156   -0.01784    0.02033   -0.01455
CL4   3    0.838620    0.261271    0.413050    11.00000    0.05972    0.06779 =
         0.11023    0.00666    0.04793   -0.00461
CL5   3    0.703420    0.133361    0.414539    11.00000    0.09890    0.05201 =
         0.19211    0.03681    0.07344   -0.00338
CL6   3    0.558822    0.258222    0.383383    11.00000    0.04485    0.07117 =
         0.04872   -0.00033    0.00542   -0.01763
CL7   3    0.677025    0.243253    0.286959    11.00000    0.14314    0.08274 =
         0.05973   -0.04588    0.06012   -0.06881
CL8   3    0.546402    0.143576    0.539224    11.00000    0.09511    0.09231 =
         0.07722    0.02468   -0.00398    0.01235
CL9   3    0.423492    0.253693    0.500993    11.00000    0.07040    0.06487 =
         0.08616    0.00783    0.02730   -0.00257
N1    5    0.152901    0.160076    0.342035    11.00000    0.02351    0.01183 =
         0.02061   -0.00156    0.00305    0.00298
N2    5    0.264272    0.269164    0.345178    11.00000    0.01571    0.01460 =
         0.02312   -0.00008   -0.00359   -0.00008
N3    5    0.149116    0.372584    0.349863    11.00000    0.02084    0.01509 =
         0.02107   -0.00291    0.00168   -0.00063
N4    5    0.032463    0.264754    0.333442    11.00000    0.01862    0.01907 =
         0.03167   -0.00025    0.01000   -0.00002
C1    1    0.095457    0.119216    0.358143    11.00000    0.03166    0.01672 =
         0.03281   -0.00139    0.01472    0.00571
C2    1    0.221901    0.121863    0.362393    11.00000    0.02528    0.01483 =
         0.01566   -0.00123   -0.00090   -0.00214
C3    1    0.289915    0.141072    0.341485    11.00000    0.02984    0.02825 =
         0.01925    0.00021    0.00321   -0.00686
C4    1    0.301442    0.211905    0.323227    11.00000    0.01561    0.02644 =
         0.02030   -0.00367    0.00217   -0.00484
C5    1    0.300905    0.329618    0.332165    11.00000    0.01951    0.02514 =
         0.02613    0.00258    0.00363    0.00209
C6    1    0.289655    0.396603    0.361550    11.00000    0.02735    0.02484 =
         0.02297    0.00188    0.00219    0.00337
C7    1    0.219009    0.409450    0.378235    11.00000    0.02367    0.01562 =
         0.02350   -0.00070   -0.00086    0.00125
C8    1    0.090462    0.406960    0.368281    11.00000    0.02561    0.01512 =
         0.02340   -0.00061    0.00219    0.00056
C9    1    0.008046    0.392082    0.338125    11.00000    0.02460    0.02613 =
         0.02272   -0.00187    0.00325   -0.00082
C10   1   -0.016759    0.323864    0.313644    11.00000    0.01618    0.02583 =
         0.02246   -0.00089    0.00420   -0.00047
C11   1   -0.013216    0.205312    0.311027    11.00000    0.01247    0.03429 =
         0.03498   -0.00644    0.00566    0.00303
C12   1    0.013611    0.135379    0.332156    11.00000    0.03161    0.03697 =
         0.03240   -0.00116    0.00784    0.00776
C13   1    0.132159    0.057853    0.396330    11.00000    0.02683    0.00969 =
         0.05758    0.00411    0.00331   -0.00773
C14   1    0.211204    0.059496    0.399417    11.00000    0.03051    0.01788 =
         0.02164    0.00243    0.00636    0.00187
C15   1    0.355083    0.239793    0.289309    11.00000    0.01668    0.02474 =
         0.02495   -0.00017    0.00378   -0.00224
C16   1    0.354999    0.312882    0.294593    11.00000    0.02166    0.02467 =
         0.02488    0.00086    0.00445   -0.00240
C17   1    0.203032    0.463329    0.422047    11.00000    0.02782    0.01425 =
         0.02674   -0.00164    0.00259    0.00031
C18   1    0.122857    0.461741    0.415616    11.00000    0.02878    0.01888 =
         0.02145   -0.00265    0.00315   -0.00002
C19   1   -0.092322    0.300890    0.270267    11.00000    0.01450    0.03128 =
         0.02811   -0.00596    0.00367    0.00159
C20   1   -0.089875    0.227159    0.268088    11.00000    0.01132    0.03068 =
         0.03622   -0.00809    0.00417   -0.00133
C21   1    0.093788    0.008252    0.433882    11.00000    0.04622    0.03500 =
         0.06901    0.01809    0.02644   -0.00054
AFIX  23
H21A  2    0.038602   -0.002664    0.408107    11.00000   -1.20000
H21B  2    0.123810   -0.037714    0.442104    11.00000   -1.20000
AFIX   0
C22   1    0.091930    0.041020    0.496609    11.00000    0.08161    0.08214 =
         0.07396    0.00093    0.02939   -0.00406
AFIX  33
H22A  2    0.066599    0.007362    0.519817    11.00000   -1.50000
H22B  2    0.146561    0.051073    0.522545    11.00000   -1.50000
H22C  2    0.061413    0.086099    0.488571    11.00000   -1.50000
AFIX   0
C23   1    0.274970    0.010783    0.439755    11.00000    0.03479    0.02598 =
         0.03073    0.01116    0.00623    0.00483
AFIX  23
H23A  2    0.249683   -0.032460    0.452450    11.00000   -1.20000
H23B  2    0.310458   -0.005414    0.413881    11.00000   -1.20000
AFIX   0
C24   1    0.323447    0.048535    0.498847    11.00000    0.10914    0.05989 =
         0.04391    0.01019   -0.03897    0.00454
AFIX  33
H24A  2    0.364259    0.015579    0.523988    11.00000   -1.50000
H24B  2    0.349283    0.090893    0.486366    11.00000   -1.50000
H24C  2    0.288560    0.063869    0.524903    11.00000   -1.50000
AFIX   0
C25   1    0.394600    0.197920    0.246550    11.00000    0.03193    0.02936 =
         0.03471    0.00286    0.01743    0.00238
AFIX  23
H25A  2    0.426397    0.158007    0.271524    11.00000   -1.20000
H25B  2    0.431440    0.230118    0.232055    11.00000   -1.20000
AFIX   0
C26   1    0.332588    0.166836    0.187478    11.00000    0.06550    0.05141 =
         0.03297   -0.01339    0.02074   -0.01104
AFIX  33
H26A  2    0.359956    0.140092    0.160804    11.00000   -1.50000
H26B  2    0.296630    0.134280    0.201715    11.00000   -1.50000
H26C  2    0.301669    0.206331    0.162278    11.00000   -1.50000
AFIX   0
C27   1    0.394357    0.365156    0.259706    11.00000    0.04595    0.02577 =
         0.04166   -0.00118    0.02333   -0.00677
AFIX  23
H27A  2    0.445683    0.344744    0.256840    11.00000   -1.20000
H27B  2    0.405835    0.410800    0.284322    11.00000   -1.20000
AFIX   0
C28   1    0.340787    0.380778    0.191728    11.00000    0.07965    0.06490 =
         0.05818    0.04011    0.01974    0.00236
AFIX  33
H28A  2    0.367735    0.414843    0.170137    11.00000   -1.50000
H28B  2    0.330111    0.335740    0.167091    11.00000   -1.50000
H28C  2    0.290305    0.401726    0.194544    11.00000   -1.50000
AFIX   0
C29   1    0.263331    0.502575    0.475535    11.00000    0.02944    0.02107 =
         0.03057   -0.00704    0.00279   -0.00077
AFIX  23
H29A  2    0.236425    0.541421    0.492983    11.00000   -1.20000
H29B  2    0.304749    0.524860    0.458384    11.00000   -1.20000
AFIX   0
C30   1    0.301673    0.449869    0.528445    11.00000    0.02871    0.03365 =
         0.03261   -0.00163   -0.00195   -0.00109
AFIX  33
H30A  2    0.340643    0.475310    0.562996    11.00000   -1.50000
H30B  2    0.260533    0.428328    0.545577    11.00000   -1.50000
H30C  2    0.328695    0.411806    0.511060    11.00000   -1.50000
AFIX   0
C31   1    0.080412    0.500564    0.458236    11.00000    0.03350    0.02887 =
         0.02898   -0.00732    0.00772    0.00142
AFIX  23
H31A  2    0.109836    0.491290    0.503721    11.00000   -1.20000
H31B  2    0.026474    0.479467    0.450745    11.00000   -1.20000
AFIX   0
C32   1    0.071813    0.582269    0.448162    11.00000    0.04872    0.02990 =
         0.04333   -0.00654    0.01300    0.01154
AFIX  33
H32A  2    0.043806    0.602538    0.477640    11.00000   -1.50000
H32B  2    0.124845    0.604202    0.456751    11.00000   -1.50000
H32C  2    0.041285    0.592351    0.403649    11.00000   -1.50000
AFIX   0
C33   1   -0.158724    0.345892    0.230284    11.00000    0.02561    0.03782 =
         0.03201   -0.00204   -0.00509    0.00410
AFIX  23
H33A  2   -0.208375    0.316956    0.219265    11.00000   -1.20000
H33B  2   -0.167058    0.387723    0.256122    11.00000   -1.20000
AFIX   0
C34   1   -0.144069    0.372789    0.169738    11.00000    0.05918    0.15573 =
         0.08369    0.07855    0.01982    0.02048
AFIX  33
H34A  2   -0.189705    0.401789    0.145891    11.00000   -1.50000
H34B  2   -0.095749    0.402561    0.180181    11.00000   -1.50000
H34C  2   -0.137107    0.331723    0.143287    11.00000   -1.50000
AFIX   0
C35   1   -0.150283    0.180227    0.223393    11.00000    0.02264    0.04410 =
         0.06046   -0.02173   -0.00412   -0.00512
AFIX  23
H35A  2   -0.199414    0.208393    0.204409    11.00000   -1.20000
H35B  2   -0.164244    0.139401    0.247707    11.00000   -1.20000
AFIX   0
C36   1   -0.117879    0.151576    0.170366    11.00000    0.06759    0.10069 =
         0.06987   -0.05621   -0.00054    0.00787
AFIX  33
H36A  2   -0.158144    0.120968    0.141540    11.00000   -1.50000
H36B  2   -0.104787    0.192022    0.145955    11.00000   -1.50000
H36C  2   -0.069672    0.123140    0.189184    11.00000   -1.50000
AFIX  66
C37   1   -0.043847    0.074249    0.322912    11.00000    0.03903    0.04038 =
         0.04533    0.00103    0.00931    0.00127
C38   1   -0.032136    0.014633    0.287639    11.00000    0.04771    0.04311 =
         0.04927   -0.00318    0.00843    0.00136
AFIX  43
H38A  2    0.012789    0.012766    0.271004    11.00000   -1.20000
AFIX  65
C39   1   -0.086157   -0.042252    0.276706    11.00000    0.05338    0.04916 =
         0.05807   -0.00369    0.01012   -0.00325
AFIX  43
H39A  2   -0.078153   -0.082997    0.252599    11.00000   -1.20000
AFIX  65
C40   1   -0.151890   -0.039521    0.301046    11.00000    0.05736    0.05684 =
         0.06275    0.00039    0.01491   -0.00448
AFIX  43
H40A  2   -0.188811   -0.078400    0.293573    11.00000   -1.20000
AFIX  65
C41   1   -0.163602    0.020095    0.336318    11.00000    0.05177    0.05590 =
         0.06012    0.00291    0.01683   -0.00522
AFIX  43
H41A  2   -0.208528    0.021961    0.352953    11.00000   -1.20000
AFIX  65
C42   1   -0.109582    0.076980    0.347251    11.00000    0.04641    0.05188 =
         0.05390    0.00353    0.01746   -0.00134
AFIX  43
H42A  2   -0.117587    0.117725    0.371358    11.00000   -1.20000
AFIX  66
C43   1    0.347230    0.084332    0.337723    11.00000    0.03489    0.03204 =
         0.03199    0.00476    0.01216   -0.00133
C44   1    0.428015    0.090591    0.369391    11.00000    0.03667    0.04383 =
         0.04283    0.00488    0.00961    0.00046
AFIX  43
H44A  2    0.447726    0.133088    0.393039    11.00000   -1.20000
AFIX  65
C45   1    0.479961    0.034671    0.366457    11.00000    0.04572    0.05265 =
         0.05213    0.00390    0.01432    0.00715
AFIX  43
H45A  2    0.535174    0.038949    0.388101    11.00000   -1.20000
AFIX  65
C46   1    0.451122   -0.027508    0.331856    11.00000    0.05463    0.05359 =
         0.05734   -0.00021    0.01854    0.00789
AFIX  43
H46A  2    0.486625   -0.065726    0.329851    11.00000   -1.20000
AFIX  65
C47   1    0.370337   -0.033767    0.300188    11.00000    0.05510    0.04659 =
         0.05213   -0.00415    0.01789    0.00595
AFIX  43
H47A  2    0.350627   -0.076264    0.276540    11.00000   -1.20000
AFIX  65
C48   1    0.318390    0.022152    0.303121    11.00000    0.04593    0.03725 =
         0.04052   -0.00269    0.01327   -0.00055
AFIX  43
H48A  2    0.263177    0.017874    0.281478    11.00000   -1.20000
AFIX  66
C49   1    0.354062    0.451131    0.374196    11.00000    0.02948    0.02872 =
         0.02779   -0.00060    0.00817    0.00017
C50   1    0.337619    0.521986    0.353754    11.00000    0.03427    0.02964 =
         0.03247    0.00160    0.00709   -0.00091
AFIX  43
H50A  2    0.284667    0.535733    0.331522    11.00000   -1.20000
AFIX  65
C51   1    0.398653    0.572726    0.365838    11.00000    0.03895    0.03454 =
         0.04016    0.00192    0.00866   -0.00420
AFIX  43
H51A  2    0.387415    0.621152    0.351866    11.00000   -1.20000
AFIX  65
C52   1    0.476131    0.552612    0.398366    11.00000    0.03745    0.03766 =
         0.04083    0.00051    0.00861   -0.00553
AFIX  43
H52A  2    0.517845    0.587291    0.406625    11.00000   -1.20000
AFIX  65
C53   1    0.492575    0.481757    0.418809    11.00000    0.03385    0.03783 =
         0.03958    0.00014    0.00805   -0.00331
AFIX  43
H53A  2    0.545528    0.468010    0.441040    11.00000   -1.20000
AFIX  65
C54   1    0.431542    0.431016    0.406725    11.00000    0.02955    0.03142 =
         0.03349   -0.00044    0.00722    0.00065
AFIX  43
H54A  2    0.442781    0.382589    0.420697    11.00000   -1.20000
AFIX  66
C55   1   -0.047972    0.453988    0.330061    11.00000    0.02550    0.02675 =
         0.02521   -0.00153    0.00449   -0.00039
C56   1   -0.114367    0.452146    0.353613    11.00000    0.03045    0.03395 =
         0.03315   -0.00083    0.01030    0.00110
AFIX  43
H56A  2   -0.123985    0.411138    0.376716    11.00000   -1.20000
AFIX  65
C57   1   -0.166690    0.510304    0.343361    11.00000    0.03414    0.03746 =
         0.03936   -0.00136    0.01180    0.00414
AFIX  43
H57A  2   -0.212069    0.509045    0.359458    11.00000   -1.20000
AFIX  65
C58   1   -0.152619    0.570305    0.309558    11.00000    0.03640    0.03567 =
         0.03980   -0.00090    0.00867    0.00373
AFIX  43
H58A  2   -0.188379    0.610054    0.302551    11.00000   -1.20000
AFIX  65
C59   1   -0.086223    0.572148    0.286006    11.00000    0.03626    0.03293 =
         0.03862    0.00349    0.00795    0.00271
AFIX  43
H59A  2   -0.076606    0.613156    0.262902    11.00000   -1.20000
AFIX  65
C60   1   -0.033900    0.513990    0.296257    11.00000    0.03211    0.03071 =
         0.03300    0.00360    0.00717    0.00063
AFIX  43
H60A  2    0.011479    0.515250    0.280160    11.00000   -1.20000
AFIX   0
C61   1    0.525239    0.234896    0.538941    11.00000    0.07381    0.08370 =
         0.04184    0.00304    0.00336   -0.01754
AFIX  23
H61A  2    0.558765    0.261191    0.516276    11.00000   -1.20000
H61B  2    0.539036    0.252648    0.583853    11.00000   -1.20000

AFIX   0
HKLF 4

REM  feoetppsbcl6_a.res in P-1 New: P21/n
REM R1 =  0.0799 for   10776 Fo > 4sig(Fo)  and  0.0950 for all   13176 data
REM    637 parameters refined using    299 restraints

END

WGHT      0.1401     26.5198

REM Highest difference peak  4.181,  deepest hole -1.790,  1-sigma level  0.163
Q1    1   0.4117 -0.0303  0.3173  11.00000  0.05    1.97
Q2    1   0.4747  0.0001  0.3534  11.00000  0.05    1.85
Q3    1   0.1297  0.0175  0.5120  11.00000  0.05    1.78
Q4    1   0.1573  0.2675  0.3657  11.00000  0.05    1.70
Q5    1  -0.1564 -0.0328  0.3306  11.00000  0.05    1.48
Q6    1   0.4946  0.0608  0.3928  11.00000  0.05    1.45
Q7    1   0.7202  0.2310  0.5095  11.00000  0.05    1.44
Q8    1  -0.1539  0.0294  0.3667  11.00000  0.05    1.42
Q9    1  -0.1036  0.0814  0.3736  11.00000  0.05    1.41
Q10   1  -0.1484 -0.0423  0.2732  11.00000  0.05    1.36
Q11   1   0.3454  0.0206  0.3128  11.00000  0.05    1.34
Q12   1  -0.0394  0.0100  0.3108  11.00000  0.05    1.33
Q13   1  -0.0963 -0.0426  0.3045  11.00000  0.05    1.25
Q14   1  -0.0421  0.0732  0.3461  11.00000  0.05    1.25
Q15   1   0.4361  0.1083  0.3904  11.00000  0.05    1.23
Q16   1  -0.0805 -0.0379  0.2488  11.00000  0.05    1.18
Q17   1   0.0557  0.0589  0.4792  11.00000  0.05    1.12
Q18   1  -0.0500  0.0741  0.2996  11.00000  0.05    1.06
Q19   1  -0.1625  0.0109  0.3092  11.00000  0.05    1.01
Q20   1  -0.0317  0.0182  0.2613  11.00000  0.05    0.99
;
_shelx_res_checksum              11596
_shelx_fab_file
;
    4    0    0     14.28      0.00
    6    0    0      9.35      0.00
    8    0    0     -2.00      0.00
   10    0    0      6.62      0.00
   12    0    0     -5.54      0.00
   14    0    0     -0.90      0.00
   16    0    0      0.80      0.00
   18    0    0     -1.05      0.00
   20    0    0     -0.53      0.00
    3    1    0      5.66      0.00
    4    1    0     29.20      0.00
    5    1    0      1.92      0.00
    6    1    0     -1.33      0.00
    7    1    0      0.32      0.00
    8    1    0      7.48      0.00
    9    1    0      0.31      0.00
   10    1    0     -4.60      0.00
   11    1    0      0.04      0.00
   12    1    0     -0.40      0.00
   13    1    0      0.20      0.00
   14    1    0      1.89      0.00
   15    1    0     -0.25      0.00
   16    1    0     -2.07      0.00
   17    1    0     -0.49      0.00
   18    1    0     -0.36      0.00
   19    1    0      0.19      0.00
   20    1    0      0.98      0.00
    2    2    0     10.12      0.00
    3    2    0     12.99      0.00
    4    2    0    -12.45      0.00
    5    2    0      0.42      0.00
    6    2    0     -8.80      0.00
    7    2    0      2.20      0.00
    8    2    0      3.21      0.00
    9    2    0     -0.47      0.00
   10    2    0     -5.29      0.00
   11    2    0      1.45      0.00
   12    2    0      4.64      0.00
   13    2    0      0.49      0.00
   14    2    0      0.82      0.00
   15    2    0     -0.19      0.00
   16    2    0     -0.70      0.00
   17    2    0      0.28      0.00
   18    2    0      0.41      0.00
   19    2    0      0.44      0.00
   20    2    0      0.55      0.00
    1    3    0    -26.83      0.00
    2    3    0     42.08      0.00
    3    3    0    -15.95      0.00
    4    3    0    -16.37      0.00
    5    3    0     -7.25      0.00
    6    3    0      4.91      0.00
    7    3    0     -1.48      0.00
    8    3    0     -4.51      0.00
    9    3    0     -1.27      0.00
   10    3    0      4.04      0.00
   11    3    0      0.55      0.00
   12    3    0      2.55      0.00
   13    3    0     -0.83      0.00
   14    3    0     -1.66      0.00
   15    3    0      0.66      0.00
   16    3    0      1.64      0.00
   17    3    0      1.10      0.00
   18    3    0      0.49      0.00
   19    3    0     -0.81      0.00
   20    3    0     -1.87      0.00
    1    4    0    -11.98      0.00
    2    4    0    -10.15      0.00
    3    4    0    -10.78      0.00
    4    4    0      5.67      0.00
    5    4    0      1.07      0.00
    6    4    0      4.76      0.00
    7    4    0     -3.88      0.00
    8    4    0     -6.08      0.00
    9    4    0      1.73      0.00
   10    4    0      3.06      0.00
   11    4    0     -0.56      0.00
   12    4    0     -2.92      0.00
   13    4    0     -0.82      0.00
   14    4    0     -0.54      0.00
   15    4    0      0.60      0.00
   16    4    0      0.52      0.00
   17    4    0     -0.51      0.00
   18    4    0      0.54      0.00
   19    4    0     -0.34      0.00
   20    4    0     -0.69      0.00
    1    5    0     20.06      0.00
    2    5    0    -35.05      0.00
    3    5    0     20.84      0.00
    4    5    0      6.45      0.00
    5    5    0      9.54      0.00
    6    5    0    -11.10      0.00
    7    5    0      1.87      0.00
    8    5    0      1.71      0.00
    9    5    0      2.27      0.00
   10    5    0     -3.63      0.00
   11    5    0     -1.65      0.00
   12    5    0     -3.99      0.00
   13    5    0      1.46      0.00
   14    5    0      1.46      0.00
   15    5    0     -0.69      0.00
   16    5    0     -1.30      0.00
   17    5    0     -1.12      0.00
   18    5    0     -0.05      0.00
   19    5    0      1.12      0.00
   20    5    0      1.86      0.00
    1    6    0      4.34      0.00
    2    6    0     10.33      0.00
    3    6    0      3.63      0.00
    4    6    0      2.02      0.00
    5    6    0     -2.69      0.00
    6    6    0      1.03      0.00
    7    6    0      3.07      0.00
    8    6    0      7.42      0.00
    9    6    0     -4.53      0.00
   10    6    0     -1.87      0.00
   11    6    0     -1.72      0.00
   12    6    0      2.37      0.00
   13    6    0      0.88      0.00
   14    6    0      0.58      0.00
   15    6    0     -1.05      0.00
   16    6    0     -0.45      0.00
   17    6    0      0.81      0.00
   18    6    0     -0.74      0.00
   19    6    0      0.04      0.00
    1    7    0    -11.82      0.00
    2    7    0     21.95      0.00
    3    7    0    -16.55      0.00
    4    7    0     -2.37      0.00
    5    7    0     -4.60      0.00
    6    7    0     13.99      0.00
    7    7    0     -1.12      0.00
    8    7    0     -2.65      0.00
    9    7    0     -2.15      0.00
   10    7    0      2.31      0.00
   11    7    0      2.73      0.00
   12    7    0      3.12      0.00
   13    7    0     -1.02      0.00
   14    7    0     -1.43      0.00
   15    7    0      0.70      0.00
   16    7    0      1.22      0.00
   17    7    0      0.67      0.00
   18    7    0     -0.36      0.00
   19    7    0     -0.68      0.00
    0    8    0     16.18      0.00
    1    8    0     -0.23      0.00
    2    8    0    -10.79      0.00
    3    8    0      0.20      0.00
    4    8    0     -3.38      0.00
    5    8    0      3.70      0.00
    6    8    0     -2.93      0.00
    7    8    0     -1.75      0.00
    8    8    0     -5.31      0.00
    9    8    0      5.96      0.00
   10    8    0      1.60      0.00
   11    8    0      2.41      0.00
   12    8    0     -2.85      0.00
   13    8    0     -0.76      0.00
   14    8    0     -0.96      0.00
   15    8    0      1.51      0.00
   16    8    0      0.53      0.00
   17    8    0     -0.70      0.00
   18    8    0      0.22      0.00
   19    8    0      0.04      0.00
    1    9    0      7.33      0.00
    2    9    0    -13.66      0.00
    3    9    0      8.34      0.00
    4    9    0      0.03      0.00
    5    9    0     -0.39      0.00
    6    9    0     -9.70      0.00
    7    9    0      1.55      0.00
    8    9    0      4.31      0.00
    9    9    0      0.96      0.00
   10    9    0     -0.33      0.00
   11    9    0     -3.89      0.00
   12    9    0     -1.43      0.00
   13    9    0     -0.24      0.00
   14    9    0      1.74      0.00
   15    9    0     -0.94      0.00
   16    9    0     -0.50      0.00
   17    9    0     -0.27      0.00
   18    9    0      0.15      0.00
   19    9    0      0.22      0.00
    0   10    0     -9.62      0.00
    1   10    0     -0.95      0.00
    2   10    0      8.11      0.00
    3   10    0     -3.06      0.00
    4   10    0      1.24      0.00
    5   10    0     -3.58      0.00
    6   10    0      2.46      0.00
    7   10    0      1.99      0.00
    8   10    0      2.44      0.00
    9   10    0     -4.57      0.00
   10   10    0     -2.16      0.00
   11   10    0     -1.23      0.00
   12   10    0      2.51      0.00
   13   10    0      0.78      0.00
   14   10    0      0.82      0.00
   15   10    0     -1.47      0.00
   16   10    0     -0.72      0.00
   17   10    0      0.39      0.00
   18   10    0      0.32      0.00
    1   11    0     -4.46      0.00
    2   11    0      9.01      0.00
    3   11    0     -4.10      0.00
    4   11    0      0.12      0.00
    5   11    0      1.27      0.00
    6   11    0      3.69      0.00
    7   11    0     -1.74      0.00
    8   11    0     -2.98      0.00
    9   11    0     -0.15      0.00
   10   11    0     -0.53      0.00
   11   11    0      4.04      0.00
   12   11    0      0.36      0.00
   13   11    0      0.26      0.00
   14   11    0     -1.75      0.00
   15   11    0      0.80      0.00
   16   11    0     -0.43      0.00
   17   11    0      0.19      0.00
   18   11    0      0.11      0.00
    0   12    0      6.79      0.00
    1   12    0      0.85      0.00
    2   12    0     -4.15      0.00
    3   12    0      3.46      0.00
    4   12    0     -1.11      0.00
    5   12    0      1.75      0.00
    6   12    0     -1.78      0.00
    7   12    0     -1.52      0.00
    8   12    0     -0.91      0.00
    9   12    0      2.85      0.00
   10   12    0      2.80      0.00
   11   12    0     -0.06      0.00
   12   12    0     -1.77      0.00
   13   12    0     -1.01      0.00
   14   12    0     -0.12      0.00
   15   12    0      0.73      0.00
   16   12    0      0.65      0.00
   17   12    0     -0.60      0.00
    1   13    0      3.02      0.00
    2   13    0     -5.77      0.00
    3   13    0      3.57      0.00
    4   13    0      0.09      0.00
    5   13    0     -0.74      0.00
    6   13    0     -2.01      0.00
    7   13    0      1.02      0.00
    8   13    0      1.21      0.00
    9   13    0      0.38      0.00
   10   13    0      0.04      0.00
   11   13    0     -2.78      0.00
   12   13    0      0.28      0.00
   13   13    0      0.86      0.00
   14   13    0      0.77      0.00
   15   13    0     -0.18      0.00
   16   13    0      0.02      0.00
   17   13    0     -0.10      0.00
    0   14    0     -3.55      0.00
    1   14    0     -0.12      0.00
    2   14    0      3.12      0.00
    3   14    0     -2.16      0.00
    4   14    0      1.71      0.00
    5   14    0     -1.00      0.00
    6   14    0      0.47      0.00
    7   14    0     -0.07      0.00
    8   14    0      0.44      0.00
    9   14    0     -1.98      0.00
   10   14    0     -2.08      0.00
   11   14    0      0.91      0.00
   12   14    0      1.51      0.00
   13   14    0      1.00      0.00
   14   14    0     -0.38      0.00
   15   14    0     -0.21      0.00
   16   14    0     -0.19      0.00
    1   15    0     -0.95      0.00
    2   15    0      3.55      0.00
    3   15    0     -2.55      0.00
    4   15    0      0.08      0.00
    5   15    0      0.12      0.00
    6   15    0      2.76      0.00
    7   15    0     -1.65      0.00
    8   15    0     -0.56      0.00
    9   15    0     -0.53      0.00
   10   15    0      0.69      0.00
   11   15    0      1.35      0.00
   12   15    0     -0.74      0.00
   13   15    0     -1.15      0.00
   14   15    0      0.36      0.00
   15   15    0     -0.23      0.00
    0   16    0      1.16      0.00
    1   16    0     -0.38      0.00
    2   16    0     -2.77      0.00
    3   16    0      2.25      0.00
    4   16    0     -1.05      0.00
    5   16    0      1.80      0.00
    6   16    0     -0.26      0.00
    7   16    0      0.77      0.00
    8   16    0     -0.77      0.00
    9   16    0      1.80      0.00
   10   16    0      0.34      0.00
   11   16    0     -1.42      0.00
   12   16    0     -1.20      0.00
   13   16    0     -0.72      0.00
   14   16    0      0.41      0.00
    1   17    0     -0.73      0.00
    2   17    0     -1.21      0.00
    3   17    0      0.82      0.00
    4   17    0      1.21      0.00
    5   17    0     -0.17      0.00
    6   17    0     -2.33      0.00
    7   17    0      2.60      0.00
    8   17    0     -0.10      0.00
    9   17    0      0.03      0.00
   10   17    0     -0.46      0.00
   11   17    0     -0.44      0.00
   12   17    0      0.64      0.00
   13   17    0      0.27      0.00
    0   18    0     -0.69      0.00
    1   18    0      0.45      0.00
    2   18    0      1.34      0.00
    3   18    0     -2.32      0.00
    4   18    0     -0.28      0.00
    5   18    0     -1.01      0.00
    6   18    0      0.89      0.00
    7   18    0     -0.69      0.00
    8   18    0      1.15      0.00
    9   18    0     -1.80      0.00
   10   18    0      0.84      0.00
   11   18    0      1.41      0.00
   12   18    0      0.86      0.00
    1   19    0      0.10      0.00
    2   19    0     -0.23      0.00
    3   19    0      0.00      0.00
    4   19    0     -2.29      0.00
    5   19    0      0.70      0.00
    6   19    0      1.21      0.00
    7   19    0     -2.15      0.00
    8   19    0      0.12      0.00
    9   19    0      0.23      0.00
   10   19    0     -0.22      0.00
   11   19    0      0.22      0.00
    0   20    0      0.43      0.00
    1   20    0      0.11      0.00
    2   20    0     -0.80      0.00
    3   20    0      1.53      0.00
    4   20    0      1.14      0.00
    5   20    0     -0.83      0.00
    6   20    0     -0.45      0.00
    7   20    0      0.55      0.00
    8   20    0     -0.98      0.00
    9   20    0      1.02      0.00
   10   20    0     -0.83      0.00
    1   21    0      0.69      0.00
    2   21    0      0.48      0.00
    3   21    0     -0.26      0.00
    4   21    0      1.56      0.00
    5   21    0     -0.37      0.00
    6   21    0     -0.59      0.00
    7   21    0      1.25      0.00
    8   21    0      0.46      0.00
    0   22    0     -0.07      0.00
    1   22    0     -0.50      0.00
    2   22    0      0.85      0.00
    3   22    0     -0.91      0.00
    4   22    0     -0.93      0.00
    5   22    0      1.11      0.00
  -19    0    1      0.55      0.00
  -17    0    1      0.81      0.00
  -15    0    1     -1.46      0.00
  -13    0    1      3.59      0.00
  -11    0    1      0.89      0.00
   -9    0    1     -6.24      0.00
   -7    0    1      3.99      0.00
   -5    0    1    -15.12      0.00
   -3    0    1     21.11      0.00
    3    0    1     14.71      0.00
    5    0    1    -19.08      0.00
    7    0    1     -2.57      0.00
    9    0    1     -3.81      0.00
   11    0    1      3.66      0.00
   13    0    1      2.41      0.00
   15    0    1     -1.00      0.00
   17    0    1      1.42      0.00
   19    0    1      0.64      0.00
  -20    1    1     -0.76      0.00
  -19    1    1      0.02      0.00
  -18    1    1      0.50      0.00
  -17    1    1     -2.41      0.00
  -16    1    1     -0.07      0.00
  -15    1    1      1.37      0.00
  -14    1    1      0.08      0.00
  -13    1    1      1.82      0.00
  -12    1    1      0.16      0.00
  -11    1    1     -7.17      0.00
  -10    1    1      0.05      0.00
   -9    1    1      8.49      0.00
   -8    1    1      0.28      0.00
   -7    1    1      4.00      0.00
   -6    1    1      0.15      0.00
   -5    1    1      5.53      0.00
   -4    1    1     -2.31      0.00
   -3    1    1     23.40      0.00
    2    1    1     -8.95      0.00
    3    1    1    -34.99      0.00
    4    1    1     -3.82      0.00
    5    1    1     -3.77      0.00
    6    1    1     -1.21      0.00
    7    1    1      2.86      0.00
    8    1    1     -0.42      0.00
    9    1    1     -4.34      0.00
   10    1    1     -0.40      0.00
   11    1    1      4.91      0.00
   12    1    1     -0.30      0.00
   13    1    1     -1.54      0.00
   14    1    1      0.29      0.00
   15    1    1     -0.17      0.00
   16    1    1      0.34      0.00
   17    1    1      0.81      0.00
   18    1    1      0.45      0.00
   19    1    1      0.27      0.00
   20    1    1     -0.43      0.00
  -20    2    1     -0.11      0.00
  -19    2    1     -0.35      0.00
  -18    2    1      0.12      0.00
  -17    2    1     -0.37      0.00
  -16    2    1      0.36      0.00
  -15    2    1      1.25      0.00
  -14    2    1     -0.65      0.00
  -13    2    1     -2.82      0.00
  -12    2    1      2.40      0.00
  -11    2    1     -0.66      0.00
  -10    2    1     -0.03      0.00
   -9    2    1      4.71      0.00
   -8    2    1      2.01      0.00
   -7    2    1     -4.01      0.00
   -6    2    1      3.57      0.00
   -5    2    1     14.14      0.00
   -4    2    1      7.95      0.00
   -3    2    1    -16.40      0.00
   -2    2    1     25.59      0.00
    2    2    1    -11.30      0.00
    3    2    1    -15.03      0.00
    4    2    1     -0.91      0.00
    5    2    1     18.05      0.00
    6    2    1      1.98      0.00
    7    2    1      0.67      0.00
    8    2    1     -0.53      0.00
    9    2    1      2.37      0.00
   10    2    1      0.48      0.00
   11    2    1     -3.27      0.00
   12    2    1     -1.80      0.00
   13    2    1     -2.30      0.00
   14    2    1      0.85      0.00
   15    2    1      0.93      0.00
   16    2    1     -0.79      0.00
   17    2    1     -0.75      0.00
   18    2    1     -0.71      0.00
   19    2    1     -0.73      0.00
   20    2    1      1.01      0.00
  -20    3    1      1.84      0.00
  -19    3    1     -0.16      0.00
  -18    3    1     -0.78      0.00
  -17    3    1      1.55      0.00
  -16    3    1     -0.18      0.00
  -15    3    1     -0.75      0.00
  -14    3    1      0.28      0.00
  -13    3    1     -0.42      0.00
  -12    3    1     -0.54      0.00
  -11    3    1      7.10      0.00
  -10    3    1     -0.11      0.00
   -9    3    1     -6.48      0.00
   -8    3    1      0.51      0.00
   -7    3    1      0.99      0.00
   -6    3    1      0.74      0.00
   -5    3    1     -0.08      0.00
   -4    3    1      8.99      0.00
   -3    3    1     -7.64      0.00
   -2    3    1     16.85      0.00
   -1    3    1     35.22      0.00
    0    3    1     23.99      0.00
    1    3    1    -82.36      0.00
    2    3    1     19.51      0.00
    3    3    1     12.93      0.00
    4    3    1     12.76      0.00
    5    3    1      3.38      0.00
    6    3    1      3.79      0.00
    7    3    1     -6.18      0.00
    8    3    1      1.55      0.00
    9    3    1      3.95      0.00
   10    3    1      0.38      0.00
   11    3    1     -5.39      0.00
   12    3    1      0.47      0.00
   13    3    1      0.40      0.00
   14    3    1     -0.36      0.00
   15    3    1      0.40      0.00
   16    3    1     -1.03      0.00
   17    3    1     -0.88      0.00
   18    3    1     -0.56      0.00
   19    3    1      0.51      0.00
   20    3    1      0.91      0.00
  -20    4    1      0.38      0.00
  -19    4    1      0.17      0.00
  -18    4    1     -0.32      0.00
  -17    4    1     -0.35      0.00
  -16    4    1     -0.09      0.00
  -15    4    1     -1.05      0.00
  -14    4    1      0.51      0.00
  -13    4    1      1.73      0.00
  -12    4    1     -2.39      0.00
  -11    4    1     -0.10      0.00
  -10    4    1      1.69      0.00
   -9    4    1     -1.82      0.00
   -8    4    1     -3.31      0.00
   -7    4    1      6.21      0.00
   -6    4    1     -4.26      0.00
   -5    4    1    -10.13      0.00
   -4    4    1     -7.69      0.00
   -3    4    1      9.39      0.00
   -2    4    1    -27.51      0.00
   -1    4    1    -51.70      0.00
    0    4    1    -14.93      0.00
    1    4    1    -22.75      0.00
    2    4    1      6.03      0.00
    3    4    1     17.27      0.00
    4    4    1     -3.34      0.00
    5    4    1    -12.48      0.00
    6    4    1     -1.98      0.00
    7    4    1      4.98      0.00
    8    4    1      0.55      0.00
    9    4    1     -0.21      0.00
   10    4    1     -2.05      0.00
   11    4    1      2.29      0.00
   12    4    1      2.12      0.00
   13    4    1      2.00      0.00
   14    4    1     -1.24      0.00
   15    4    1     -0.91      0.00
   16    4    1      1.01      0.00
   17    4    1     -0.36      0.00
   18    4    1      0.96      0.00
   19    4    1      0.93      0.00
   20    4    1     -1.19      0.00
  -20    5    1     -1.52      0.00
  -19    5    1      0.55      0.00
  -18    5    1      0.09      0.00
  -17    5    1     -0.42      0.00
  -16    5    1      0.71      0.00
  -15    5    1     -0.27      0.00
  -14    5    1     -1.07      0.00
  -13    5    1     -0.64      0.00
  -12    5    1      0.77      0.00
  -11    5    1     -6.58      0.00
  -10    5    1     -0.03      0.00
   -9    5    1      3.92      0.00
   -8    5    1     -2.62      0.00
   -7    5    1     -7.48      0.00
   -6    5    1     -0.39      0.00
   -5    5    1     -5.44      0.00
   -4    5    1    -13.94      0.00
   -3    5    1     -2.91      0.00
   -2    5    1    -16.73      0.00
   -1    5    1    -28.71      0.00
    0    5    1    -14.19      0.00
    1    5    1     51.14      0.00
    2    5    1    -18.12      0.00
    3    5    1      1.42      0.00
    4    5    1    -17.56      0.00
    5    5    1     -0.86      0.00
    6    5    1     -3.31      0.00
    7    5    1      8.93      0.00
    8    5    1     -2.49      0.00
    9    5    1     -2.86      0.00
   10    5    1      0.75      0.00
   11    5    1      5.18      0.00
   12    5    1     -0.04      0.00
   13    5    1      0.13      0.00
   14    5    1     -0.39      0.00
   15    5    1     -0.31      0.00
   16    5    1      1.53      0.00
   17    5    1      0.56      0.00
   18    5    1     -0.20      0.00
   19    5    1     -0.98      0.00
  -20    6    1     -0.83      0.00
  -19    6    1     -0.11      0.00
  -18    6    1      0.72      0.00
  -17    6    1      0.40      0.00
  -16    6    1     -0.38      0.00
  -15    6    1      1.14      0.00
  -14    6    1     -0.08      0.00
  -13    6    1     -2.06      0.00
  -12    6    1      0.96      0.00
  -11    6    1      0.51      0.00
  -10    6    1     -4.75      0.00
   -9    6    1      0.26      0.00
   -8    6    1      1.75      0.00
   -7    6    1     -9.41      0.00
   -6    6    1      2.35      0.00
   -5    6    1      6.24      0.00
   -4    6    1      4.32      0.00
   -3    6    1     -8.20      0.00
   -2    6    1     16.16      0.00
   -1    6    1     21.11      0.00
    0    6    1     12.23      0.00
    1    6    1      8.70      0.00
    2    6    1      2.84      0.00
    3    6    1    -19.88      0.00
    4    6    1      6.21      0.00
    5    6    1      4.78      0.00
    6    6    1      1.59      0.00
    7    6    1     -9.69      0.00
    8    6    1      1.39      0.00
    9    6    1      0.00      0.00
   10    6    1      4.19      0.00
   11    6    1     -1.56      0.00
   12    6    1     -1.19      0.00
   13    6    1     -2.16      0.00
   14    6    1      1.03      0.00
   15    6    1      0.89      0.00
   16    6    1     -0.69      0.00
   17    6    1      0.74      0.00
   18    6    1     -1.07      0.00
   19    6    1     -0.73      0.00
  -19    7    1     -0.84      0.00
  -18    7    1      0.46      0.00
  -17    7    1      0.01      0.00
  -16    7    1     -0.79      0.00
  -15    7    1      0.73      0.00
  -14    7    1      0.91      0.00
  -13    7    1      0.62      0.00
  -12    7    1     -1.17      0.00
  -11    7    1      4.91      0.00
  -10    7    1     -0.39      0.00
   -9    7    1     -3.58      0.00
   -8    7    1      4.32      0.00
   -7    7    1      8.54      0.00
   -6    7    1     -2.50      0.00
   -5    7    1      8.79      0.00
   -4    7    1     10.77      0.00
   -3    7    1      4.54      0.00
   -2    7    1     13.05      0.00
   -1    7    1     19.28      0.00
    0    7    1      6.39      0.00
    1    7    1    -25.71      0.00
    2    7    1     11.23      0.00
    3    7    1     -1.69      0.00
    4    7    1     12.05      0.00
    5    7    1     -3.10      0.00
    6    7    1     -0.71      0.00
    7    7    1     -6.28      0.00
    8    7    1      2.54      0.00
    9    7    1      2.69      0.00
   10    7    1     -2.32      0.00
   11    7    1     -3.28      0.00
   12    7    1     -0.88      0.00
   13    7    1      0.59      0.00
   14    7    1      0.61      0.00
   15    7    1      0.01      0.00
   16    7    1     -1.50      0.00
   17    7    1     -0.44      0.00
   18    7    1      0.74      0.00
   19    7    1      0.66      0.00
  -19    8    1     -0.13      0.00
  -18    8    1     -0.63      0.00
  -17    8    1     -0.05      0.00
  -16    8    1      0.65      0.00
  -15    8    1     -0.94      0.00
  -14    8    1      0.39      0.00
  -13    8    1      2.96      0.00
  -12    8    1     -0.23      0.00
  -11    8    1     -0.12      0.00
  -10    8    1      6.14      0.00
   -9    8    1     -0.59      0.00
   -8    8    1      0.14      0.00
   -7    8    1      8.94      0.00
   -6    8    1     -0.74      0.00
   -5    8    1     -6.01      0.00
   -4    8    1     -0.37      0.00
   -3    8    1      8.45      0.00
   -2    8    1     -7.02      0.00
   -1    8    1     -8.81      0.00
    0    8    1     -8.06      0.00
    1    8    1     -3.06      0.00
    2    8    1     -4.45      0.00
    3    8    1     17.59      0.00
    4    8    1     -5.67      0.00
    5    8    1     -1.48      0.00
    6    8    1     -1.37      0.00
    7    8    1      8.34      0.00
    8    8    1     -2.58      0.00
    9    8    1     -0.89      0.00
   10    8    1     -4.54      0.00
   11    8    1      1.06      0.00
   12    8    1      0.82      0.00
   13    8    1      2.74      0.00
   14    8    1     -0.81      0.00
   15    8    1     -0.81      0.00
   16    8    1     -0.01      0.00
   17    8    1     -0.25      0.00
   18    8    1      1.09      0.00
   19    8    1      0.18      0.00
  -19    9    1      0.77      0.00
  -18    9    1     -0.45      0.00
  -17    9    1     -0.02      0.00
  -16    9    1      0.52      0.00
  -15    9    1      0.22      0.00
  -14    9    1      0.03      0.00
  -13    9    1     -0.01      0.00
  -12    9    1      2.14      0.00
  -11    9    1     -2.71      0.00
  -10    9    1      1.69      0.00
   -9    9    1      4.19      0.00
   -8    9    1     -4.83      0.00
   -7    9    1     -4.06      0.00
   -6    9    1      3.00      0.00
   -5    9    1     -8.45      0.00
   -4    9    1     -4.81      0.00
   -3    9    1     -4.25      0.00
   -2    9    1     -8.56      0.00
   -1    9    1    -13.42      0.00
    0    9    1     -4.38      0.00
    1    9    1     13.84      0.00
    2    9    1     -4.53      0.00
    3    9    1      0.38      0.00
    4    9    1     -3.66      0.00
    5    9    1      3.56      0.00
    6    9    1      2.22      0.00
    7    9    1      1.14      0.00
    8    9    1     -2.25      0.00
    9    9    1     -3.04      0.00
   10    9    1      3.69      0.00
   11    9    1      1.24      0.00
   12    9    1      1.97      0.00
   13    9    1     -1.48      0.00
   14    9    1      0.12      0.00
   15    9    1     -0.44      0.00
   16    9    1      1.24      0.00
   17    9    1      0.67      0.00
   18    9    1     -0.60      0.00
  -18   10    1      0.03      0.00
  -17   10    1      0.02      0.00
  -16   10    1     -0.41      0.00
  -15   10    1      0.41      0.00
  -14   10    1     -0.94      0.00
  -13   10    1     -2.49      0.00
  -12   10    1      0.61      0.00
  -11   10    1      0.16      0.00
  -10   10    1     -4.88      0.00
   -9   10    1      1.54      0.00
   -8   10    1     -0.10      0.00
   -7   10    1     -5.83      0.00
   -6   10    1      1.18      0.00
   -5   10    1      4.78      0.00
   -4   10    1     -3.60      0.00
   -3   10    1     -4.87      0.00
   -2   10    1      1.65      0.00
   -1   10    1      5.10      0.00
    0   10    1      5.22      0.00
    1   10    1      1.37      0.00
    2   10    1      3.59      0.00
    3   10    1    -11.04      0.00
    4   10    1      4.90      0.00
    5   10    1      0.62      0.00
    6   10    1      0.10      0.00
    7   10    1     -4.45      0.00
    8   10    1      1.41      0.00
    9   10    1      1.47      0.00
   10   10    1      3.09      0.00
   11   10    1     -0.01      0.00
   12   10    1     -1.63      0.00
   13   10    1     -2.41      0.00
   14   10    1      0.76      0.00
   15   10    1      0.86      0.00
   16   10    1      0.27      0.00
   17   10    1     -0.23      0.00
   18   10    1     -0.97      0.00
  -18   11    1      0.27      0.00
  -17   11    1     -0.21      0.00
  -16   11    1     -0.35      0.00
  -15   11    1     -1.30      0.00
  -14   11    1     -0.04      0.00
  -13   11    1     -0.68      0.00
  -12   11    1     -2.33      0.00
  -11   11    1      1.43      0.00
  -10   11    1     -2.20      0.00
   -9   11    1     -3.48      0.00
   -8   11    1      3.67      0.00
   -7   11    1      0.83      0.00
   -6   11    1     -1.25      0.00
   -5   11    1      4.82      0.00
   -4   11    1      2.37      0.00
   -3   11    1      2.82      0.00
   -2   11    1      6.10      0.00
   -1   11    1      9.77      0.00
    0   11    1      2.81      0.00
    1   11    1     -8.85      0.00
    2   11    1      1.47      0.00
    3   11    1     -0.40      0.00
    4   11    1      0.33      0.00
    5   11    1     -0.37      0.00
    6   11    1     -1.29      0.00
    7   11    1      0.19      0.00
    8   11    1      1.55      0.00
    9   11    1      2.47      0.00
   10   11    1     -3.58      0.00
   11   11    1     -0.77      0.00
   12   11    1     -1.87      0.00
   13   11    1      1.58      0.00
   14   11    1     -0.20      0.00
   15   11    1      0.90      0.00
   16   11    1     -0.93      0.00
   17   11    1     -0.71      0.00
  -17   12    1     -0.24      0.00
  -16   12    1     -0.29      0.00
  -15   12    1     -0.13      0.00
  -14   12    1      0.80      0.00
  -13   12    1      1.29      0.00
  -12   12    1     -1.27      0.00
  -11   12    1     -0.31      0.00
  -10   12    1      2.98      0.00
   -9   12    1     -2.23      0.00
   -8   12    1      0.26      0.00
   -7   12    1      2.96      0.00
   -6   12    1     -1.80      0.00
   -5   12    1     -1.44      0.00
   -4   12    1      3.62      0.00
   -3   12    1      1.68      0.00
   -2   12    1      0.18      0.00
   -1   12    1     -4.01      0.00
    0   12    1     -3.27      0.00
    1   12    1     -1.74      0.00
    2   12    1     -2.21      0.00
    3   12    1      6.33      0.00
    4   12    1     -3.26      0.00
    5   12    1      0.40      0.00
    6   12    1      0.92      0.00
    7   12    1      2.26      0.00
    8   12    1     -0.59      0.00
    9   12    1     -1.90      0.00
   10   12    1     -1.84      0.00
   11   12    1     -0.44      0.00
   12   12    1      2.38      0.00
   13   12    1      1.13      0.00
   14   12    1     -0.54      0.00
   15   12    1     -0.62      0.00
   16   12    1      0.30      0.00
   17   12    1      0.16      0.00
  -17   13    1      0.13      0.00
  -16   13    1      0.15      0.00
  -15   13    1      0.70      0.00
  -14   13    1     -0.80      0.00
  -13   13    1      1.08      0.00
  -12   13    1      1.20      0.00
  -11   13    1     -1.26      0.00
  -10   13    1      1.49      0.00
   -9   13    1      2.41      0.00
   -8   13    1     -2.29      0.00
   -7   13    1     -0.85      0.00
   -6   13    1      0.00      0.00
   -5   13    1     -2.47      0.00
   -4   13    1     -1.97      0.00
   -3   13    1     -1.82      0.00
   -2   13    1     -5.77      0.00
   -1   13    1     -6.39      0.00
    0   13    1     -1.59      0.00
    1   13    1      5.64      0.00
    2   13    1     -1.43      0.00
    3   13    1      0.66      0.00
    4   13    1     -0.42      0.00
    5   13    1     -0.58      0.00
    6   13    1      1.04      0.00
    7   13    1      1.30      0.00
    8   13    1     -1.01      0.00
    9   13    1     -1.55      0.00
   10   13    1      2.22      0.00
   11   13    1      0.96      0.00
   12   13    1      0.63      0.00
   13   13    1     -0.97      0.00
   14   13    1     -0.54      0.00
   15   13    1      0.02      0.00
   16   13    1      0.60      0.00
  -16   14    1      0.51      0.00
  -15   14    1      0.32      0.00
  -14   14    1     -0.31      0.00
  -13   14    1     -0.71      0.00
  -12   14    1      1.63      0.00
  -11   14    1     -0.49      0.00
  -10   14    1     -1.48      0.00
   -9   14    1      2.17      0.00
   -8   14    1     -0.94      0.00
   -7   14    1     -1.38      0.00
   -6   14    1      0.90      0.00
   -5   14    1      0.36      0.00
   -4   14    1     -2.08      0.00
   -3   14    1     -2.02      0.00
   -2   14    1     -0.02      0.00
   -1   14    1      1.63      0.00
    0   14    1      1.81      0.00
    1   14    1      0.94      0.00
    2   14    1      0.40      0.00
    3   14    1     -4.95      0.00
    4   14    1      2.24      0.00
    5   14    1      0.03      0.00
    6   14    1     -0.02      0.00
    7   14    1     -1.58      0.00
    8   14    1      0.99      0.00
    9   14    1      1.84      0.00
   10   14    1      0.89      0.00
   11   14    1     -0.32      0.00
   12   14    1     -2.12      0.00
   13   14    1     -0.08      0.00
   14   14    1      0.20      0.00
   15   14    1     -0.03      0.00
   16   14    1     -0.63      0.00
  -15   15    1      0.49      0.00
  -14   15    1      0.93      0.00
  -13   15    1     -0.92      0.00
  -12   15    1      0.02      0.00
  -11   15    1      1.09      0.00
  -10   15    1     -1.05      0.00
   -9   15    1     -1.13      0.00
   -8   15    1      2.31      0.00
   -7   15    1      1.45      0.00
   -6   15    1      1.20      0.00
   -5   15    1      2.00      0.00
   -4   15    1      1.40      0.00
   -3   15    1      1.51      0.00
   -2   15    1      3.92      0.00
   -1   15    1      3.53      0.00
    0   15    1     -0.22      0.00
    1   15    1     -3.38      0.00
    2   15    1      0.75      0.00
    3   15    1     -0.58      0.00
    4   15    1      0.32      0.00
    5   15    1     -0.81      0.00
    6   15    1     -0.28      0.00
    7   15    1     -1.87      0.00
    8   15    1      1.21      0.00
    9   15    1      0.53      0.00
   10   15    1     -1.39      0.00
   11   15    1     -0.45      0.00
   12   15    1      0.29      0.00
   13   15    1      0.18      0.00
   14   15    1      0.66      0.00
   15   15    1     -1.27      0.00
  -14   16    1     -0.08      0.00
  -13   16    1      0.59      0.00
  -12   16    1     -1.51      0.00
  -11   16    1      1.53      0.00
  -10   16    1      0.65      0.00
   -9   16    1     -1.14      0.00
   -8   16    1      1.20      0.00
   -7   16    1      1.48      0.00
   -6   16    1     -0.10      0.00
   -5   16    1     -0.69      0.00
   -4   16    1      2.56      0.00
   -3   16    1      2.44      0.00
   -2   16    1      0.32      0.00
   -1   16    1      0.23      0.00
    0   16    1     -0.97      0.00
    1   16    1      0.01      0.00
    2   16    1      0.18      0.00
    3   16    1      3.37      0.00
    4   16    1     -3.01      0.00
    5   16    1     -0.81      0.00
    6   16    1     -1.10      0.00
    7   16    1      1.94      0.00
    8   16    1     -1.68      0.00
    9   16    1     -0.83      0.00
   10   16    1      0.06      0.00
   11   16    1      0.78      0.00
   12   16    1      1.19      0.00
   13   16    1     -0.09      0.00
   14   16    1      0.11      0.00
  -14   17    1     -0.26      0.00
  -13   17    1      0.31      0.00
  -12   17    1     -0.32      0.00
  -11   17    1     -0.34      0.00
  -10   17    1      1.10      0.00
   -9   17    1     -0.16      0.00
   -8   17    1     -2.63      0.00
   -7   17    1     -1.47      0.00
   -6   17    1     -1.48      0.00
   -5   17    1     -0.71      0.00
   -4   17    1     -0.45      0.00
   -3   17    1      0.27      0.00
   -2   17    1     -1.67      0.00
   -1   17    1     -1.29      0.00
    0   17    1      1.52      0.00
    1   17    1      1.61      0.00
    2   17    1      0.35      0.00
    3   17    1     -0.93      0.00
    4   17    1      0.65      0.00
    5   17    1      0.74      0.00
    6   17    1     -0.72      0.00
    7   17    1      1.29      0.00
    8   17    1     -1.09      0.00
    9   17    1      0.21      0.00
   10   17    1      1.09      0.00
   11   17    1     -0.37      0.00
   12   17    1     -0.27      0.00
   13   17    1      0.34      0.00
  -12   18    1      0.99      0.00
  -11   18    1     -1.80      0.00
  -10   18    1     -0.29      0.00
   -9   18    1     -0.18      0.00
   -8   18    1     -1.33      0.00
   -7   18    1     -1.56      0.00
   -6   18    1      0.69      0.00
   -5   18    1      0.47      0.00
   -4   18    1     -2.46      0.00
   -3   18    1     -1.38      0.00
   -2   18    1     -0.64      0.00
   -1   18    1     -0.15      0.00
    0   18    1      0.77      0.00
    1   18    1     -0.02      0.00
    2   18    1      0.02      0.00
    3   18    1     -0.58      0.00
    4   18    1      2.36      0.00
    5   18    1      0.88      0.00
    6   18    1      0.78      0.00
    7   18    1     -2.18      0.00
    8   18    1      2.19      0.00
    9   18    1     -0.15      0.00
   10   18    1     -0.61      0.00
   11   18    1     -0.69      0.00
   12   18    1     -0.37      0.00
  -11   19    1      0.02      0.00
  -10   19    1     -0.94      0.00
   -9   19    1      0.11      0.00
   -8   19    1      2.21      0.00
   -7   19    1      1.10      0.00
   -6   19    1      0.62      0.00
   -5   19    1     -0.58      0.00
   -4   19    1     -0.57      0.00
   -3   19    1     -1.75      0.00
   -2   19    1      1.49      0.00
   -1   19    1      0.35      0.00
    0   19    1     -0.75      0.00
    1   19    1     -0.81      0.00
    2   19    1     -0.21      0.00
    3   19    1      2.08      0.00
    4   19    1     -1.07      0.00
    5   19    1     -0.08      0.00
    6   19    1      0.81      0.00
    7   19    1     -0.29      0.00
    8   19    1      0.42      0.00
    9   19    1      0.06      0.00
   10   19    1     -0.55      0.00
   11   19    1      0.35      0.00
  -10   20    1      0.02      0.00
   -9   20    1      0.85      0.00
   -8   20    1      0.85      0.00
   -7   20    1      0.66      0.00
   -6   20    1     -1.19      0.00
   -5   20    1     -0.60      0.00
   -4   20    1      0.93      0.00
   -3   20    1      0.74      0.00
   -2   20    1      0.91      0.00
   -1   20    1      0.05      0.00
    0   20    1     -1.01      0.00
    1   20    1      0.37      0.00
    2   20    1     -0.54      0.00
    3   20    1     -1.05      0.00
    4   20    1     -0.16      0.00
    5   20    1     -0.97      0.00
    6   20    1     -0.09      0.00
    7   20    1      1.35      0.00
    8   20    1     -1.60      0.00
    9   20    1      0.25      0.00
   -8   21    1     -1.39      0.00
   -7   21    1     -0.59      0.00
   -6   21    1     -0.32      0.00
   -5   21    1      0.66      0.00
   -4   21    1      0.99      0.00
   -3   21    1      1.45      0.00
   -2   21    1     -1.61      0.00
   -1   21    1     -0.44      0.00
    0   21    1     -0.05      0.00
    1   21    1      0.46      0.00
    2   21    1     -0.13      0.00
    3   21    1     -1.65      0.00
    4   21    1      0.38      0.00
    5   21    1      0.36      0.00
    6   21    1     -0.76      0.00
    7   21    1     -0.48      0.00
   -5   22    1      0.72      0.00
   -4   22    1     -0.05      0.00
   -3   22    1     -0.67      0.00
   -2   22    1     -1.03      0.00
   -1   22    1     -0.25      0.00
    0   22    1      0.95      0.00
    1   22    1     -0.57      0.00
    2   22    1      0.87      0.00
    3   22    1      0.72      0.00
    4   22    1     -0.78      0.00
    5   22    1      0.78      0.00
  -20    0    2     -0.99      0.00
  -18    0    2     -0.89      0.00
  -16    0    2      2.57      0.00
  -14    0    2     -2.17      0.00
  -12    0    2     -5.43      0.00
  -10    0    2      9.82      0.00
   -8    0    2     -7.78      0.00
   -6    0    2     -3.28      0.00
    2    0    2    -35.73      0.00
    4    0    2     16.62      0.00
    6    0    2     12.79      0.00
    8    0    2     -4.05      0.00
   10    0    2      0.97      0.00
   12    0    2     -3.58      0.00
   14    0    2     -0.48      0.00
   16    0    2     -0.28      0.00
   18    0    2     -0.37      0.00
   20    0    2     -0.67      0.00
  -21    1    2      0.71      0.00
  -20    1    2     -0.88      0.00
  -19    1    2      0.08      0.00
  -18    1    2      0.86      0.00
  -17    1    2      0.04      0.00
  -16    1    2      0.54      0.00
  -15    1    2     -0.14      0.00
  -14    1    2     -1.75      0.00
  -13    1    2     -0.07      0.00
  -12    1    2      1.21      0.00
  -11    1    2     -0.83      0.00
  -10    1    2      1.55      0.00
   -9    1    2     -0.31      0.00
   -8    1    2    -11.71      0.00
   -7    1    2     -1.83      0.00
   -6    1    2      2.72      0.00
   -5    1    2     -0.48      0.00
   -4    1    2    -24.15      0.00
   -3    1    2      2.03      0.00
    2    1    2     -9.79      0.00
    3    1    2      5.61      0.00
    4    1    2     19.69      0.00
    5    1    2      1.76      0.00
    6    1    2     -6.13      0.00
    7    1    2      0.55      0.00
    8    1    2      2.18      0.00
    9    1    2      0.44      0.00
   10    1    2     -2.97      0.00
   11    1    2      0.38      0.00
   12    1    2      0.18      0.00
   13    1    2      0.11      0.00
   14    1    2      1.28      0.00
   15    1    2     -0.60      0.00
   16    1    2     -0.60      0.00
   17    1    2     -0.35      0.00
   18    1    2     -0.35      0.00
   19    1    2      0.06      0.00
   20    1    2      2.10      0.00
  -20    2    2      0.76      0.00
  -19    2    2     -0.28      0.00
  -18    2    2      0.22      0.00
  -17    2    2      0.17      0.00
  -16    2    2     -2.01      0.00
  -15    2    2     -0.04      0.00
  -14    2    2      1.46      0.00
  -13    2    2     -0.71      0.00
  -12    2    2      3.99      0.00
  -11    2    2     -1.88      0.00
  -10    2    2     -8.11      0.00
   -9    2    2     -0.28      0.00
   -8    2    2      7.17      0.00
   -7    2    2     -4.79      0.00
   -6    2    2      2.43      0.00
   -5    2    2     -4.31      0.00
   -4    2    2     -5.41      0.00
   -3    2    2    -21.09      0.00
   -2    2    2    -10.51      0.00
    1    2    2     -0.88      0.00
    2    2    2     34.85      0.00
    3    2    2      4.64      0.00
    4    2    2    -13.28      0.00
    5    2    2     -7.24      0.00
    6    2    2    -12.16      0.00
    7    2    2     -0.57      0.00
    8    2    2      5.66      0.00
    9    2    2     -0.43      0.00
   10    2    2     -0.66      0.00
   11    2    2      0.89      0.00
   12    2    2      3.24      0.00
   13    2    2      0.19      0.00
   14    2    2      0.35      0.00
   15    2    2      0.45      0.00
   16    2    2      0.03      0.00
   17    2    2      0.96      0.00
   18    2    2      0.21      0.00
   19    2    2     -0.28      0.00
   20    2    2      0.34      0.00
  -20    3    2      1.07      0.00
  -19    3    2     -0.72      0.00
  -18    3    2     -0.16      0.00
  -17    3    2      0.12      0.00
  -16    3    2     -1.06      0.00
  -15    3    2      0.16      0.00
  -14    3    2      1.48      0.00
  -13    3    2     -0.09      0.00
  -12    3    2     -2.42      0.00
  -11    3    2      2.05      0.00
  -10    3    2     -1.81      0.00
   -9    3    2     -0.16      0.00
   -8    3    2      7.80      0.00
   -7    3    2      3.57      0.00
   -6    3    2     -8.03      0.00
   -5    3    2     -0.94      0.00
   -4    3    2     12.77      0.00
   -3    3    2     -6.23      0.00
   -2    3    2    -20.76      0.00
   -1    3    2     -7.20      0.00
    0    3    2     60.10      0.00
    1    3    2    -14.95      0.00
    2    3    2     24.37      0.00
    3    3    2    -14.74      0.00
    4    3    2    -16.20      0.00
    5    3    2     -6.45      0.00
    6    3    2      8.21      0.00
    7    3    2     -1.52      0.00
    8    3    2     -2.03      0.00
    9    3    2     -0.87      0.00
   10    3    2      2.43      0.00
   11    3    2     -0.03      0.00
   12    3    2      1.71      0.00
   13    3    2     -0.62      0.00
   14    3    2     -1.61      0.00
   15    3    2      1.53      0.00
   16    3    2      0.73      0.00
   17    3    2      0.56      0.00
   18    3    2      0.39      0.00
   19    3    2     -0.32      0.00
  -20    4    2     -0.34      0.00
  -19    4    2      0.45      0.00
  -18    4    2      0.61      0.00
  -17    4    2     -0.21      0.00
  -16    4    2      1.18      0.00
  -15    4    2      0.17      0.00
  -14    4    2     -0.32      0.00
  -13    4    2      1.26      0.00
  -12    4    2     -1.40      0.00
  -11    4    2      0.75      0.00
  -10    4    2      5.12      0.00
   -9    4    2      0.31      0.00
   -8    4    2     -7.11      0.00
   -7    4    2      6.46      0.00
   -6    4    2     -1.89      0.00
   -5    4    2      4.05      0.00
   -4    4    2      8.45      0.00
   -3    4    2     23.95      0.00
   -2    4    2      3.17      0.00
   -1    4    2     33.78      0.00
    0    4    2     47.49      0.00
    1    4    2      7.30      0.00
    2    4    2    -30.77      0.00
    3    4    2      1.67      0.00
    4    4    2      3.84      0.00
    5    4    2     10.56      0.00
    6    4    2      7.12      0.00
    7    4    2     -0.21      0.00
    8    4    2     -7.76      0.00
    9    4    2      1.54      0.00
   10    4    2      0.19      0.00
   11    4    2     -0.57      0.00
   12    4    2     -2.30      0.00
   13    4    2     -0.30      0.00
   14    4    2      0.09      0.00
   15    4    2     -0.41      0.00
   16    4    2      0.37      0.00
   17    4    2     -1.46      0.00
   18    4    2      0.07      0.00
   19    4    2      0.44      0.00
  -20    5    2     -0.90      0.00
  -19    5    2      1.52      0.00
  -18    5    2     -0.88      0.00
  -17    5    2     -0.38      0.00
  -16    5    2      1.78      0.00
  -15    5    2      0.08      0.00
  -14    5    2     -1.01      0.00
  -13    5    2      0.43      0.00
  -12    5    2      3.43      0.00
  -11    5    2     -2.08      0.00
  -10    5    2      2.07      0.00
   -9    5    2      2.28      0.00
   -8    5    2     -2.73      0.00
   -7    5    2     -3.39      0.00
   -6    5    2     14.32      0.00
   -5    5    2      2.30      0.00
   -4    5    2     -4.12      0.00
   -3    5    2      9.04      0.00
   -2    5    2     19.27      0.00
   -1    5    2      1.20      0.00
    0    5    2    -26.19      0.00
    1    5    2      6.26      0.00
    2    5    2    -27.12      0.00
    3    5    2     16.65      0.00
    4    5    2     14.24      0.00
    5    5    2      7.85      0.00
    6    5    2    -11.00      0.00
    7    5    2      1.09      0.00
    8    5    2      2.04      0.00
    9    5    2      0.44      0.00
   10    5    2     -1.90      0.00
   11    5    2     -1.27      0.00
   12    5    2     -2.76      0.00
   13    5    2      1.34      0.00
   14    5    2      1.90      0.00
   15    5    2     -1.61      0.00
   16    5    2     -0.75      0.00
   17    5    2     -0.08      0.00
   18    5    2     -0.33      0.00
   19    5    2      0.42      0.00
  -20    6    2     -0.29      0.00
  -19    6    2     -0.40      0.00
  -18    6    2     -0.25      0.00
  -17    6    2     -0.24      0.00
  -16    6    2     -0.96      0.00
  -15    6    2     -0.09      0.00
  -14    6    2      0.07      0.00
  -13    6    2     -1.47      0.00
  -12    6    2      0.64      0.00
  -11    6    2      2.04      0.00
  -10    6    2     -3.28      0.00
   -9    6    2      1.85      0.00
   -8    6    2      7.86      0.00
   -7    6    2     -4.78      0.00
   -6    6    2      1.17      0.00
   -5    6    2     -1.45      0.00
   -4    6    2     -7.24      0.00
   -3    6    2    -16.07      0.00
   -2    6    2      0.31      0.00
   -1    6    2    -23.01      0.00
    0    6    2    -23.42      0.00
    1    6    2    -11.18      0.00
    2    6    2     23.76      0.00
    3    6    2     -6.88      0.00
    4    6    2      4.95      0.00
    5    6    2     -9.10      0.00
    6    6    2      0.42      0.00
    7    6    2      0.01      0.00
    8    6    2      6.31      0.00
    9    6    2     -3.37      0.00
   10    6    2      0.07      0.00
   11    6    2     -0.68      0.00
   12    6    2      1.66      0.00
   13    6    2      0.49      0.00
   14    6    2     -0.24      0.00
   15    6    2     -0.02      0.00
   16    6    2     -0.37      0.00
   17    6    2      1.61      0.00
   18    6    2     -0.28      0.00
   19    6    2     -0.34      0.00
  -20    7    2      0.51      0.00
  -19    7    2     -1.37      0.00
  -18    7    2      1.15      0.00
  -17    7    2      0.18      0.00
  -16    7    2     -1.90      0.00
  -15    7    2     -0.05      0.00
  -14    7    2      0.55      0.00
  -13    7    2     -0.03      0.00
  -12    7    2     -3.34      0.00
  -11    7    2      1.89      0.00
  -10    7    2     -1.08      0.00
   -9    7    2     -4.16      0.00
   -8    7    2      1.70      0.00
   -7    7    2      2.77      0.00
   -6    7    2    -16.21      0.00
   -5    7    2      0.38      0.00
   -4    7    2      0.65      0.00
   -3    7    2     -8.31      0.00
   -2    7    2    -14.16      0.00
   -1    7    2     -0.37      0.00
    0    7    2      7.31      0.00
    1    7    2      1.09      0.00
    2    7    2     16.46      0.00
    3    7    2    -10.11      0.00
    4    7    2    -11.43      0.00
    5    7    2     -2.58      0.00
    6    7    2      9.87      0.00
    7    7    2      0.37      0.00
    8    7    2     -3.29      0.00
    9    7    2      0.43      0.00
   10    7    2      0.55      0.00
   11    7    2      2.75      0.00
   12    7    2      1.67      0.00
   13    7    2     -1.34      0.00
   14    7    2     -2.03      0.00
   15    7    2      1.26      0.00
   16    7    2      0.93      0.00
   17    7    2     -0.32      0.00
   18    7    2      0.34      0.00
   19    7    2     -0.46      0.00
  -19    8    2     -0.17      0.00
  -18    8    2     -0.50      0.00
  -17    8    2      0.65      0.00
  -16    8    2      0.84      0.00
  -15    8    2     -0.50      0.00
  -14    8    2     -0.40      0.00
  -13    8    2      0.98      0.00
  -12    8    2     -1.56      0.00
  -11    8    2     -3.19      0.00
  -10    8    2      2.53      0.00
   -9    8    2     -4.01      0.00
   -8    8    2     -6.72      0.00
   -7    8    2      3.66      0.00
   -6    8    2      0.90      0.00
   -5    8    2     -1.50      0.00
   -4    8    2      6.58      0.00
   -3    8    2      7.33      0.00
   -2    8    2     -1.51      0.00
   -1    8    2     12.76      0.00
    0    8    2     13.95      0.00
    1    8    2      8.88      0.00
    2    8    2    -16.62      0.00
    3    8    2      4.75      0.00
    4    8    2     -6.04      0.00
    5    8    2      5.93      0.00
    6    8    2     -2.66      0.00
    7    8    2      0.38      0.00
    8    8    2     -2.69      0.00
    9    8    2      3.65      0.00
   10    8    2      0.35      0.00
   11    8    2      0.88      0.00
   12    8    2     -1.83      0.00
   13    8    2     -0.78      0.00
   14    8    2     -0.07      0.00
   15    8    2      0.61      0.00
   16    8    2      0.13      0.00
   17    8    2     -1.31      0.00
   18    8    2      0.07      0.00
  -19    9    2      0.74      0.00
  -18    9    2     -0.70      0.00
  -17    9    2      0.32      0.00
  -16    9    2      0.67      0.00
  -15    9    2     -0.29      0.00
  -14    9    2     -0.57      0.00
  -13    9    2     -0.83      0.00
  -12    9    2      2.35      0.00
  -11    9    2     -2.60      0.00
  -10    9    2     -0.42      0.00
   -9    9    2      4.06      0.00
   -8    9    2     -3.57      0.00
   -7    9    2     -0.76      0.00
   -6    9    2     11.99      0.00
   -5    9    2     -2.29      0.00
   -4    9    2      0.98      0.00
   -3    9    2      5.80      0.00
   -2    9    2     10.76      0.00
   -1    9    2      2.24      0.00
    0    9    2     -1.68      0.00
    1    9    2     -3.03      0.00
    2    9    2     -8.27      0.00
    3    9    2      2.42      0.00
    4    9    2      7.01      0.00
    5    9    2     -1.72      0.00
    6    9    2     -4.18      0.00
    7    9    2     -0.13      0.00
    8    9    2      3.72      0.00
    9    9    2     -1.22      0.00
   10    9    2      0.80      0.00
   11    9    2     -3.83      0.00
   12    9    2     -0.18      0.00
   13    9    2      0.50      0.00
   14    9    2      2.16      0.00
   15    9    2     -1.21      0.00
   16    9    2     -0.97      0.00
   17    9    2      0.13      0.00
   18    9    2     -0.33      0.00
  -18   10    2      0.55      0.00
  -17   10    2     -0.67      0.00
  -16   10    2     -0.30      0.00
  -15   10    2      0.91      0.00
  -14   10    2      0.33      0.00
  -13   10    2     -0.32      0.00
  -12   10    2      1.81      0.00
  -11   10    2      2.42      0.00
  -10   10    2     -2.51      0.00
   -9   10    2      3.72      0.00
   -8   10    2      3.69      0.00
   -7   10    2     -4.19      0.00
   -6   10    2     -0.77      0.00
   -5   10    2      2.87      0.00
   -4   10    2     -6.88      0.00
   -3   10    2     -0.40      0.00
   -2   10    2      0.39      0.00
   -1   10    2     -7.21      0.00
    0   10    2     -9.94      0.00
    1   10    2     -5.51      0.00
    2   10    2     10.17      0.00
    3   10    2     -2.26      0.00
    4   10    2      3.54      0.00
    5   10    2     -2.97      0.00
    6   10    2      0.97      0.00
    7   10    2      0.67      0.00
    8   10    2      1.11      0.00
    9   10    2     -2.38      0.00
   10   10    2     -1.90      0.00
   11   10    2      0.39      0.00
   12   10    2      1.90      0.00
   13   10    2      1.06      0.00
   14   10    2      0.04      0.00
   15   10    2     -0.77      0.00
   16   10    2     -0.15      0.00
   17   10    2      0.99      0.00
   18   10    2      0.57      0.00
  -18   11    2      0.52      0.00
  -17   11    2     -0.51      0.00
  -16   11    2      0.72      0.00
  -15   11    2      0.40      0.00
  -14   11    2      0.92      0.00
  -13   11    2      0.59      0.00
  -12   11    2     -1.16      0.00
  -11   11    2      2.97      0.00
  -10   11    2      0.93      0.00
   -9   11    2     -2.52      0.00
   -8   11    2      3.67      0.00
   -7   11    2     -1.08      0.00
   -6   11    2     -6.06      0.00
   -5   11    2      1.50      0.00
   -4   11    2     -0.74      0.00
   -3   11    2     -5.31      0.00
   -2   11    2     -7.18      0.00
   -1   11    2     -2.83      0.00
    0   11    2      0.14      0.00
    1   11    2      2.91      0.00
    2   11    2      5.41      0.00
    3   11    2     -0.02      0.00
    4   11    2     -4.69      0.00
    5   11    2      1.75      0.00
    6   11    2      0.18      0.00
    7   11    2     -0.39      0.00
    8   11    2     -1.99      0.00
    9   11    2      1.19      0.00
   10   11    2     -0.46      0.00
   11   11    2      3.48      0.00
   12   11    2     -0.24      0.00
   13   11    2     -0.35      0.00
   14   11    2     -1.62      0.00
   15   11    2      1.05      0.00
   16   11    2      0.67      0.00
   17   11    2      0.30      0.00
  -17   12    2      0.72      0.00
  -16   12    2     -0.06      0.00
  -15   12    2     -0.65      0.00
  -14   12    2     -0.04      0.00
  -13   12    2      0.27      0.00
  -12   12    2     -1.58      0.00
  -11   12    2     -1.20      0.00
  -10   12    2      2.77      0.00
   -9   12    2     -2.45      0.00
   -8   12    2     -1.07      0.00
   -7   12    2      3.21      0.00
   -6   12    2     -0.73      0.00
   -5   12    2     -1.11      0.00
   -4   12    2      4.77      0.00
   -3   12    2     -1.49      0.00
   -2   12    2      1.01      0.00
   -1   12    2      4.65      0.00
    0   12    2      7.81      0.00
    1   12    2      2.50      0.00
    2   12    2     -5.79      0.00
    3   12    2      0.94      0.00
    4   12    2     -2.77      0.00
    5   12    2      0.67      0.00
    6   12    2     -0.03      0.00
    7   12    2     -1.20      0.00
    8   12    2     -1.14      0.00
    9   12    2      1.79      0.00
   10   12    2      2.82      0.00
   11   12    2     -1.46      0.00
   12   12    2     -1.52      0.00
   13   12    2     -1.06      0.00
   14   12    2      0.16      0.00
   15   12    2      0.32      0.00
   16   12    2      0.10      0.00
   17   12    2     -1.18      0.00
  -17   13    2      0.52      0.00
  -16   13    2     -0.50      0.00
  -15   13    2     -0.12      0.00
  -14   13    2     -0.86      0.00
  -13   13    2      0.58      0.00
  -12   13    2      0.47      0.00
  -11   13    2     -2.28      0.00
  -10   13    2     -0.43      0.00
   -9   13    2      1.35      0.00
   -8   13    2     -2.50      0.00
   -7   13    2      1.83      0.00
   -6   13    2      3.27      0.00
   -5   13    2     -0.63      0.00
   -4   13    2      0.85      0.00
   -3   13    2      5.69      0.00
   -2   13    2      4.16      0.00
   -1   13    2      3.34      0.00
    0   13    2      0.38      0.00
    1   13    2     -2.10      0.00
    2   13    2     -4.36      0.00
    3   13    2      1.00      0.00
    4   13    2      3.20      0.00
    5   13    2     -1.27      0.00
    6   13    2     -0.93      0.00
    7   13    2     -0.04      0.00
    8   13    2      0.69      0.00
    9   13    2     -0.47      0.00
   10   13    2     -0.67      0.00
   11   13    2     -2.09      0.00
   12   13    2      0.23      0.00
   13   13    2      0.86      0.00
   14   13    2      0.09      0.00
   15   13    2     -0.56      0.00
   16   13    2     -0.58      0.00
  -16   14    2     -0.10      0.00
  -15   14    2      0.25      0.00
  -14   14    2     -0.03      0.00
  -13   14    2     -0.45      0.00
  -12   14    2      1.83      0.00
  -11   14    2     -0.01      0.00
  -10   14    2     -2.31      0.00
   -9   14    2      1.56      0.00
   -8   14    2      0.22      0.00
   -7   14    2     -1.09      0.00
   -6   14    2      0.38      0.00
   -5   14    2     -0.38      0.00
   -4   14    2     -1.79      0.00
   -3   14    2      0.85      0.00
   -2   14    2      0.43      0.00
   -1   14    2     -3.36      0.00
    0   14    2     -4.59      0.00
    1   14    2     -0.05      0.00
    2   14    2      4.21      0.00
    3   14    2     -0.28      0.00
    4   14    2      2.26      0.00
    5   14    2     -0.75      0.00
    6   14    2      0.01      0.00
    7   14    2      0.21      0.00
    8   14    2      0.88      0.00
    9   14    2     -1.51      0.00
   10   14    2     -1.77      0.00
   11   14    2      1.50      0.00
   12   14    2      0.84      0.00
   13   14    2      0.77      0.00
   14   14    2      0.11      0.00
   15   14    2      0.03      0.00
  -15   15    2     -0.17      0.00
  -14   15    2      0.42      0.00
  -13   15    2     -1.07      0.00
  -12   15    2     -0.24      0.00
  -11   15    2      1.46      0.00
  -10   15    2     -0.69      0.00
   -9   15    2     -1.03      0.00
   -8   15    2      1.55      0.00
   -7   15    2     -2.60      0.00
   -6   15    2     -2.81      0.00
   -5   15    2     -0.23      0.00
   -4   15    2     -1.17      0.00
   -3   15    2     -4.17      0.00
   -2   15    2     -2.53      0.00
   -1   15    2     -2.23      0.00
    0   15    2     -0.19      0.00
    1   15    2      2.26      0.00
    2   15    2      3.27      0.00
    3   15    2     -0.96      0.00
    4   15    2     -1.51      0.00
    5   15    2      1.29      0.00
    6   15    2      2.51      0.00
    7   15    2     -0.30      0.00
    8   15    2     -0.33      0.00
    9   15    2      0.36      0.00
   10   15    2      1.01      0.00
   11   15    2      0.88      0.00
   12   15    2     -0.26      0.00
   13   15    2     -0.61      0.00
   14   15    2      1.13      0.00
   15   15    2      0.41      0.00
  -15   16    2      0.05      0.00
  -14   16    2     -0.09      0.00
  -13   16    2      0.35      0.00
  -12   16    2     -1.96      0.00
  -11   16    2      0.83      0.00
  -10   16    2      0.85      0.00
   -9   16    2     -1.44      0.00
   -8   16    2     -0.52      0.00
   -7   16    2      0.49      0.00
   -6   16    2     -0.10      0.00
   -5   16    2     -0.25      0.00
   -4   16    2      0.32      0.00
   -3   16    2     -1.56      0.00
   -2   16    2     -1.79      0.00
   -1   16    2      2.30      0.00
    0   16    2      1.66      0.00
    1   16    2     -0.75      0.00
    2   16    2     -2.70      0.00
    3   16    2      0.92      0.00
    4   16    2     -0.54      0.00
    5   16    2      2.06      0.00
    6   16    2     -0.73      0.00
    7   16    2      1.03      0.00
    8   16    2     -0.80      0.00
    9   16    2      0.94      0.00
   10   16    2      0.39      0.00
   11   16    2     -0.94      0.00
   12   16    2     -0.24      0.00
   13   16    2     -0.57      0.00
   14   16    2     -0.42      0.00
  -14   17    2     -0.16      0.00
  -13   17    2      0.44      0.00
  -12   17    2      0.16      0.00
  -11   17    2     -0.94      0.00
  -10   17    2      1.20      0.00
   -9   17    2      1.00      0.00
   -8   17    2     -0.52      0.00
   -7   17    2      2.50      0.00
   -6   17    2      2.01      0.00
   -5   17    2      0.48      0.00
   -4   17    2     -0.36      0.00
   -3   17    2      2.21      0.00
   -2   17    2      0.58      0.00
   -1   17    2      0.63      0.00
    0   17    2     -0.02      0.00
    1   17    2     -2.49      0.00
    2   17    2     -1.28      0.00
    3   17    2     -0.21      0.00
    4   17    2      1.11      0.00
    5   17    2     -1.26      0.00
    6   17    2     -1.82      0.00
    7   17    2      0.69      0.00
    8   17    2     -0.15      0.00
    9   17    2     -0.85      0.00
   10   17    2     -0.40      0.00
   11   17    2     -0.08      0.00
   12   17    2      0.12      0.00
   13   17    2     -0.41      0.00
  -13   18    2     -0.14      0.00
  -12   18    2      1.58      0.00
  -11   18    2     -0.89      0.00
  -10   18    2      0.68      0.00
   -9   18    2      1.53      0.00
   -8   18    2      0.53      0.00
   -7   18    2     -0.90      0.00
   -6   18    2      0.41      0.00
   -5   18    2      0.32      0.00
   -4   18    2      0.20      0.00
   -3   18    2      1.96      0.00
   -2   18    2      1.18      0.00
   -1   18    2     -1.77      0.00
    0   18    2     -0.53      0.00
    1   18    2      0.49      0.00
    2   18    2      0.45      0.00
    3   18    2     -0.99      0.00
    4   18    2     -1.57      0.00
    5   18    2     -1.56      0.00
    6   18    2      1.41      0.00
    7   18    2     -1.63      0.00
    8   18    2      0.73      0.00
    9   18    2     -0.53      0.00
   10   18    2      0.17      0.00
   11   18    2      0.35      0.00
   12   18    2      0.29      0.00
  -11   19    2      0.78      0.00
  -10   19    2     -0.56      0.00
   -9   19    2     -0.97      0.00
   -8   19    2     -0.01      0.00
   -7   19    2     -1.51      0.00
   -6   19    2     -0.82      0.00
   -5   19    2      0.34      0.00
   -4   19    2      1.58      0.00
   -3   19    2     -1.44      0.00
   -2   19    2      0.54      0.00
   -1   19    2     -0.91      0.00
    0   19    2      0.20      0.00
    1   19    2      1.64      0.00
    2   19    2     -0.25      0.00
    3   19    2      0.32      0.00
    4   19    2     -0.72      0.00
    5   19    2      0.69      0.00
    6   19    2      0.24      0.00
    7   19    2     -0.09      0.00
    8   19    2      0.05      0.00
    9   19    2      0.67      0.00
   10   19    2     -0.05      0.00
  -10   20    2     -1.06      0.00
   -9   20    2     -0.67      0.00
   -8   20    2     -0.39      0.00
   -7   20    2      0.94      0.00
   -6   20    2      0.34      0.00
   -5   20    2      0.43      0.00
   -4   20    2     -0.53      0.00
   -3   20    2     -1.49      0.00
   -2   20    2     -0.72      0.00
   -1   20    2      1.61      0.00
    0   20    2      0.08      0.00
    1   20    2      0.26      0.00
    2   20    2      0.41      0.00
    3   20    2      0.32      0.00
    4   20    2      2.46      0.00
    5   20    2      0.07      0.00
    6   20    2     -0.99      0.00
    7   20    2      1.29      0.00
    8   20    2     -0.06      0.00
    9   20    2      0.14      0.00
   -8   21    2      0.06      0.00
   -7   21    2      0.84      0.00
   -6   21    2      0.02      0.00
   -5   21    2     -0.54      0.00
   -4   21    2     -1.09      0.00
   -3   21    2      0.82      0.00
   -2   21    2     -0.10      0.00
   -1   21    2      1.30      0.00
    0   21    2     -0.11      0.00
    1   21    2     -0.90      0.00
    2   21    2      0.72      0.00
    3   21    2      0.42      0.00
    4   21    2     -0.32      0.00
    5   21    2      0.51      0.00
    6   21    2      0.37      0.00
    7   21    2     -0.33      0.00
   -5   22    2     -0.40      0.00
   -4   22    2      0.61      0.00
   -3   22    2      1.11      0.00
   -2   22    2      0.66      0.00
   -1   22    2     -1.20      0.00
    0   22    2     -0.11      0.00
    1   22    2     -0.63      0.00
    2   22    2      0.03      0.00
    3   22    2     -0.13      0.00
    4   22    2     -1.37      0.00
  -21    0    3      0.44      0.00
  -19    0    3      0.23      0.00
  -17    0    3     -1.08      0.00
  -15    0    3      0.61      0.00
  -13    0    3      3.31      0.00
  -11    0    3     -0.71      0.00
   -9    0    3     -1.51      0.00
   -7    0    3     17.52      0.00
   -5    0    3     -4.86      0.00
   -1    0    3    -65.73      0.00
    3    0    3      1.11      0.00
    5    0    3    -12.41      0.00
    7    0    3      0.70      0.00
    9    0    3      1.06      0.00
   11    0    3      2.59      0.00
   13    0    3      1.65      0.00
   15    0    3     -0.88      0.00
   17    0    3      0.11      0.00
   19    0    3      1.10      0.00
  -21    1    3      1.70      0.00
  -20    1    3     -0.48      0.00
  -19    1    3     -0.49      0.00
  -18    1    3     -0.05      0.00
  -17    1    3     -0.83      0.00
  -16    1    3     -0.05      0.00
  -15    1    3      2.25      0.00
  -14    1    3      0.11      0.00
  -13    1    3      1.23      0.00
  -12    1    3      1.01      0.00
  -11    1    3     -5.70      0.00
  -10    1    3      0.84      0.00
   -9    1    3     10.93      0.00
   -8    1    3      1.97      0.00
   -7    1    3      1.00      0.00
   -6    1    3      3.08      0.00
   -5    1    3     -4.59      0.00
   -4    1    3      0.17      0.00
   -3    1    3     16.33      0.00
   -2    1    3      2.66      0.00
    0    1    3     -2.97      0.00
    1    1    3     63.52      0.00
    2    1    3     -6.15      0.00
    3    1    3    -27.33      0.00
    4    1    3     -2.54      0.00
    5    1    3     -2.06      0.00
    6    1    3      0.12      0.00
    7    1    3      9.90      0.00
    8    1    3     -0.37      0.00
    9    1    3     -4.19      0.00
   10    1    3     -0.64      0.00
   11    1    3      1.63      0.00
   12    1    3     -0.33      0.00
   13    1    3     -0.54      0.00
   14    1    3      0.55      0.00
   15    1    3     -0.32      0.00
   16    1    3      0.13      0.00
   17    1    3     -0.37      0.00
   18    1    3      0.26      0.00
   19    1    3     -0.95      0.00
  -21    2    3     -0.06      0.00
  -20    2    3      0.15      0.00
  -19    2    3      0.13      0.00
  -18    2    3     -0.29      0.00
  -17    2    3      0.73      0.00
  -16    2    3      0.55      0.00
  -15    2    3     -0.13      0.00
  -14    2    3     -0.70      0.00
  -13    2    3     -2.11      0.00
  -12    2    3      2.28      0.00
  -11    2    3      0.76      0.00
  -10    2    3      0.05      0.00
   -9    2    3      1.22      0.00
   -8    2    3      2.67      0.00
   -7    2    3    -15.28      0.00
   -6    2    3      3.05      0.00
   -5    2    3      7.27      0.00
   -4    2    3      9.75      0.00
   -3    2    3    -17.45      0.00
   -2    2    3     28.59      0.00
    0    2    3     13.51      0.00
    2    2    3     -4.44      0.00
    3    2    3     -6.37      0.00
    4    2    3      7.24      0.00
    5    2    3     14.72      0.00
    6    2    3      5.35      0.00
    7    2    3     -3.20      0.00
    8    2    3     -0.61      0.00
    9    2    3     -1.16      0.00
   10    2    3      0.25      0.00
   11    2    3     -2.18      0.00
   12    2    3     -1.36      0.00
   13    2    3     -1.65      0.00
   14    2    3      0.20      0.00
   15    2    3      1.07      0.00
   16    2    3     -1.29      0.00
   17    2    3      0.09      0.00
   18    2    3     -0.22      0.00
   19    2    3     -0.90      0.00
  -21    3    3     -1.33      0.00
  -20    3    3      1.53      0.00
  -19    3    3     -0.09      0.00
  -18    3    3      0.21      0.00
  -17    3    3      0.62      0.00
  -16    3    3     -0.07      0.00
  -15    3    3     -1.29      0.00
  -14    3    3      0.01      0.00
  -13    3    3     -0.82      0.00
  -12    3    3     -2.18      0.00
  -11    3    3      5.25      0.00
  -10    3    3     -1.55      0.00
   -9    3    3     -8.08      0.00
   -8    3    3     -3.81      0.00
   -7    3    3      3.50      0.00
   -6    3    3     -5.96      0.00
   -5    3    3      9.61      0.00
   -4    3    3      0.81      0.00
   -3    3    3     -9.88      0.00
   -2    3    3     -8.15      0.00
   -1    3    3     -9.99      0.00
    0    3    3      0.06      0.00
    1    3    3    -55.84      0.00
    2    3    3     11.63      0.00
    3    3    3     15.41      0.00
    4    3    3      8.56      0.00
    5    3    3      3.57      0.00
    6    3    3      0.47      0.00
    7    3    3     -9.37      0.00
    8    3    3      0.75      0.00
    9    3    3      4.08      0.00
   10    3    3      0.59      0.00
   11    3    3     -2.48      0.00
   12    3    3      0.62      0.00
   13    3    3      0.06      0.00
   14    3    3     -1.17      0.00
   15    3    3      0.30      0.00
   16    3    3     -0.31      0.00
   17    3    3     -0.12      0.00
   18    3    3     -0.24      0.00
   19    3    3      1.53      0.00
  -20    4    3     -0.22      0.00
  -19    4    3     -0.39      0.00
  -18    4    3     -0.06      0.00
  -17    4    3     -0.09      0.00
  -16    4    3     -0.59      0.00
  -15    4    3     -1.02      0.00
  -14    4    3     -0.06      0.00
  -13    4    3      0.46      0.00
  -12    4    3     -1.95      0.00
  -11    4    3     -1.20      0.00
  -10    4    3      0.92      0.00
   -9    4    3     -0.33      0.00
   -8    4    3     -4.08      0.00
   -7    4    3     11.83      0.00
   -6    4    3     -2.00      0.00
   -5    4    3    -10.46      0.00
   -4    4    3    -10.39      0.00
   -3    4    3      7.70      0.00
   -2    4    3    -33.08      0.00
   -1    4    3    -26.10      0.00
    0    4    3    -18.23      0.00
    1    4    3     14.74      0.00
    2    4    3     -1.83      0.00
    3    4    3     16.65      0.00
    4    4    3    -12.97      0.00
    5    4    3    -14.69      0.00
    6    4    3     -5.99      0.00
    7    4    3      8.02      0.00
    8    4    3      0.84      0.00
    9    4    3      0.79      0.00
   10    4    3     -1.11      0.00
   11    4    3      1.10      0.00
   12    4    3      1.87      0.00
   13    4    3      1.36      0.00
   14    4    3     -0.44      0.00
   15    4    3     -1.37      0.00
   16    4    3      1.82      0.00
   17    4    3     -0.42      0.00
   18    4    3      0.23      0.00
   19    4    3      0.63      0.00
  -20    5    3     -2.05      0.00
  -19    5    3      0.92      0.00
  -18    5    3     -0.32      0.00
  -17    5    3     -0.52      0.00
  -16    5    3      0.31      0.00
  -15    5    3     -0.07      0.00
  -14    5    3     -0.20      0.00
  -13    5    3      0.15      0.00
  -12    5    3      1.92      0.00
  -11    5    3     -4.23      0.00
  -10    5    3      0.25      0.00
   -9    5    3      4.24      0.00
   -8    5    3      2.17      0.00
   -7    5    3     -8.97      0.00
   -6    5    3      6.18      0.00
   -5    5    3    -11.55      0.00
   -4    5    3     -1.88      0.00
   -3    5    3      5.90      0.00
   -2    5    3      8.87      0.00
   -1    5    3     -5.97      0.00
    0    5    3      9.85      0.00
    1    5    3     37.36      0.00
    2    5    3     -6.33      0.00
    3    5    3     -9.60      0.00
    4    5    3    -11.18      0.00
    5    5    3     -3.60      0.00
    6    5    3      0.15      0.00
    7    5    3      7.40      0.00
    8    5    3     -0.25      0.00
    9    5    3     -2.98      0.00
   10    5    3      0.47      0.00
   11    5    3      2.53      0.00
   12    5    3     -0.45      0.00
   13    5    3      0.04      0.00
   14    5    3      0.54      0.00
   15    5    3     -0.26      0.00
   16    5    3      0.31      0.00
   17    5    3      0.44      0.00
   18    5    3     -0.39      0.00
   19    5    3     -1.37      0.00
  -20    6    3     -0.07      0.00
  -19    6    3     -0.07      0.00
  -18    6    3      0.94      0.00
  -17    6    3     -0.25      0.00
  -16    6    3      0.46      0.00
  -15    6    3      1.98      0.00
  -14    6    3      1.04      0.00
  -13    6    3     -0.72      0.00
  -12    6    3      0.31      0.00
  -11    6    3      1.45      0.00
  -10    6    3     -3.45      0.00
   -9    6    3     -0.74      0.00
   -8    6    3      3.03      0.00
   -7    6    3     -9.39      0.00
   -6    6    3     -1.08      0.00
   -5    6    3     12.10      0.00
   -4    6    3      6.18      0.00
   -3    6    3     -0.91      0.00
   -2    6    3     21.94      0.00
   -1    6    3     13.17      0.00
    0    6    3     14.69      0.00
    1    6    3     -6.89      0.00
    2    6    3      6.20      0.00
    3    6    3    -20.92      0.00
    4    6    3     11.70      0.00
    5    6    3      8.68      0.00
    6    6    3      4.19      0.00
    7    6    3     -8.78      0.00
    8    6    3      0.28      0.00
    9    6    3      0.13      0.00
   10    6    3      2.28      0.00
   11    6    3     -0.19      0.00
   12    6    3     -1.49      0.00
   13    6    3     -1.15      0.00
   14    6    3      0.53      0.00
   15    6    3      1.21      0.00
   16    6    3     -1.56      0.00
   17    6    3      0.49      0.00
   18    6    3     -0.30      0.00
   19    6    3     -0.28      0.00
  -20    7    3      1.61      0.00
  -19    7    3     -1.24      0.00
  -18    7    3      0.39      0.00
  -17    7    3      0.71      0.00
  -16    7    3     -0.24      0.00
  -15    7    3      0.76      0.00
  -14    7    3     -0.30      0.00
  -13    7    3      0.48      0.00
  -12    7    3     -1.53      0.00
  -11    7    3      2.85      0.00
  -10    7    3      1.41      0.00
   -9    7    3     -3.20      0.00
   -8    7    3      0.86      0.00
   -7    7    3      9.59      0.00
   -6    7    3     -7.04      0.00
   -5    7    3      9.50      0.00
   -4    7    3      0.92      0.00
   -3    7    3     -3.63      0.00
   -2    7    3     -3.56      0.00
   -1    7    3      9.06      0.00
    0    7    3    -11.77      0.00
    1    7    3    -18.64      0.00
    2    7    3     -1.22      0.00
    3    7    3      9.77      0.00
    4    7    3      6.34      0.00
    5    7    3      2.15      0.00
    6    7    3     -2.84      0.00
    7    7    3     -3.05      0.00
    8    7    3     -0.13      0.00
    9    7    3      2.47      0.00
   10    7    3     -1.90      0.00
   11    7    3     -1.16      0.00
   12    7    3     -0.14      0.00
   13    7    3      0.86      0.00
   14    7    3      0.27      0.00
   15    7    3      0.03      0.00
   16    7    3     -0.39      0.00
   17    7    3     -0.65      0.00
   18    7    3      1.00      0.00
  -19    8    3      0.35      0.00
  -18    8    3     -1.12      0.00
  -17    8    3      0.27      0.00
  -16    8    3     -0.50      0.00
  -15    8    3     -1.92      0.00
  -14    8    3     -0.52      0.00
  -13    8    3      1.59      0.00
  -12    8    3      0.52      0.00
  -11    8    3     -0.86      0.00
  -10    8    3      5.21      0.00
   -9    8    3      0.89      0.00
   -8    8    3     -2.09      0.00
   -7    8    3      6.69      0.00
   -6    8    3      2.13      0.00
   -5    8    3    -13.30      0.00
   -4    8    3     -0.86      0.00
   -3    8    3     -1.81      0.00
   -2    8    3    -11.12      0.00
   -1    8    3     -9.00      0.00
    0    8    3     -9.66      0.00
    1    8    3      0.80      0.00
    2    8    3     -2.69      0.00
    3    8    3     15.96      0.00
    4    8    3     -5.84      0.00
    5    8    3     -4.30      0.00
    6    8    3     -2.56      0.00
    7    8    3      4.38      0.00
    8    8    3     -0.72      0.00
    9    8    3     -0.67      0.00
   10    8    3     -2.23      0.00
   11    8    3     -0.31      0.00
   12    8    3      1.36      0.00
   13    8    3      1.43      0.00
   14    8    3     -0.50      0.00
   15    8    3     -0.74      0.00
   16    8    3      0.73      0.00
   17    8    3     -0.02      0.00
   18    8    3      0.50      0.00
  -19    9    3      1.10      0.00
  -18    9    3     -0.63      0.00
  -17    9    3     -0.50      0.00
  -16    9    3      0.07      0.00
  -15    9    3     -0.23      0.00
  -14    9    3      0.83      0.00
  -13    9    3     -0.33      0.00
  -12    9    3      1.92      0.00
  -11    9    3     -1.85      0.00
  -10    9    3     -1.26      0.00
   -9    9    3      4.19      0.00
   -8    9    3     -3.07      0.00
   -7    9    3     -5.13      0.00
   -6    9    3      6.03      0.00
   -5    9    3     -6.49      0.00
   -4    9    3     -0.75      0.00
   -3    9    3      1.71      0.00
   -2    9    3     -1.00      0.00
   -1    9    3     -7.09      0.00
    0    9    3      7.80      0.00
    1    9    3      9.41      0.00
    2    9    3      4.51      0.00
    3    9    3     -7.15      0.00
    4    9    3     -1.16      0.00
    5    9    3     -2.62      0.00
    6    9    3      2.86      0.00
    7    9    3     -0.37      0.00
    8    9    3     -0.13      0.00
    9    9    3     -2.59      0.00
   10    9    3      3.03      0.00
   11    9    3      0.39      0.00
   12    9    3      0.68      0.00
   13    9    3     -2.04      0.00
   14    9    3     -0.08      0.00
   15    9    3      0.13      0.00
   16    9    3      0.67      0.00
   17    9    3      0.75      0.00
   18    9    3     -1.26      0.00
  -19   10    3     -0.11      0.00
  -18   10    3      0.42      0.00
  -17   10    3     -0.28      0.00
  -16   10    3      0.68      0.00
  -15   10    3      0.92      0.00
  -14   10    3     -0.63      0.00
  -13   10    3     -1.20      0.00
  -12   10    3     -0.53      0.00
  -11   10    3      0.37      0.00
  -10   10    3     -4.59      0.00
   -9   10    3      0.23      0.00
   -8   10    3      2.32      0.00
   -7   10    3     -4.41      0.00
   -6   10    3     -0.27      0.00
   -5   10    3     10.88      0.00
   -4   10    3     -3.23      0.00
   -3   10    3      3.71      0.00
   -2   10    3      4.84      0.00
   -1   10    3      7.52      0.00
    0   10    3      6.53      0.00
    1   10    3      1.46      0.00
    2   10    3     -0.65      0.00
    3   10    3     -9.19      0.00
    4   10    3      1.74      0.00
    5   10    3      3.03      0.00
    6   10    3      0.65      0.00
    7   10    3     -1.15      0.00
    8   10    3     -0.10      0.00
    9   10    3      1.13      0.00
   10   10    3      1.03      0.00
   11   10    3      0.54      0.00
   12   10    3     -1.93      0.00
   13   10    3     -1.36      0.00
   14   10    3      0.37      0.00
   15   10    3      0.58      0.00
   16   10    3     -0.19      0.00
   17   10    3     -0.60      0.00
  -18   11    3      0.90      0.00
  -17   11    3     -0.12      0.00
  -16   11    3     -0.25      0.00
  -15   11    3     -0.52      0.00
  -14   11    3     -0.32      0.00
  -13   11    3     -0.53      0.00
  -12   11    3     -1.88      0.00
  -11   11    3      1.47      0.00
  -10   11    3      0.06      0.00
   -9   11    3     -4.21      0.00
   -8   11    3      3.14      0.00
   -7   11    3      1.08      0.00
   -6   11    3     -3.31      0.00
   -5   11    3      3.83      0.00
   -4   11    3      2.06      0.00
   -3   11    3     -2.23      0.00
   -2   11    3      3.46      0.00
   -1   11    3      5.29      0.00
    0   11    3     -4.54      0.00
    1   11    3     -6.33      0.00
    2   11    3     -3.27      0.00
    3   11    3      3.72      0.00
    4   11    3      0.41      0.00
    5   11    3      4.04      0.00
    6   11    3     -1.03      0.00
    7   11    3      0.04      0.00
    8   11    3      0.21      0.00
    9   11    3      1.87      0.00
   10   11    3     -2.86      0.00
   11   11    3     -1.09      0.00
   12   11    3     -0.30      0.00
   13   11    3      1.95      0.00
   14   11    3     -0.26      0.00
   15   11    3     -0.20      0.00
   16   11    3     -0.76      0.00
   17   11    3     -0.62      0.00
  -18   12    3      0.02      0.00
  -17   12    3      0.22      0.00
  -16   12    3     -0.77      0.00
  -15   12    3     -0.03      0.00
  -14   12    3      0.94      0.00
  -13   12    3      0.65      0.00
  -12   12    3      0.06      0.00
  -11   12    3     -0.32      0.00
  -10   12    3      2.83      0.00
   -9   12    3     -1.53      0.00
   -8   12    3     -1.44      0.00
   -7   12    3      2.70      0.00
   -6   12    3     -1.97      0.00
   -5   12    3     -5.54      0.00
   -4   12    3      2.59      0.00
   -3   12    3     -3.93      0.00
   -2   12    3     -3.18      0.00
   -1   12    3     -6.33      0.00
    0   12    3     -3.95      0.00
    1   12    3     -2.02      0.00
    2   12    3      2.10      0.00
    3   12    3      6.30      0.00
    4   12    3     -0.05      0.00
    5   12    3     -1.80      0.00
    6   12    3      0.75      0.00
    7   12    3      1.15      0.00
    8   12    3      0.02      0.00
    9   12    3     -1.74      0.00
   10   12    3     -0.29      0.00
   11   12    3      0.02      0.00
   12   12    3      2.17      0.00
   13   12    3      0.66      0.00
   14   12    3     -0.18      0.00
   15   12    3     -0.24      0.00
   16   12    3      0.45      0.00
  -17   13    3      0.11      0.00
  -16   13    3      0.37      0.00
  -15   13    3      0.48      0.00
  -14   13    3     -0.51      0.00
  -13   13    3      0.83      0.00
  -12   13    3      1.01      0.00
  -11   13    3     -1.53      0.00
  -10   13    3      0.70      0.00
   -9   13    3      3.38      0.00
   -8   13    3     -2.35      0.00
   -7   13    3     -0.08      0.00
   -6   13    3      0.99      0.00
   -5   13    3     -2.88      0.00
   -4   13    3     -2.21      0.00
   -3   13    3      1.89      0.00
   -2   13    3     -5.28      0.00
   -1   13    3     -3.74      0.00
    0   13    3      2.47      0.00
    1   13    3      5.05      0.00
    2   13    3      0.84      0.00
    3   13    3     -1.74      0.00
    4   13    3     -0.78      0.00
    5   13    3     -2.54      0.00
    6   13    3      0.77      0.00
    7   13    3      1.26      0.00
    8   13    3     -0.18      0.00
    9   13    3     -0.72      0.00
   10   13    3      1.83      0.00
   11   13    3      1.43      0.00
   12   13    3     -0.23      0.00
   13   13    3     -0.55      0.00
   14   13    3      0.01      0.00
   15   13    3      0.44      0.00
   16   13    3      0.56      0.00
  -16   14    3      0.61      0.00
  -15   14    3     -0.09      0.00
  -14   14    3     -0.76      0.00
  -13   14    3     -0.83      0.00
  -12   14    3      0.71      0.00
  -11   14    3     -0.03      0.00
  -10   14    3     -1.36      0.00
   -9   14    3      1.81      0.00
   -8   14    3      0.10      0.00
   -7   14    3     -1.57      0.00
   -6   14    3      2.24      0.00
   -5   14    3      2.55      0.00
   -4   14    3     -0.66      0.00
   -3   14    3      1.50      0.00
   -2   14    3      3.05      0.00
   -1   14    3      2.93      0.00
    0   14    3      2.05      0.00
    1   14    3      1.08      0.00
    2   14    3     -2.93      0.00
    3   14    3     -5.25      0.00
    4   14    3      0.38      0.00
    5   14    3      0.96      0.00
    6   14    3     -0.25      0.00
    7   14    3     -1.62      0.00
    8   14    3      0.60      0.00
    9   14    3      1.50      0.00
   10   14    3     -0.09      0.00
   11   14    3     -0.66      0.00
   12   14    3     -1.41      0.00
   13   14    3     -0.19      0.00
   14   14    3     -0.03      0.00
   15   14    3     -0.55      0.00
  -16   15    3     -0.02      0.00
  -15   15    3     -0.18      0.00
  -14   15    3      0.54      0.00
  -13   15    3     -0.26      0.00
  -12   15    3     -0.11      0.00
  -11   15    3      1.77      0.00
  -10   15    3     -0.98      0.00
   -9   15    3     -2.07      0.00
   -8   15    3      2.14      0.00
   -7   15    3      0.52      0.00
   -6   15    3      0.92      0.00
   -5   15    3      2.46      0.00
   -4   15    3      1.41      0.00
   -3   15    3     -0.34      0.00
   -2   15    3      4.44      0.00
   -1   15    3      2.31      0.00
    0   15    3     -2.26      0.00
    1   15    3     -3.91      0.00
    2   15    3     -0.38      0.00
    3   15    3      0.65      0.00
    4   15    3     -0.05      0.00
    5   15    3     -0.11      0.00
    6   15    3     -0.93      0.00
    7   15    3     -1.20      0.00
    8   15    3      0.22      0.00
    9   15    3     -0.27      0.00
   10   15    3     -1.16      0.00
   11   15    3     -0.70      0.00
   12   15    3     -0.11      0.00
   13   15    3     -0.62      0.00
   14   15    3      0.11      0.00
  -15   16    3      0.00      0.00
  -14   16    3      0.52      0.00
  -13   16    3      0.94      0.00
  -12   16    3     -1.05      0.00
  -11   16    3      0.83      0.00
  -10   16    3      0.89      0.00
   -9   16    3     -1.31      0.00
   -8   16    3      0.21      0.00
   -7   16    3      1.65      0.00
   -6   16    3     -1.47      0.00
   -5   16    3     -1.59      0.00
   -4   16    3      0.89      0.00
   -3   16    3      0.40      0.00
   -2   16    3     -1.70      0.00
   -1   16    3      0.09      0.00
    0   16    3     -1.58      0.00
    1   16    3     -0.54      0.00
    2   16    3      2.46      0.00
    3   16    3      2.82      0.00
    4   16    3     -1.63      0.00
    5   16    3     -0.62      0.00
    6   16    3     -1.01      0.00
    7   16    3      1.81      0.00
    8   16    3     -0.81      0.00
    9   16    3     -0.45      0.00
   10   16    3      0.33      0.00
   11   16    3      0.31      0.00
   12   16    3      0.32      0.00
   13   16    3      0.39      0.00
  -14   17    3      0.05      0.00
  -13   17    3     -0.31      0.00
  -12   17    3     -0.23      0.00
  -11   17    3     -1.45      0.00
  -10   17    3      0.78      0.00
   -9   17    3      0.74      0.00
   -8   17    3     -1.89      0.00
   -7   17    3     -0.75      0.00
   -6   17    3     -1.24      0.00
   -5   17    3     -1.00      0.00
   -4   17    3     -0.97      0.00
   -3   17    3      0.82      0.00
   -2   17    3     -2.49      0.00
   -1   17    3     -1.02      0.00
    0   17    3      2.55      0.00
    1   17    3      2.04      0.00
    2   17    3      0.96      0.00
    3   17    3     -0.38      0.00
    4   17    3      1.13      0.00
    5   17    3      0.61      0.00
    6   17    3      0.85      0.00
    7   17    3      0.45      0.00
    8   17    3      0.25      0.00
    9   17    3      0.82      0.00
   10   17    3      0.56      0.00
   11   17    3     -0.11      0.00
   12   17    3      0.88      0.00
  -13   18    3     -0.71      0.00
  -12   18    3      0.59      0.00
  -11   18    3     -1.43      0.00
  -10   18    3     -0.73      0.00
   -9   18    3      0.52      0.00
   -8   18    3     -0.01      0.00
   -7   18    3     -1.25      0.00
   -6   18    3      1.15      0.00
   -5   18    3      0.47      0.00
   -4   18    3     -0.82      0.00
   -3   18    3     -0.55      0.00
   -2   18    3      0.64      0.00
   -1   18    3     -0.63      0.00
    0   18    3      1.65      0.00
    1   18    3      0.84      0.00
    2   18    3     -1.61      0.00
    3   18    3      0.59      0.00
    4   18    3      1.41      0.00
    5   18    3      0.40      0.00
    6   18    3      1.22      0.00
    7   18    3     -1.35      0.00
    8   18    3      0.82      0.00
    9   18    3     -0.23      0.00
   10   18    3     -0.18      0.00
   11   18    3     -0.06      0.00
  -11   19    3      0.89      0.00
  -10   19    3     -0.32      0.00
   -9   19    3     -0.43      0.00
   -8   19    3      1.37      0.00
   -7   19    3      0.40      0.00
   -6   19    3      0.29      0.00
   -5   19    3     -0.11      0.00
   -4   19    3      0.49      0.00
   -3   19    3     -1.35      0.00
   -2   19    3      2.20      0.00
   -1   19    3      0.25      0.00
    0   19    3     -1.82      0.00
    1   19    3     -0.64      0.00
    2   19    3     -0.47      0.00
    3   19    3     -0.08      0.00
    4   19    3     -0.72      0.00
    5   19    3     -0.22      0.00
    6   19    3     -0.91      0.00
    7   19    3      0.42      0.00
    8   19    3     -0.62      0.00
    9   19    3     -0.72      0.00
   10   19    3      0.14      0.00
  -10   20    3      0.20      0.00
   -9   20    3      0.41      0.00
   -8   20    3     -0.54      0.00
   -7   20    3     -0.23      0.00
   -6   20    3     -0.84      0.00
   -5   20    3      0.16      0.00
   -4   20    3      0.09      0.00
   -3   20    3      0.59      0.00
   -2   20    3     -0.44      0.00
   -1   20    3      0.26      0.00
    0   20    3     -1.71      0.00
    1   20    3     -0.50      0.00
    2   20    3      0.66      0.00
    3   20    3     -2.20      0.00
    4   20    3     -0.48      0.00
    5   20    3     -0.24      0.00
    6   20    3     -0.61      0.00
    7   20    3      0.03      0.00
    8   20    3     -0.34      0.00
    9   20    3      0.28      0.00
   -8   21    3     -0.69      0.00
   -7   21    3     -0.06      0.00
   -6   21    3     -0.26      0.00
   -5   21    3      0.31      0.00
   -4   21    3      0.13      0.00
   -3   21    3      0.31      0.00
   -2   21    3     -2.06      0.00
   -1   21    3     -0.30      0.00
    0   21    3      1.21      0.00
    1   21    3      0.05      0.00
    2   21    3     -0.44      0.00
    3   21    3      0.46      0.00
    4   21    3     -0.72      0.00
    5   21    3      0.43      0.00
    6   21    3      0.56      0.00
    7   21    3     -0.78      0.00
   -5   22    3     -0.29      0.00
   -4   22    3      0.06      0.00
   -3   22    3     -0.59      0.00
   -2   22    3      0.19      0.00
   -1   22    3      0.22      0.00
    0   22    3      1.34      0.00
    1   22    3      0.01      0.00
    2   22    3      0.19      0.00
    3   22    3      1.01      0.00
    4   22    3      0.30      0.00
  -20    0    4     -1.07      0.00
  -18    0    4      0.76      0.00
  -16    0    4      0.33      0.00
  -14    0    4     -2.09      0.00
  -12    0    4     -5.28      0.00
  -10    0    4      6.52      0.00
   -8    0    4    -16.10      0.00
   -6    0    4    -11.21      0.00
   -4    0    4     -0.86      0.00
   -2    0    4     -8.04      0.00
    2    0    4    -18.46      0.00
    4    0    4      1.45      0.00
    6    0    4      9.55      0.00
    8    0    4     -7.99      0.00
   10    0    4      0.43      0.00
   12    0    4     -1.52      0.00
   14    0    4      0.55      0.00
   16    0    4      0.32      0.00
   18    0    4     -0.13      0.00
  -21    1    4      0.34      0.00
  -20    1    4      0.65      0.00
  -19    1    4      0.42      0.00
  -18    1    4     -0.88      0.00
  -17    1    4      0.05      0.00
  -16    1    4     -1.82      0.00
  -15    1    4     -0.22      0.00
  -14    1    4      0.21      0.00
  -13    1    4     -0.36      0.00
  -12    1    4      0.72      0.00
  -11    1    4     -1.79      0.00
  -10    1    4     -0.73      0.00
   -9    1    4     -1.15      0.00
   -8    1    4     -5.58      0.00
   -7    1    4     -4.13      0.00
   -6    1    4     17.32      0.00
   -5    1    4     -1.04      0.00
   -4    1    4     -9.44      0.00
   -3    1    4     -4.10      0.00
   -1    1    4     -5.12      0.00
    0    1    4    -58.10      0.00
    1    1    4      3.96      0.00
    2    1    4      7.24      0.00
    3    1    4      3.28      0.00
    4    1    4     11.98      0.00
    5    1    4     -1.17      0.00
    6    1    4    -11.73      0.00
    7    1    4      0.10      0.00
    8    1    4      2.42      0.00
    9    1    4      0.83      0.00
   10    1    4      0.11      0.00
   11    1    4      0.49      0.00
   12    1    4     -1.07      0.00
   13    1    4      0.02      0.00
   14    1    4      0.80      0.00
   15    1    4     -0.41      0.00
   16    1    4      0.48      0.00
   17    1    4     -0.04      0.00
   18    1    4      0.18      0.00
   19    1    4     -0.27      0.00
  -21    2    4      0.07      0.00
  -20    2    4      0.65      0.00
  -19    2    4     -0.08      0.00
  -18    2    4     -0.55      0.00
  -17    2    4     -0.06      0.00
  -16    2    4     -0.38      0.00
  -15    2    4      0.42      0.00
  -14    2    4      1.21      0.00
  -13    2    4     -0.64      0.00
  -12    2    4      3.81      0.00
  -11    2    4     -0.93      0.00
  -10    2    4     -5.48      0.00
   -9    2    4     -0.16      0.00
   -8    2    4     13.69      0.00
   -7    2    4     -1.28      0.00
   -6    2    4      7.73      0.00
   -5    2    4     -1.64      0.00
   -4    2    4     -3.17      0.00
   -3    2    4    -17.09      0.00
   -1    2    4    -15.84      0.00
    0    2    4     -9.63      0.00
    1    2    4     -0.53      0.00
    2    2    4     22.32      0.00
    3    2    4     -2.33      0.00
    4    2    4     -3.97      0.00
    5    2    4     -9.86      0.00
    6    2    4     -8.42      0.00
    7    2    4     -0.41      0.00
    8    2    4      8.05      0.00
    9    2    4      0.73      0.00
   10    2    4     -0.56      0.00
   11    2    4      0.51      0.00
   12    2    4      1.57      0.00
   13    2    4      0.40      0.00
   14    2    4     -0.78      0.00
   15    2    4      0.88      0.00
   16    2    4     -0.30      0.00
   17    2    4      0.42      0.00
   18    2    4      0.01      0.00
   19    2    4     -0.44      0.00
  -21    3    4     -0.98      0.00
  -20    3    4     -0.05      0.00
  -19    3    4     -1.15      0.00
  -18    3    4      1.04      0.00
  -17    3    4      0.13      0.00
  -16    3    4      0.32      0.00
  -15    3    4      0.45      0.00
  -14    3    4      0.55      0.00
  -13    3    4      0.66      0.00
  -12    3    4     -0.72      0.00
  -11    3    4      3.69      0.00
  -10    3    4     -0.45      0.00
   -9    3    4      2.11      0.00
   -8    3    4      3.37      0.00
   -7    3    4      8.33      0.00
   -6    3    4    -20.51      0.00
   -5    3    4      1.73      0.00
   -4    3    4      6.91      0.00
   -3    3    4      9.68      0.00
   -2    3    4     -5.43      0.00
   -1    3    4     16.45      0.00
    0    3    4     38.66      0.00
    1    3    4     -3.73      0.00
    2    3    4      4.57      0.00
    3    3    4     -7.99      0.00
    4    3    4    -15.07      0.00
    5    3    4      0.66      0.00
    6    3    4     12.21      0.00
    7    3    4      0.09      0.00
    8    3    4     -3.13      0.00
    9    3    4     -1.41      0.00
   10    3    4      0.18      0.00
   11    3    4     -0.29      0.00
   12    3    4      2.35      0.00
   13    3    4     -0.22      0.00
   14    3    4     -1.09      0.00
   15    3    4      1.00      0.00
   16    3    4     -0.02      0.00
   17    3    4     -0.15      0.00
   18    3    4     -0.22      0.00
   19    3    4      0.61      0.00
  -21    4    4     -0.05      0.00
  -20    4    4      0.06      0.00
  -19    4    4      0.69      0.00
  -18    4    4     -0.14      0.00
  -17    4    4      0.00      0.00
  -16    4    4      0.86      0.00
  -15    4    4      0.23      0.00
  -14    4    4      0.05      0.00
  -13    4    4      0.90      0.00
  -12    4    4     -1.16      0.00
  -11    4    4     -0.24      0.00
  -10    4    4      3.53      0.00
   -9    4    4      0.45      0.00
   -8    4    4     -9.61      0.00
   -7    4    4      0.17      0.00
   -6    4    4     -1.69      0.00
   -5    4    4     -0.98      0.00
   -4    4    4      9.99      0.00
   -3    4    4     18.48      0.00
   -2    4    4     -9.91      0.00
   -1    4    4     17.77      0.00
    0    4    4      5.67      0.00
    1    4    4      4.03      0.00
    2    4    4    -26.15      0.00
    3    4    4      7.59      0.00
    4    4    4      5.87      0.00
    5    4    4     13.30      0.00
    6    4    4      4.01      0.00
    7    4    4     -0.45      0.00
    8    4    4     -6.70      0.00
    9    4    4     -0.43      0.00
   10    4    4      0.78      0.00
   11    4    4     -0.53      0.00
   12    4    4     -1.25      0.00
   13    4    4     -0.47      0.00
   14    4    4      1.27      0.00
   15    4    4     -1.16      0.00
   16    4    4      0.24      0.00
   17    4    4     -0.56      0.00
   18    4    4      0.13      0.00
   19    4    4      0.27      0.00
  -20    5    4     -0.57      0.00
  -19    5    4      1.33      0.00
  -18    5    4     -0.92      0.00
  -17    5    4     -0.45      0.00
  -16    5    4      1.30      0.00
  -15    5    4     -0.53      0.00
  -14    5    4     -0.85      0.00
  -13    5    4     -0.62      0.00
  -12    5    4      0.66      0.00
  -11    5    4     -2.39      0.00
  -10    5    4      1.49      0.00
   -9    5    4     -0.24      0.00
   -8    5    4     -0.04      0.00
   -7    5    4     -7.39      0.00
   -6    5    4     20.67      0.00
   -5    5    4     -2.17      0.00
   -4    5    4     -7.01      0.00
   -3    5    4     -8.98      0.00
   -2    5    4      6.42      0.00
   -1    5    4    -21.71      0.00
    0    5    4    -15.44      0.00
    1    5    4     -6.16      0.00
    2    5    4     -7.95      0.00
    3    5    4      7.80      0.00
    4    5    4     18.16      0.00
    5    5    4      0.68      0.00
    6    5    4    -11.23      0.00
    7    5    4     -1.50      0.00
    8    5    4      2.76      0.00
    9    5    4      1.08      0.00
   10    5    4      0.04      0.00
   11    5    4     -0.62      0.00
   12    5    4     -3.08      0.00
   13    5    4      0.88      0.00
   14    5    4      1.43      0.00
   15    5    4     -0.94      0.00
   16    5    4     -0.25      0.00
   17    5    4      0.65      0.00
   18    5    4     -0.20      0.00
   19    5    4     -0.78      0.00
  -20    6    4     -0.58      0.00
  -19    6    4     -1.28      0.00
  -18    6    4      0.88      0.00
  -17    6    4     -0.31      0.00
  -16    6    4     -1.64      0.00
  -15    6    4     -0.96      0.00
  -14    6    4     -0.25      0.00
  -13    6    4     -0.74      0.00
  -12    6    4      0.23      0.00
  -11    6    4      2.48      0.00
  -10    6    4     -1.90      0.00
   -9    6    4      0.59      0.00
   -8    6    4      7.26      0.00
   -7    6    4      1.78      0.00
   -6    6    4     -2.85      0.00
   -5    6    4      4.62      0.00
   -4    6    4    -13.33      0.00
   -3    6    4    -10.99      0.00
   -2    6    4      4.70      0.00
   -1    6    4    -11.32      0.00
    0    6    4     -7.91      0.00
    1    6    4     -3.78      0.00
    2    6    4     21.08      0.00
    3    6    4     -6.85      0.00
    4    6    4     -3.66      0.00
    5    6    4    -10.39      0.00
    6    6    4      0.02      0.00
    7    6    4      0.53      0.00
    8    6    4      3.13      0.00
    9    6    4     -0.86      0.00
   10    6    4     -0.68      0.00
   11    6    4     -0.03      0.00
   12    6    4      0.85      0.00
   13    6    4      0.29      0.00
   14    6    4     -1.36      0.00
   15    6    4      0.81      0.00
   16    6    4     -0.06      0.00
   17    6    4      0.63      0.00
   18    6    4     -0.21      0.00
  -20    7    4      0.80      0.00
  -19    7    4     -0.93      0.00
  -18    7    4      0.24      0.00
  -17    7    4      0.25      0.00
  -16    7    4     -1.62      0.00
  -15    7    4      0.81      0.00
  -14    7    4      0.53      0.00
  -13    7    4      1.02      0.00
  -12    7    4     -0.89      0.00
  -11    7    4      0.39      0.00
  -10    7    4     -0.78      0.00
   -9    7    4     -3.03      0.00
   -8    7    4     -0.45      0.00
   -7    7    4      5.65      0.00
   -6    7    4    -15.64      0.00
   -5    7    4      3.54      0.00
   -4    7    4      7.30      0.00
   -3    7    4      3.96      0.00
   -2    7    4     -2.97      0.00
   -1    7    4     15.54      0.00
    0    7    4      3.07      0.00
    1    7    4     11.86      0.00
    2    7    4      3.16      0.00
    3    7    4     -3.53      0.00
    4    7    4    -16.17      0.00
    5    7    4      1.14      0.00
    6    7    4      6.85      0.00
    7    7    4      2.66      0.00
    8    7    4     -2.31      0.00
    9    7    4     -0.54      0.00
   10    7    4     -1.18      0.00
   11    7    4      1.81      0.00
   12    7    4      1.91      0.00
   13    7    4     -1.38      0.00
   14    7    4     -1.56      0.00
   15    7    4      0.61      0.00
   16    7    4      0.52      0.00
   17    7    4     -0.79      0.00
   18    7    4      0.92      0.00
  -20    8    4      0.94      0.00
  -19    8    4      0.81      0.00
  -18    8    4     -0.99      0.00
  -17    8    4      0.96      0.00
  -16    8    4      1.65      0.00
  -15    8    4      0.66      0.00
  -14    8    4      0.23      0.00
  -13    8    4      0.00      0.00
  -12    8    4     -1.03      0.00
  -11    8    4     -3.43      0.00
  -10    8    4      0.92      0.00
   -9    8    4     -1.62      0.00
   -8    8    4     -5.75      0.00
   -7    8    4     -1.01      0.00
   -6    8    4      5.24      0.00
   -5    8    4     -6.56      0.00
   -4    8    4     13.69      0.00
   -3    8    4      3.85      0.00
   -2    8    4     -0.45      0.00
   -1    8    4      6.49      0.00
    0    8    4      9.39      0.00
    1    8    4      0.13      0.00
    2    8    4    -11.56      0.00
    3    8    4      0.48      0.00
    4    8    4      2.06      0.00
    5    8    4      5.95      0.00
    6    8    4      1.16      0.00
    7    8    4     -0.31      0.00
    8    8    4     -0.46      0.00
    9    8    4      1.16      0.00
   10    8    4      0.99      0.00
   11    8    4     -0.03      0.00
   12    8    4     -1.08      0.00
   13    8    4     -0.20      0.00
   14    8    4      0.94      0.00
   15    8    4     -0.13      0.00
   16    8    4     -0.27      0.00
   17    8    4     -0.60      0.00
   18    8    4      0.20      0.00
  -19    9    4      0.77      0.00
  -18    9    4      0.13      0.00
  -17    9    4      0.21      0.00
  -16    9    4      0.66      0.00
  -15    9    4     -1.01      0.00
  -14    9    4     -0.69      0.00
  -13    9    4     -1.40      0.00
  -12    9    4      1.18      0.00
  -11    9    4     -0.27      0.00
  -10    9    4     -0.50      0.00
   -9    9    4      4.45      0.00
   -8    9    4     -2.02      0.00
   -7    9    4     -3.75      0.00
   -6    9    4      8.83      0.00
   -5    9    4     -2.80      0.00
   -4    9    4     -6.09      0.00
   -3    9    4      0.61      0.00
   -2    9    4      0.68      0.00
   -1    9    4     -7.29      0.00
    0    9    4     -0.80      0.00
    1    9    4    -10.22      0.00
    2    9    4     -1.46      0.00
    3    9    4      0.86      0.00
    4    9    4     11.04      0.00
    5    9    4     -1.49      0.00
    6    9    4     -1.60      0.00
    7    9    4     -1.75      0.00
    8    9    4      2.03      0.00
    9    9    4     -0.12      0.00
   10    9    4      1.17      0.00
   11    9    4     -2.21      0.00
   12    9    4      0.07      0.00
   13    9    4      1.06      0.00
   14    9    4      1.35      0.00
   15    9    4     -0.66      0.00
   16    9    4     -0.81      0.00
   17    9    4      0.49      0.00
  -19   10    4      0.28      0.00
  -18   10    4      0.60      0.00
  -17   10    4     -1.32      0.00
  -16   10    4     -0.61      0.00
  -15   10    4     -0.03      0.00
  -14   10    4     -0.59      0.00
  -13   10    4      0.80      0.00
  -12   10    4      1.57      0.00
  -11   10    4      2.86      0.00
  -10   10    4     -1.02      0.00
   -9   10    4      1.40      0.00
   -8   10    4      3.78      0.00
   -7   10    4     -1.75      0.00
   -6   10    4     -3.53      0.00
   -5   10    4      5.72      0.00
   -4   10    4    -11.91      0.00
   -3   10    4      0.25      0.00
   -2   10    4     -1.63      0.00
   -1   10    4     -4.58      0.00
    0   10    4     -8.74      0.00
    1   10    4      1.37      0.00
    2   10    4      5.62      0.00
    3   10    4      2.85      0.00
    4   10    4     -1.37      0.00
    5   10    4     -2.54      0.00
    6   10    4     -3.33      0.00
    7   10    4      0.82      0.00
    8   10    4      0.55      0.00
    9   10    4     -0.41      0.00
   10   10    4     -1.90      0.00
   11   10    4      0.95      0.00
   12   10    4      1.53      0.00
   13   10    4      0.38      0.00
   14   10    4     -0.72      0.00
   15   10    4     -0.25      0.00
   16   10    4      0.43      0.00
   17   10    4      0.63      0.00
  -18   11    4      0.22      0.00
  -17   11    4     -0.24      0.00
  -16   11    4      0.16      0.00
  -15   11    4      0.85      0.00
  -14   11    4      1.18      0.00
  -13   11    4      0.74      0.00
  -12   11    4     -0.96      0.00
  -11   11    4      1.10      0.00
  -10   11    4      0.88      0.00
   -9   11    4     -3.02      0.00
   -8   11    4      3.66      0.00
   -7   11    4      1.71      0.00
   -6   11    4     -4.11      0.00
   -5   11    4      1.16      0.00
   -4   11    4      4.96      0.00
   -3   11    4     -3.47      0.00
   -2   11    4      0.82      0.00
   -1   11    4      2.43      0.00
    0   11    4      0.95      0.00
    1   11    4      5.95      0.00
    2   11    4      2.15      0.00
    3   11    4     -1.62      0.00
    4   11    4     -7.60      0.00
    5   11    4     -0.47      0.00
    6   11    4     -0.22      0.00
    7   11    4      0.69      0.00
    8   11    4     -1.13      0.00
    9   11    4      0.56      0.00
   10   11    4      0.63      0.00
   11   11    4      1.19      0.00
   12   11    4     -0.92      0.00
   13   11    4     -0.59      0.00
   14   11    4     -0.52      0.00
   15   11    4      0.70      0.00
   16   11    4      0.82      0.00
  -18   12    4     -0.26      0.00
  -17   12    4      1.19      0.00
  -16   12    4     -0.18      0.00
  -15   12    4     -0.33      0.00
  -14   12    4      0.42      0.00
  -13   12    4     -0.70      0.00
  -12   12    4     -1.49      0.00
  -11   12    4     -1.71      0.00
  -10   12    4      1.69      0.00
   -9   12    4     -1.06      0.00
   -8   12    4     -1.74      0.00
   -7   12    4      2.71      0.00
   -6   12    4      0.39      0.00
   -5   12    4     -2.08      0.00
   -4   12    4      8.02      0.00
   -3   12    4      0.25      0.00
   -2   12    4      2.01      0.00
   -1   12    4      3.91      0.00
    0   12    4      7.34      0.00
    1   12    4     -2.14      0.00
    2   12    4     -4.44      0.00
    3   12    4     -2.86      0.00
    4   12    4     -0.23      0.00
    5   12    4      0.46      0.00
    6   12    4      2.48      0.00
    7   12    4     -0.74      0.00
    8   12    4     -0.98      0.00
    9   12    4      0.32      0.00
   10   12    4      1.65      0.00
   11   12    4     -1.48      0.00
   12   12    4     -1.51      0.00
   13   12    4     -0.51      0.00
   14   12    4      0.43      0.00
   15   12    4      0.17      0.00
   16   12    4     -0.34      0.00
  -17   13    4      0.17      0.00
  -16   13    4     -0.11      0.00
  -15   13    4     -0.65      0.00
  -14   13    4     -0.89      0.00
  -13   13    4      0.30      0.00
  -12   13    4      0.71      0.00
  -11   13    4     -1.59      0.00
  -10   13    4     -0.57      0.00
   -9   13    4      1.05      0.00
   -8   13    4     -3.44      0.00
   -7   13    4      0.22      0.00
   -6   13    4      2.58      0.00
   -5   13    4     -0.98      0.00
   -4   13    4     -2.56      0.00
   -3   13    4      4.50      0.00
   -2   13    4     -1.04      0.00
   -1   13    4      0.42      0.00
    0   13    4     -1.14      0.00
    1   13    4     -2.65      0.00
    2   13    4     -2.47      0.00
    3   13    4      2.55      0.00
    4   13    4      4.96      0.00
    5   13    4      0.75      0.00
    6   13    4     -0.82      0.00
    7   13    4     -0.58      0.00
    8   13    4      0.50      0.00
    9   13    4     -0.52      0.00
   10   13    4     -1.76      0.00
   11   13    4     -0.35      0.00
   12   13    4      0.42      0.00
   13   13    4      0.32      0.00
   14   13    4     -0.44      0.00
   15   13    4     -0.41      0.00
  -16   14    4      0.13      0.00
  -15   14    4      0.53      0.00
  -14   14    4      0.19      0.00
  -13   14    4      0.12      0.00
  -12   14    4      1.25      0.00
  -11   14    4      0.46      0.00
  -10   14    4     -1.80      0.00
   -9   14    4      0.95      0.00
   -8   14    4      1.04      0.00
   -7   14    4     -1.76      0.00
   -6   14    4      0.23      0.00
   -5   14    4     -0.63      0.00
   -4   14    4     -4.23      0.00
   -3   14    4     -1.51      0.00
   -2   14    4      0.11      0.00
   -1   14    4     -3.69      0.00
    0   14    4     -4.13      0.00
    1   14    4      3.06      0.00
    2   14    4      4.45      0.00
    3   14    4      2.10      0.00
    4   14    4      1.05      0.00
    5   14    4     -0.48      0.00
    6   14    4     -0.62      0.00
    7   14    4     -0.05      0.00
    8   14    4      0.67      0.00
    9   14    4     -0.28      0.00
   10   14    4     -0.25      0.00
   11   14    4      0.98      0.00
   12   14    4      0.84      0.00
   13   14    4      0.44      0.00
   14   14    4      0.31      0.00
   15   14    4     -0.05      0.00
  -16   15    4     -0.11      0.00
  -15   15    4      0.60      0.00
  -14   15    4      0.11      0.00
  -13   15    4     -0.90      0.00
  -12   15    4     -0.83      0.00
  -11   15    4      1.62      0.00
  -10   15    4     -0.25      0.00
   -9   15    4     -0.24      0.00
   -8   15    4      2.33      0.00
   -7   15    4     -1.66      0.00
   -6   15    4     -2.40      0.00
   -5   15    4      0.52      0.00
   -4   15    4      0.41      0.00
   -3   15    4     -3.19      0.00
   -2   15    4      0.12      0.00
   -1   15    4     -0.53      0.00
    0   15    4      1.06      0.00
    1   15    4      2.18      0.00
    2   15    4      2.51      0.00
    3   15    4     -1.78      0.00
    4   15    4     -2.37      0.00
    5   15    4      0.47      0.00
    6   15    4      1.36      0.00
    7   15    4      0.39      0.00
    8   15    4     -0.06      0.00
    9   15    4      0.52      0.00
   10   15    4      1.32      0.00
   11   15    4      0.67      0.00
   12   15    4      0.25      0.00
   13   15    4      0.10      0.00
   14   15    4      0.63      0.00
  -15   16    4     -0.30      0.00
  -14   16    4     -0.47      0.00
  -13   16    4     -0.04      0.00
  -12   16    4     -1.01      0.00
  -11   16    4      0.19      0.00
  -10   16    4      1.13      0.00
   -9   16    4     -1.02      0.00
   -8   16    4     -1.37      0.00
   -7   16    4      1.02      0.00
   -6   16    4     -0.06      0.00
   -5   16    4      1.00      0.00
   -4   16    4      2.07      0.00
   -3   16    4      0.46      0.00
   -2   16    4     -1.77      0.00
   -1   16    4      3.21      0.00
    0   16    4      1.62      0.00
    1   16    4     -2.57      0.00
    2   16    4     -2.75      0.00
    3   16    4     -1.17      0.00
    4   16    4     -0.36      0.00
    5   16    4      1.41      0.00
    6   16    4     -0.58      0.00
    7   16    4      0.56      0.00
    8   16    4     -0.79      0.00
    9   16    4     -0.03      0.00
   10   16    4     -0.31      0.00
   11   16    4      0.09      0.00
   12   16    4     -0.22      0.00
   13   16    4     -0.56      0.00
  -14   17    4      0.28      0.00
  -13   17    4      0.83      0.00
  -12   17    4      0.79      0.00
  -11   17    4     -1.06      0.00
  -10   17    4      0.64      0.00
   -9   17    4      0.28      0.00
   -8   17    4     -1.30      0.00
   -7   17    4      1.41      0.00
   -6   17    4      1.84      0.00
   -5   17    4      0.26      0.00
   -4   17    4     -0.75      0.00
   -3   17    4      1.55      0.00
   -2   17    4     -0.34      0.00
   -1   17    4     -0.29      0.00
    0   17    4     -0.21      0.00
    1   17    4     -2.65      0.00
    2   17    4     -2.08      0.00
    3   17    4      0.49      0.00
    4   17    4      0.81      0.00
    5   17    4     -1.40      0.00
    6   17    4     -0.30      0.00
    7   17    4     -0.54      0.00
    8   17    4     -0.63      0.00
    9   17    4     -0.49      0.00
   10   17    4     -0.40      0.00
   11   17    4     -1.03      0.00
   12   17    4     -0.20      0.00
  -13   18    4      0.32      0.00
  -12   18    4      0.86      0.00
  -11   18    4     -0.23      0.00
  -10   18    4     -0.03      0.00
   -9   18    4      0.80      0.00
   -8   18    4      0.99      0.00
   -7   18    4     -0.69      0.00
   -6   18    4      0.18      0.00
   -5   18    4     -1.22      0.00
   -4   18    4     -0.90      0.00
   -3   18    4      0.27      0.00
   -2   18    4      1.37      0.00
   -1   18    4     -2.56      0.00
    0   18    4     -1.08      0.00
    1   18    4      1.58      0.00
    2   18    4      0.11      0.00
    3   18    4      0.58      0.00
    4   18    4     -0.69      0.00
    5   18    4     -1.17      0.00
    6   18    4      0.59      0.00
    7   18    4     -0.49      0.00
    8   18    4      0.81      0.00
    9   18    4     -0.11      0.00
   10   18    4      0.21      0.00
   11   18    4     -0.70      0.00
  -11   19    4      0.46      0.00
  -10   19    4     -0.12      0.00
   -9   19    4     -0.39      0.00
   -8   19    4      0.81      0.00
   -7   19    4     -0.48      0.00
   -6   19    4     -0.79      0.00
   -5   19    4     -0.18      0.00
   -4   19    4      0.78      0.00
   -3   19    4     -1.04      0.00
   -2   19    4      0.82      0.00
   -1   19    4     -0.13      0.00
    0   19    4     -0.26      0.00
    1   19    4      1.96      0.00
    2   19    4      1.61      0.00
    3   19    4     -0.46      0.00
    4   19    4      0.47      0.00
    5   19    4      1.25      0.00
    6   19    4     -1.00      0.00
    7   19    4      0.92      0.00
    8   19    4      0.89      0.00
    9   19    4      0.00      0.00
   10   19    4     -0.19      0.00
  -10   20    4     -0.64      0.00
   -9   20    4      0.29      0.00
   -8   20    4     -0.27      0.00
   -7   20    4      0.40      0.00
   -6   20    4      0.36      0.00
   -5   20    4      1.38      0.00
   -4   20    4      0.12      0.00
   -3   20    4     -0.15      0.00
   -2   20    4     -0.61      0.00
   -1   20    4      2.16      0.00
    0   20    4      0.81      0.00
    1   20    4     -0.70      0.00
    2   20    4      0.95      0.00
    3   20    4      0.32      0.00
    4   20    4      0.85      0.00
    5   20    4      0.33      0.00
    6   20    4      0.24      0.00
    7   20    4     -0.17      0.00
    8   20    4     -0.14      0.00
   -8   21    4     -0.25      0.00
   -7   21    4      0.32      0.00
   -6   21    4     -0.22      0.00
   -5   21    4      0.23      0.00
   -4   21    4      0.45      0.00
   -3   21    4      0.60      0.00
   -2   21    4     -0.22      0.00
   -1   21    4      0.41      0.00
    0   21    4      0.13      0.00
    1   21    4     -0.84      0.00
    2   21    4     -0.75      0.00
    3   21    4      1.15      0.00
    4   21    4     -1.17      0.00
    5   21    4     -0.24      0.00
    6   21    4      1.06      0.00
   -5   22    4     -0.94      0.00
   -4   22    4      0.21      0.00
   -3   22    4      0.36      0.00
   -2   22    4      0.02      0.00
   -1   22    4     -1.66      0.00
    0   22    4     -0.69      0.00
    1   22    4      0.06      0.00
    2   22    4     -0.09      0.00
    3   22    4     -1.11      0.00
  -21    0    5      1.12      0.00
  -19    0    5     -1.92      0.00
  -17    0    5      1.06      0.00
  -15    0    5      2.51      0.00
  -13    0    5      1.97      0.00
  -11    0    5      0.68      0.00
   -9    0    5      3.66      0.00
   -7    0    5     17.53      0.00
   -5    0    5    -10.06      0.00
   -3    0    5     21.26      0.00
   -1    0    5     -3.78      0.00
    1    0    5     14.18      0.00
    3    0    5     10.64      0.00
    5    0    5     -9.57      0.00
    7    0    5      6.82      0.00
    9    0    5     -0.19      0.00
   11    0    5      0.02      0.00
   13    0    5      0.78      0.00
   15    0    5     -0.81      0.00
   17    0    5     -0.99      0.00
   19    0    5     -0.22      0.00
  -21    1    5      0.23      0.00
  -20    1    5     -0.48      0.00
  -19    1    5      0.45      0.00
  -18    1    5     -0.07      0.00
  -17    1    5      1.80      0.00
  -16    1    5      0.22      0.00
  -15    1    5     -0.04      0.00
  -14    1    5     -0.07      0.00
  -13    1    5      0.90      0.00
  -12    1    5      1.71      0.00
  -11    1    5     -4.68      0.00
  -10    1    5      1.05      0.00
   -9    1    5      4.74      0.00
   -8    1    5      2.92      0.00
   -7    1    5    -12.55      0.00
   -6    1    5      1.94      0.00
   -5    1    5    -17.01      0.00
   -4    1    5      0.88      0.00
   -3    1    5      6.52      0.00
   -2    1    5      8.19      0.00
   -1    1    5     10.52      0.00
    0    1    5      0.35      0.00
    1    1    5     17.47      0.00
    2    1    5     -2.76      0.00
    3    1    5    -11.32      0.00
    4    1    5      0.94      0.00
    5    1    5     -1.76      0.00
    6    1    5      1.04      0.00
    7    1    5      9.19      0.00
    8    1    5     -0.85      0.00
    9    1    5     -3.92      0.00
   10    1    5     -1.03      0.00
   11    1    5      2.15      0.00
   12    1    5     -0.24      0.00
   13    1    5      0.16      0.00
   14    1    5      0.45      0.00
   15    1    5      0.32      0.00
   16    1    5     -0.05      0.00
   17    1    5     -0.79      0.00
   18    1    5      0.23      0.00
   19    1    5     -1.65      0.00
  -21    2    5     -0.52      0.00
  -20    2    5     -0.01      0.00
  -19    2    5      1.51      0.00
  -18    2    5      0.08      0.00
  -17    2    5     -1.11      0.00
  -16    2    5     -0.42      0.00
  -15    2    5     -1.62      0.00
  -14    2    5     -0.54      0.00
  -13    2    5     -0.92      0.00
  -12    2    5      1.12      0.00
  -11    2    5     -0.59      0.00
  -10    2    5     -0.93      0.00
   -9    2    5     -2.63      0.00
   -8    2    5     -0.47      0.00
   -7    2    5    -14.04      0.00
   -6    2    5     -2.16      0.00
   -5    2    5     13.04      0.00
   -4    2    5      6.34      0.00
   -3    2    5    -18.94      0.00
   -2    2    5      9.98      0.00
   -1    2    5      1.26      0.00
    0    2    5      2.29      0.00
    1    2    5    -15.36      0.00
    2    2    5     -0.86      0.00
    3    2    5    -10.47      0.00
    4    2    5      8.62      0.00
    5    2    5     12.32      0.00
    6    2    5      3.87      0.00
    7    2    5     -8.02      0.00
    8    2    5     -1.88      0.00
    9    2    5      0.36      0.00
   10    2    5      0.59      0.00
   11    2    5      0.04      0.00
   12    2    5     -0.99      0.00
   13    2    5     -0.89      0.00
   14    2    5     -0.06      0.00
   15    2    5      0.89      0.00
   16    2    5     -0.67      0.00
   17    2    5      0.95      0.00
   18    2    5      0.37      0.00
   19    2    5      0.23      0.00
  -21    3    5     -0.32      0.00
  -20    3    5      1.30      0.00
  -19    3    5     -0.47      0.00
  -18    3    5     -0.01      0.00
  -17    3    5     -0.62      0.00
  -16    3    5     -0.52      0.00
  -15    3    5     -0.15      0.00
  -14    3    5      0.15      0.00
  -13    3    5     -1.31      0.00
  -12    3    5     -3.26      0.00
  -11    3    5      4.17      0.00
  -10    3    5     -2.02      0.00
   -9    3    5     -3.19      0.00
   -8    3    5     -5.59      0.00
   -7    3    5     13.92      0.00
   -6    3    5     -3.14      0.00
   -5    3    5     16.24      0.00
   -4    3    5     -2.09      0.00
   -3    3    5     -6.63      0.00
   -2    3    5    -20.72      0.00
   -1    3    5      1.18      0.00
    0    3    5     -5.93      0.00
    1    3    5    -18.68      0.00
    2    3    5      3.97      0.00
    3    3    5     11.57      0.00
    4    3    5      0.12      0.00
    5    3    5      0.03      0.00
    6    3    5     -2.32      0.00
    7    3    5     -6.51      0.00
    8    3    5      1.58      0.00
    9    3    5      2.84      0.00
   10    3    5      1.33      0.00
   11    3    5     -2.74      0.00
   12    3    5      0.51      0.00
   13    3    5     -0.06      0.00
   14    3    5     -1.06      0.00
   15    3    5     -0.43      0.00
   16    3    5      0.19      0.00
   17    3    5      0.51      0.00
   18    3    5     -0.37      0.00
   19    3    5      1.46      0.00
  -21    4    5     -0.63      0.00
  -20    4    5     -0.44      0.00
  -19    4    5     -0.42      0.00
  -18    4    5     -0.12      0.00
  -17    4    5      0.87      0.00
  -16    4    5      0.19      0.00
  -15    4    5     -0.07      0.00
  -14    4    5     -0.08      0.00
  -13    4    5     -0.43      0.00
  -12    4    5     -0.39      0.00
  -11    4    5      0.34      0.00
  -10    4    5      1.73      0.00
   -9    4    5      0.85      0.00
   -8    4    5      1.03      0.00
   -7    4    5      8.12      0.00
   -6    4    5      6.11      0.00
   -5    4    5    -17.23      0.00
   -4    4    5     -3.88      0.00
   -3    4    5     11.85      0.00
   -2    4    5     -9.63      0.00
   -1    4    5      0.20      0.00
    0    4    5     -1.71      0.00
    1    4    5     12.71      0.00
    2    4    5     -1.74      0.00
    3    4    5      9.93      0.00
    4    4    5    -13.12      0.00
    5    4    5    -13.96      0.00
    6    4    5     -4.39      0.00
    7    4    5      8.87      0.00
    8    4    5      2.76      0.00
    9    4    5     -0.63      0.00
   10    4    5     -1.30      0.00
   11    4    5     -0.48      0.00
   12    4    5      1.42      0.00
   13    4    5      0.85      0.00
   14    4    5      0.07      0.00
   15    4    5     -1.08      0.00
   16    4    5      0.83      0.00
   17    4    5     -0.79      0.00
   18    4    5     -0.27      0.00
  -20    5    5     -1.53      0.00
  -19    5    5      0.39      0.00
  -18    5    5      0.31      0.00
  -17    5    5     -0.63      0.00
  -16    5    5      0.48      0.00
  -15    5    5     -0.09      0.00
  -14    5    5      0.28      0.00
  -13    5    5      1.24      0.00
  -12    5    5      1.88      0.00
  -11    5    5     -2.86      0.00
  -10    5    5      0.28      0.00
   -9    5    5      0.80      0.00
   -8    5    5      3.50      0.00
   -7    5    5    -13.64      0.00
   -6    5    5      2.43      0.00
   -5    5    5    -10.83      0.00
   -4    5    5      2.10      0.00
   -3    5    5     10.07      0.00
   -2    5    5     21.40      0.00
   -1    5    5     -9.64      0.00
    0    5    5     14.12      0.00
    1    5    5     13.10      0.00
    2    5    5      0.37      0.00
    3    5    5    -14.13      0.00
    4    5    5     -2.71      0.00
    5    5    5      1.10      0.00
    6    5    5      3.68      0.00
    7    5    5      3.94      0.00
    8    5    5     -1.03      0.00
    9    5    5     -1.59      0.00
   10    5    5     -0.61      0.00
   11    5    5      2.69      0.00
   12    5    5     -0.51      0.00
   13    5    5     -0.23      0.00
   14    5    5      0.74      0.00
   15    5    5      0.29      0.00
   16    5    5     -0.34      0.00
   17    5    5      0.04      0.00
   18    5    5      0.20      0.00
  -20    6    5      0.81      0.00
  -19    6    5     -0.56      0.00
  -18    6    5      0.30      0.00
  -17    6    5     -0.18      0.00
  -16    6    5      0.52      0.00
  -15    6    5      1.14      0.00
  -14    6    5      0.61      0.00
  -13    6    5      0.03      0.00
  -12    6    5     -0.98      0.00
  -11    6    5     -0.50      0.00
  -10    6    5     -2.77      0.00
   -9    6    5     -0.31      0.00
   -8    6    5     -1.45      0.00
   -7    6    5     -4.62      0.00
   -6    6    5     -9.20      0.00
   -5    6    5     18.01      0.00
   -4    6    5     -1.56      0.00
   -3    6    5     -3.37      0.00
   -2    6    5      4.79      0.00
   -1    6    5      2.29      0.00
    0    6    5     -1.65      0.00
    1    6    5     -3.44      0.00
    2    6    5     -0.05      0.00
    3    6    5     -7.57      0.00
    4    6    5     10.47      0.00
    5    6    5     10.64      0.00
    6    6    5      3.36      0.00
    7    6    5     -5.58      0.00
    8    6    5     -1.77      0.00
    9    6    5      0.41      0.00
   10    6    5      2.03      0.00
   11    6    5      0.85      0.00
   12    6    5     -1.05      0.00
   13    6    5     -0.62      0.00
   14    6    5      0.04      0.00
   15    6    5      0.92      0.00
   16    6    5     -0.68      0.00
   17    6    5      0.49      0.00
   18    6    5     -0.11      0.00
  -20    7    5      1.25      0.00
  -19    7    5     -0.20      0.00
  -18    7    5     -0.22      0.00
  -17    7    5      0.98      0.00
  -16    7    5     -0.32      0.00
  -15    7    5      0.29      0.00
  -14    7    5     -1.24      0.00
  -13    7    5     -0.47      0.00
  -12    7    5     -0.35      0.00
  -11    7    5      1.58      0.00
  -10    7    5      2.76      0.00
   -9    7    5     -0.34      0.00
   -8    7    5     -0.39      0.00
   -7    7    5      9.46      0.00
   -6    7    5     -2.91      0.00
   -5    7    5      3.98      0.00
   -4    7    5     -0.67      0.00
   -3    7    5    -12.20      0.00
   -2    7    5    -11.95      0.00
   -1    7    5      8.52      0.00
    0    7    5    -14.46      0.00
    1    7    5     -6.06      0.00
    2    7    5     -3.65      0.00
    3    7    5     13.36      0.00
    4    7    5      2.37      0.00
    5    7    5     -0.03      0.00
    6    7    5     -5.15      0.00
    7    7    5     -1.88      0.00
    8    7    5      0.81      0.00
    9    7    5      1.83      0.00
   10    7    5     -0.70      0.00
   11    7    5     -1.59      0.00
   12    7    5      0.41      0.00
   13    7    5      1.00      0.00
   14    7    5     -0.01      0.00
   15    7    5     -0.31      0.00
   16    7    5      0.11      0.00
   17    7    5     -0.82      0.00
   18    7    5      0.16      0.00
  -20    8    5     -0.43      0.00
  -19    8    5      0.59      0.00
  -18    8    5     -0.42      0.00
  -17    8    5     -0.25      0.00
  -16    8    5     -1.20      0.00
  -15    8    5     -1.28      0.00
  -14    8    5      0.27      0.00
  -13    8    5      0.99      0.00
  -12    8    5      1.58      0.00
  -11    8    5      0.99      0.00
  -10    8    5      3.23      0.00
   -9    8    5      0.82      0.00
   -8    8    5      0.30      0.00
   -7    8    5      3.29      0.00
   -6    8    5      8.67      0.00
   -5    8    5    -15.92      0.00
   -4    8    5      4.63      0.00
   -3    8    5     -1.64      0.00
   -2    8    5     -1.79      0.00
   -1    8    5     -3.44      0.00
    0    8    5      3.02      0.00
    1    8    5     -3.68      0.00
    2    8    5      4.96      0.00
    3    8    5      3.68      0.00
    4    8    5     -4.84      0.00
    5    8    5     -8.26      0.00
    6    8    5     -2.49      0.00
    7    8    5      0.79      0.00
    8    8    5      1.07      0.00
    9    8    5     -0.14      0.00
   10    8    5     -1.68      0.00
   11    8    5     -0.62      0.00
   12    8    5      0.57      0.00
   13    8    5      0.31      0.00
   14    8    5     -0.17      0.00
   15    8    5     -0.27      0.00
   16    8    5      0.26      0.00
   17    8    5     -0.09      0.00
  -19    9    5      0.43      0.00
  -18    9    5     -0.32      0.00
  -17    9    5     -0.53      0.00
  -16    9    5      0.42      0.00
  -15    9    5      0.19      0.00
  -14    9    5      1.56      0.00
  -13    9    5      0.23      0.00
  -12    9    5      0.29      0.00
  -11    9    5     -1.54      0.00
  -10    9    5     -3.60      0.00
   -9    9    5      1.85      0.00
   -8    9    5     -1.14      0.00
   -7    9    5     -3.53      0.00
   -6    9    5      2.85      0.00
   -5    9    5     -0.24      0.00
   -4    9    5     -1.83      0.00
   -3    9    5     11.10      0.00
   -2    9    5      3.41      0.00
   -1    9    5     -4.20      0.00
    0    9    5      9.44      0.00
    1    9    5      4.30      0.00
    2    9    5      2.67      0.00
    3    9    5     -8.17      0.00
    4    9    5     -2.38      0.00
    5    9    5     -2.33      0.00
    6    9    5      3.75      0.00
    7    9    5      0.77      0.00
    8    9    5     -0.91      0.00
    9    9    5     -2.09      0.00
   10    9    5      1.30      0.00
   11    9    5      0.76      0.00
   12    9    5     -0.43      0.00
   13    9    5     -1.79      0.00
   14    9    5     -0.01      0.00
   15    9    5      0.67      0.00
   16    9    5      0.41      0.00
   17    9    5      1.15      0.00
  -19   10    5     -0.16      0.00
  -18   10    5      0.39      0.00
  -17   10    5      0.08      0.00
  -16   10    5      1.47      0.00
  -15   10    5      0.75      0.00
  -14   10    5     -1.32      0.00
  -13   10    5     -1.16      0.00
  -12   10    5     -1.61      0.00
  -11   10    5     -0.82      0.00
  -10   10    5     -2.74      0.00
   -9   10    5     -0.70      0.00
   -8   10    5      1.32      0.00
   -7   10    5     -3.46      0.00
   -6   10    5     -4.93      0.00
   -5   10    5     10.96      0.00
   -4   10    5     -4.69      0.00
   -3   10    5      3.14      0.00
   -2   10    5      0.79      0.00
   -1   10    5      3.75      0.00
    0   10    5     -1.10      0.00
    1   10    5      4.55      0.00
    2   10    5     -5.62      0.00
    3   10    5     -2.03      0.00
    4   10    5      1.42      0.00
    5   10    5      7.12      0.00
    6   10    5      1.47      0.00
    7   10    5      0.44      0.00
    8   10    5     -1.43      0.00
    9   10    5      0.61      0.00
   10   10    5      0.56      0.00
   11   10    5     -0.30      0.00
   12   10    5     -0.52      0.00
   13   10    5      0.22      0.00
   14   10    5      0.03      0.00
   15   10    5     -0.20      0.00
   16   10    5      0.17      0.00
   17   10    5     -0.31      0.00
  -18   11    5      0.60      0.00
  -17   11    5      0.15      0.00
  -16   11    5     -0.81      0.00
  -15   11    5     -0.56      0.00
  -14   11    5     -0.84      0.00
  -13   11    5     -0.80      0.00
  -12   11    5     -0.59      0.00
  -11   11    5      1.97      0.00
  -10   11    5      1.73      0.00
   -9   11    5     -3.00      0.00
   -8   11    5      1.02      0.00
   -7   11    5     -0.26      0.00
   -6   11    5     -2.10      0.00
   -5   11    5     -0.19      0.00
   -4   11    5      3.12      0.00
   -3   11    5     -9.66      0.00
   -2   11    5      0.83      0.00
   -1   11    5      1.62      0.00
    0   11    5     -4.46      0.00
    1   11    5     -4.26      0.00
    2   11    5      0.23      0.00
    3   11    5      4.59      0.00
    4   11    5      3.85      0.00
    5   11    5      3.35      0.00
    6   11    5     -1.28      0.00
    7   11    5     -1.13      0.00
    8   11    5      0.27      0.00
    9   11    5      0.82      0.00
   10   11    5     -0.46      0.00
   11   11    5     -0.66      0.00
   12   11    5      0.68      0.00
   13   11    5      1.28      0.00
   14   11    5     -0.33      0.00
   15   11    5     -0.95      0.00
   16   11    5     -0.64      0.00
  -18   12    5     -0.40      0.00
  -17   12    5      0.03      0.00
  -16   12    5     -0.98      0.00
  -15   12    5      0.13      0.00
  -14   12    5      1.36      0.00
  -13   12    5      0.99      0.00
  -12   12    5      1.05      0.00
  -11   12    5      0.23      0.00
  -10   12    5      1.98      0.00
   -9   12    5     -0.20      0.00
   -8   12    5     -1.09      0.00
   -7   12    5      3.46      0.00
   -6   12    5      0.74      0.00
   -5   12    5     -5.41      0.00
   -4   12    5      1.76      0.00
   -3   12    5     -2.54      0.00
   -2   12    5     -2.02      0.00
   -1   12    5     -3.50      0.00
    0   12    5      0.00      0.00
    1   12    5     -2.20      0.00
    2   12    5      4.24      0.00
    3   12    5      3.15      0.00
    4   12    5     -0.14      0.00
    5   12    5     -4.54      0.00
    6   12    5     -0.86      0.00
    7   12    5      0.58      0.00
    8   12    5      1.03      0.00
    9   12    5     -0.88      0.00
   10   12    5      0.12      0.00
   11   12    5      1.47      0.00
   12   12    5      0.55      0.00
   13   12    5     -0.45      0.00
   14   12    5      0.08      0.00
   15   12    5      0.26      0.00
   16   12    5     -0.22      0.00
  -17   13    5     -0.29      0.00
  -16   13    5      1.01      0.00
  -15   13    5      0.28      0.00
  -14   13    5      0.16      0.00
  -13   13    5      0.80      0.00
  -12   13    5      0.72      0.00
  -11   13    5     -1.88      0.00
  -10   13    5      0.44      0.00
   -9   13    5      2.97      0.00
   -8   13    5     -0.79      0.00
   -7   13    5      0.89      0.00
   -6   13    5      1.35      0.00
   -5   13    5     -1.21      0.00
   -4   13    5     -2.03      0.00
   -3   13    5      6.56      0.00
   -2   13    5     -2.72      0.00
   -1   13    5     -0.75      0.00
    0   13    5      1.36      0.00
    1   13    5      3.75      0.00
    2   13    5     -2.03      0.00
    3   13    5     -3.15      0.00
    4   13    5     -3.63      0.00
    5   13    5     -2.08      0.00
    6   13    5      0.68      0.00
    7   13    5      1.28      0.00
    8   13    5      0.32      0.00
    9   13    5      0.33      0.00
   10   13    5     -0.20      0.00
   11   13    5      0.54      0.00
   12   13    5     -0.25      0.00
   13   13    5      0.17      0.00
   14   13    5      0.21      0.00
   15   13    5      0.76      0.00
  -17   14    5      0.07      0.00
  -16   14    5      0.25      0.00
  -15   14    5     -0.73      0.00
  -14   14    5     -1.08      0.00
  -13   14    5     -0.56      0.00
  -12   14    5      0.08      0.00
  -11   14    5     -0.06      0.00
  -10   14    5     -1.40      0.00
   -9   14    5      0.51      0.00
   -8   14    5      0.04      0.00
   -7   14    5     -2.66      0.00
   -6   14    5      1.32      0.00
   -5   14    5      2.80      0.00
   -4   14    5      0.43      0.00
   -3   14    5      0.70      0.00
   -2   14    5      3.20      0.00
   -1   14    5      0.82      0.00
    0   14    5     -0.10      0.00
    1   14    5     -0.21      0.00
    2   14    5     -3.82      0.00
    3   14    5     -3.70      0.00
    4   14    5      0.28      0.00
    5   14    5      2.05      0.00
    6   14    5      1.10      0.00
    7   14    5     -1.01      0.00
    8   14    5     -0.35      0.00
    9   14    5      0.05      0.00
   10   14    5     -0.36      0.00
   11   14    5     -1.51      0.00
   12   14    5     -0.28      0.00
   13   14    5     -0.01      0.00
   14   14    5      0.09      0.00
  -16   15    5     -0.84      0.00
  -15   15    5     -0.05      0.00
  -14   15    5      0.11      0.00
  -13   15    5     -0.04      0.00
  -12   15    5     -0.53      0.00
  -11   15    5      1.62      0.00
  -10   15    5     -1.31      0.00
   -9   15    5     -1.99      0.00
   -8   15    5      0.90      0.00
   -7   15    5      0.17      0.00
   -6   15    5      0.00      0.00
   -5   15    5      1.66      0.00
   -4   15    5      0.44      0.00
   -3   15    5     -2.90      0.00
   -2   15    5      1.99      0.00
   -1   15    5      0.82      0.00
    0   15    5     -1.49      0.00
    1   15    5     -3.25      0.00
    2   15    5      1.74      0.00
    3   15    5      1.82      0.00
    4   15    5      1.89      0.00
    5   15    5      0.75      0.00
    6   15    5     -1.06      0.00
    7   15    5     -0.68      0.00
    8   15    5     -0.27      0.00
    9   15    5     -0.63      0.00
   10   15    5     -0.35      0.00
   11   15    5     -0.33      0.00
   12   15    5     -0.95      0.00
   13   15    5     -0.67      0.00
  -15   16    5      0.79      0.00
  -14   16    5      0.91      0.00
  -13   16    5     -0.05      0.00
  -12   16    5     -0.72      0.00
  -11   16    5      0.44      0.00
  -10   16    5      1.31      0.00
   -9   16    5     -0.13      0.00
   -8   16    5      0.48      0.00
   -7   16    5      2.17      0.00
   -6   16    5     -1.61      0.00
   -5   16    5     -2.09      0.00
   -4   16    5     -0.39      0.00
   -3   16    5      0.38      0.00
   -2   16    5     -2.11      0.00
   -1   16    5      1.07      0.00
    0   16    5     -0.40      0.00
    1   16    5      0.51      0.00
    2   16    5      3.39      0.00
    3   16    5      2.58      0.00
    4   16    5     -0.88      0.00
    5   16    5     -0.91      0.00
    6   16    5     -1.28      0.00
    7   16    5      1.14      0.00
    8   16    5      0.13      0.00
    9   16    5      0.86      0.00
   10   16    5      0.01      0.00
   11   16    5      0.30      0.00
   12   16    5      0.07      0.00
   13   16    5      0.58      0.00
  -14   17    5     -0.11      0.00
  -13   17    5     -0.46      0.00
  -12   17    5     -0.09      0.00
  -11   17    5     -1.02      0.00
  -10   17    5      1.01      0.00
   -9   17    5      1.13      0.00
   -8   17    5     -0.60      0.00
   -7   17    5     -0.91      0.00
   -6   17    5     -0.63      0.00
   -5   17    5     -0.60      0.00
   -4   17    5      0.32      0.00
   -3   17    5      2.02      0.00
   -2   17    5     -0.85      0.00
   -1   17    5     -1.04      0.00
    0   17    5      2.46      0.00
    1   17    5      2.37      0.00
    2   17    5     -0.72      0.00
    3   17    5     -0.48      0.00
    4   17    5     -0.32      0.00
    5   17    5     -0.82      0.00
    6   17    5      1.47      0.00
    7   17    5      0.24      0.00
    8   17    5      0.28      0.00
    9   17    5      0.61      0.00
   10   17    5      0.81      0.00
   11   17    5      0.02      0.00
   12   17    5      1.70      0.00
  -13   18    5      0.15      0.00
  -12   18    5      0.40      0.00
  -11   18    5     -0.94      0.00
  -10   18    5     -0.84      0.00
   -9   18    5     -0.33      0.00
   -8   18    5     -0.57      0.00
   -7   18    5     -1.16      0.00
   -6   18    5      1.50      0.00
   -5   18    5      1.36      0.00
   -4   18    5      0.69      0.00
   -3   18    5     -0.25      0.00
   -2   18    5      0.75      0.00
   -1   18    5     -0.62      0.00
    0   18    5      0.81      0.00
    1   18    5      0.52      0.00
    2   18    5     -2.44      0.00
    3   18    5     -0.95      0.00
    4   18    5      0.75      0.00
    5   18    5      0.74      0.00
    6   18    5      0.57      0.00
    7   18    5     -0.59      0.00
    8   18    5      0.10      0.00
    9   18    5     -1.06      0.00
   10   18    5      0.61      0.00
   11   18    5      0.48      0.00
  -11   19    5      0.30      0.00
  -10   19    5     -0.53      0.00
   -9   19    5     -0.81      0.00
   -8   19    5      0.22      0.00
   -7   19    5      0.37      0.00
   -6   19    5      0.40      0.00
   -5   19    5      0.26      0.00
   -4   19    5     -0.69      0.00
   -3   19    5     -1.85      0.00
   -2   19    5      1.19      0.00
   -1   19    5      0.69      0.00
    0   19    5     -1.99      0.00
    1   19    5     -1.61      0.00
    2   19    5      0.54      0.00
    3   19    5     -0.87      0.00
    4   19    5     -0.20      0.00
    5   19    5      1.18      0.00
    6   19    5     -1.28      0.00
    7   19    5     -0.12      0.00
    8   19    5     -0.17      0.00
    9   19    5     -0.33      0.00
  -10   20    5     -0.20      0.00
   -9   20    5      0.86      0.00
   -8   20    5      0.12      0.00
   -7   20    5     -0.42      0.00
   -6   20    5     -1.15      0.00
   -5   20    5     -0.72      0.00
   -4   20    5     -1.04      0.00
   -3   20    5     -0.06      0.00
   -2   20    5     -0.50      0.00
   -1   20    5     -0.05      0.00
    0   20    5     -0.78      0.00
    1   20    5     -0.68      0.00
    2   20    5      0.59      0.00
    3   20    5      0.11      0.00
    4   20    5     -0.56      0.00
    5   20    5     -0.60      0.00
    6   20    5      0.53      0.00
    7   20    5     -0.63      0.00
    8   20    5     -0.10      0.00
   -8   21    5      0.14      0.00
   -7   21    5      0.40      0.00
   -6   21    5     -0.82      0.00
   -5   21    5     -0.63      0.00
   -4   21    5      0.91      0.00
   -3   21    5      0.51      0.00
   -2   21    5     -1.31      0.00
   -1   21    5     -0.26      0.00
    0   21    5      1.16      0.00
    1   21    5      0.77      0.00
    2   21    5     -0.83      0.00
    3   21    5      0.92      0.00
    4   21    5     -0.09      0.00
    5   21    5     -0.75      0.00
    6   21    5      0.42      0.00
   -5   22    5      0.21      0.00
   -4   22    5      0.58      0.00
   -3   22    5      0.36      0.00
   -2   22    5      0.46      0.00
   -1   22    5      0.50      0.00
    0   22    5      0.61      0.00
    1   22    5      0.07      0.00
    2   22    5      0.85      0.00
  -20    0    6      0.88      0.00
  -18    0    6     -0.87      0.00
  -16    0    6     -2.79      0.00
  -14    0    6      0.24      0.00
  -12    0    6     -4.63      0.00
  -10    0    6      3.03      0.00
   -8    0    6     -8.98      0.00
   -6    0    6      0.80      0.00
   -4    0    6      9.37      0.00
   -2    0    6    -19.42      0.00
    0    0    6      0.01      0.00
    2    0    6    -13.13      0.00
    4    0    6     -2.68      0.00
    6    0    6      3.09      0.00
    8    0    6     -3.78      0.00
   10    0    6      0.95      0.00
   12    0    6     -1.29      0.00
   14    0    6      0.65      0.00
   16    0    6      0.61      0.00
   18    0    6      0.39      0.00
  -21    1    6      0.15      0.00
  -20    1    6      1.32      0.00
  -19    1    6      0.26      0.00
  -18    1    6     -3.23      0.00
  -17    1    6     -0.25      0.00
  -16    1    6     -0.08      0.00
  -15    1    6      0.09      0.00
  -14    1    6      2.09      0.00
  -13    1    6     -0.73      0.00
  -12    1    6      0.79      0.00
  -11    1    6     -1.62      0.00
  -10    1    6      1.66      0.00
   -9    1    6     -1.00      0.00
   -8    1    6      4.81      0.00
   -7    1    6     -2.07      0.00
   -6    1    6     22.82      0.00
   -5    1    6      1.55      0.00
   -4    1    6     -2.89      0.00
   -3    1    6     -4.71      0.00
   -2    1    6     10.26      0.00
   -1    1    6     -3.65      0.00
    0    1    6    -10.22      0.00
    1    1    6      1.42      0.00
    2    1    6     -1.27      0.00
    3    1    6      0.09      0.00
    4    1    6     13.57      0.00
    5    1    6     -2.13      0.00
    6    1    6    -14.36      0.00
    7    1    6      0.48      0.00
    8    1    6      2.03      0.00
    9    1    6      1.49      0.00
   10    1    6     -1.76      0.00
   11    1    6      0.07      0.00
   12    1    6     -2.15      0.00
   13    1    6      0.00      0.00
   14    1    6     -0.63      0.00
   15    1    6     -0.41      0.00
   16    1    6      1.24      0.00
   17    1    6      0.09      0.00
   18    1    6      0.03      0.00
  -21    2    6      0.34      0.00
  -20    2    6     -0.76      0.00
  -19    2    6     -0.52      0.00
  -18    2    6      1.00      0.00
  -17    2    6      1.06      0.00
  -16    2    6      2.10      0.00
  -15    2    6      0.61      0.00
  -14    2    6     -0.75      0.00
  -13    2    6     -0.53      0.00
  -12    2    6      3.54      0.00
  -11    2    6      0.80      0.00
  -10    2    6     -2.84      0.00
   -9    2    6      0.95      0.00
   -8    2    6      6.74      0.00
   -7    2    6      3.38      0.00
   -6    2    6     -4.24      0.00
   -5    2    6     -1.30      0.00
   -4    2    6     -9.84      0.00
   -3    2    6     -4.99      0.00
   -2    2    6     19.14      0.00
   -1    2    6      1.46      0.00
    0    2    6      0.06      0.00
    1    2    6      1.02      0.00
    2    2    6     13.81      0.00
    3    2    6     -2.57      0.00
    4    2    6     -2.24      0.00
    5    2    6     -6.84      0.00
    6    2    6     -1.43      0.00
    7    2    6      0.72      0.00
    8    2    6      3.47      0.00
    9    2    6      0.10      0.00
   10    2    6     -0.99      0.00
   11    2    6     -0.25      0.00
   12    2    6      1.63      0.00
   13    2    6      0.13      0.00
   14    2    6     -0.95      0.00
   15    2    6      0.52      0.00
   16    2    6     -0.46      0.00
   17    2    6     -0.34      0.00
   18    2    6     -0.44      0.00
  -21    3    6     -0.53      0.00
  -20    3    6     -0.88      0.00
  -19    3    6     -0.48      0.00
  -18    3    6      1.86      0.00
  -17    3    6      0.54      0.00
  -16    3    6     -0.27      0.00
  -15    3    6     -0.14      0.00
  -14    3    6     -1.00      0.00
  -13    3    6      1.19      0.00
  -12    3    6      0.05      0.00
  -11    3    6      3.02      0.00
  -10    3    6     -2.73      0.00
   -9    3    6      1.60      0.00
   -8    3    6     -4.48      0.00
   -7    3    6      2.86      0.00
   -6    3    6    -22.37      0.00
   -5    3    6     -4.12      0.00
   -4    3    6      4.83      0.00
   -3    3    6     11.13      0.00
   -2    3    6    -11.45      0.00
   -1    3    6     11.69      0.00
    0    3    6      5.27      0.00
    1    3    6     -0.03      0.00
    2    3    6      3.04      0.00
    3    3    6     -1.14      0.00
    4    3    6    -11.66      0.00
    5    3    6      3.89      0.00
    6    3    6     11.95      0.00
    7    3    6     -0.44      0.00
    8    3    6     -1.57      0.00
    9    3    6     -2.83      0.00
   10    3    6      1.39      0.00
   11    3    6      0.28      0.00
   12    3    6      2.38      0.00
   13    3    6      0.08      0.00
   14    3    6      0.26      0.00
   15    3    6      0.87      0.00
   16    3    6     -0.90      0.00
   17    3    6     -0.27      0.00
   18    3    6      0.08      0.00
  -21    4    6     -0.19      0.00
  -20    4    6      0.44      0.00
  -19    4    6      0.68      0.00
  -18    4    6     -1.07      0.00
  -17    4    6     -1.26      0.00
  -16    4    6     -0.63      0.00
  -15    4    6      0.15      0.00
  -14    4    6      1.20      0.00
  -13    4    6      0.37      0.00
  -12    4    6     -1.80      0.00
  -11    4    6     -1.82      0.00
  -10    4    6      2.39      0.00
   -9    4    6     -1.34      0.00
   -8    4    6     -3.16      0.00
   -7    4    6     -6.04      0.00
   -6    4    6      9.00      0.00
   -5    4    6     -3.03      0.00
   -4    4    6     10.94      0.00
   -3    4    6      3.10      0.00
   -2    4    6    -15.49      0.00
   -1    4    6     -4.71      0.00
    0    4    6      3.34      0.00
    1    4    6     -1.39      0.00
    2    4    6    -12.29      0.00
    3    4    6      5.23      0.00
    4    4    6      8.74      0.00
    5    4    6      9.53      0.00
    6    4    6     -1.70      0.00
    7    4    6     -1.85      0.00
    8    4    6     -2.43      0.00
    9    4    6      0.45      0.00
   10    4    6      1.14      0.00
   11    4    6      0.23      0.00
   12    4    6     -1.99      0.00
   13    4    6     -0.18      0.00
   14    4    6      1.62      0.00
   15    4    6     -0.63      0.00
   16    4    6      0.22      0.00
   17    4    6      0.42      0.00
   18    4    6      0.19      0.00
  -20    5    6      0.26      0.00
  -19    5    6      0.30      0.00
  -18    5    6     -0.25      0.00
  -17    5    6     -0.20      0.00
  -16    5    6      0.83      0.00
  -15    5    6     -0.34      0.00
  -14    5    6      0.46      0.00
  -13    5    6     -0.47      0.00
  -12    5    6     -1.09      0.00
  -11    5    6     -0.96      0.00
  -10    5    6      3.57      0.00
   -9    5    6      0.45      0.00
   -8    5    6      3.99      0.00
   -7    5    6     -0.48      0.00
   -6    5    6     17.80      0.00
   -5    5    6      4.75      0.00
   -4    5    6     -9.97      0.00
   -3    5    6    -10.02      0.00
   -2    5    6      7.59      0.00
   -1    5    6    -15.37      0.00
    0    5    6      1.97      0.00
    1    5    6     -5.08      0.00
    2    5    6     -1.39      0.00
    3    5    6      2.38      0.00
    4    5    6      9.93      0.00
    5    5    6     -3.81      0.00
    6    5    6     -8.52      0.00
    7    5    6     -1.29      0.00
    8    5    6      0.20      0.00
    9    5    6      2.70      0.00
   10    5    6     -0.17      0.00
   11    5    6     -0.81      0.00
   12    5    6     -2.34      0.00
   13    5    6      0.08      0.00
   14    5    6      0.26      0.00
   15    5    6     -0.63      0.00
   16    5    6      0.54      0.00
   17    5    6      0.27      0.00
   18    5    6     -0.64      0.00
  -20    6    6     -0.28      0.00
  -19    6    6     -0.48      0.00
  -18    6    6      0.73      0.00
  -17    6    6      0.41      0.00
  -16    6    6     -0.40      0.00
  -15    6    6     -0.89      0.00
  -14    6    6     -0.69      0.00
  -13    6    6      0.27      0.00
  -12    6    6      1.49      0.00
  -11    6    6      2.42      0.00
  -10    6    6     -1.42      0.00
   -9    6    6      1.29      0.00
   -8    6    6      1.88      0.00
   -7    6    6      6.91      0.00
   -6    6    6     -9.43      0.00
   -5    6    6      7.97      0.00
   -4    6    6    -11.65      0.00
   -3    6    6      0.33      0.00
   -2    6    6      9.37      0.00
   -1    6    6      6.90      0.00
    0    6    6     -9.13      0.00
    1    6    6      4.60      0.00
    2    6    6      5.94      0.00
    3    6    6     -3.42      0.00
    4    6    6     -9.08      0.00
    5    6    6     -8.18      0.00
    6    6    6      1.42      0.00
    7    6    6      1.67      0.00
    8    6    6      1.16      0.00
    9    6    6     -1.62      0.00
   10    6    6     -1.11      0.00
   11    6    6     -0.29      0.00
   12    6    6      1.83      0.00
   13    6    6     -0.05      0.00
   14    6    6     -1.79      0.00
   15    6    6      0.47      0.00
   16    6    6      0.01      0.00
   17    6    6     -0.04      0.00
   18    6    6      0.32      0.00
  -20    7    6      0.23      0.00
  -19    7    6     -0.34      0.00
  -18    7    6     -0.55      0.00
  -17    7    6     -0.47      0.00
  -16    7    6     -0.88      0.00
  -15    7    6      1.22      0.00
  -14    7    6     -0.58      0.00
  -13    7    6      0.15      0.00
  -12    7    6      0.81      0.00
  -11    7    6     -1.95      0.00
  -10    7    6     -2.94      0.00
   -9    7    6     -3.41      0.00
   -8    7    6     -2.05      0.00
   -7    7    6     -0.34      0.00
   -6    7    6    -10.32      0.00
   -5    7    6     -4.01      0.00
   -4    7    6     12.99      0.00
   -3    7    6      3.48      0.00
   -2    7    6     -1.05      0.00
   -1    7    6     10.60      0.00
    0    7    6     -4.57      0.00
    1    7    6      6.34      0.00
    2    7    6      0.39      0.00
    3    7    6     -2.49      0.00
    4    7    6     -7.95      0.00
    5    7    6      4.23      0.00
    6    7    6      4.73      0.00
    7    7    6      2.25      0.00
    8    7    6      0.02      0.00
    9    7    6     -1.86      0.00
   10    7    6     -1.14      0.00
   11    7    6      1.24      0.00
   12    7    6      1.15      0.00
   13    7    6     -0.42      0.00
   14    7    6     -0.35      0.00
   15    7    6      0.24      0.00
   16    7    6      0.07      0.00
   17    7    6     -0.02      0.00
  -20    8    6      0.54      0.00
  -19    8    6      0.02      0.00
  -18    8    6     -0.37      0.00
  -17    8    6      0.81      0.00
  -16    8    6      0.41      0.00
  -15    8    6      0.39      0.00
  -14    8    6      0.20      0.00
  -13    8    6     -1.20      0.00
  -12    8    6     -1.97      0.00
  -11    8    6     -2.18      0.00
  -10    8    6      0.23      0.00
   -9    8    6     -0.46      0.00
   -8    8    6     -2.43      0.00
   -7    8    6     -5.21      0.00
   -6    8    6      6.34      0.00
   -5    8    6     -8.80      0.00
   -4    8    6     10.85      0.00
   -3    8    6     -1.79      0.00
   -2    8    6     -5.76      0.00
   -1    8    6     -5.24      0.00
    0    8    6     10.35      0.00
    1    8    6     -6.68      0.00
    2    8    6     -0.14      0.00
    3    8    6     -0.50      0.00
    4    8    6      7.13      0.00
    5    8    6      5.76      0.00
    6    8    6      2.53      0.00
    7    8    6     -1.18      0.00
    8    8    6     -0.78      0.00
    9    8    6      1.66      0.00
   10    8    6      1.04      0.00
   11    8    6      0.32      0.00
   12    8    6     -1.24      0.00
   13    8    6      0.30      0.00
   14    8    6      1.06      0.00
   15    8    6     -0.10      0.00
   16    8    6     -0.32      0.00
   17    8    6     -0.27      0.00
  -19    9    6      0.79      0.00
  -18    9    6      0.38      0.00
  -17    9    6      0.54      0.00
  -16    9    6      0.30      0.00
  -15    9    6     -1.69      0.00
  -14    9    6      0.02      0.00
  -13    9    6     -0.18      0.00
  -12    9    6      0.76      0.00
  -11    9    6      2.47      0.00
  -10    9    6      1.71      0.00
   -9    9    6      4.25      0.00
   -8    9    6     -0.96      0.00
   -7    9    6     -0.29      0.00
   -6    9    6      4.52      0.00
   -5    9    6      3.79      0.00
   -4    9    6    -11.66      0.00
   -3    9    6      1.66      0.00
   -2    9    6     -2.91      0.00
   -1    9    6     -4.25      0.00
    0    9    6      1.93      0.00
    1    9    6     -3.89      0.00
    2    9    6     -2.09      0.00
    3    9    6      3.46      0.00
    4    9    6      5.93      0.00
    5    9    6     -2.27      0.00
    6    9    6     -1.99      0.00
    7    9    6     -1.49      0.00
    8    9    6      0.75      0.00
    9    9    6      1.25      0.00
   10    9    6      0.64      0.00
   11    9    6     -0.79      0.00
   12    9    6      0.74      0.00
   13    9    6      0.29      0.00
   14    9    6     -0.21      0.00
   15    9    6     -0.39      0.00
   16    9    6     -0.67      0.00
   17    9    6     -0.20      0.00
  -19   10    6      0.26      0.00
  -18   10    6      0.35      0.00
  -17   10    6     -1.43      0.00
  -16   10    6      0.08      0.00
  -15   10    6      0.26      0.00
  -14   10    6     -0.02      0.00
  -13   10    6      1.91      0.00
  -12   10    6      1.82      0.00
  -11   10    6      1.85      0.00
  -10   10    6     -0.12      0.00
   -9   10    6     -0.13      0.00
   -8   10    6      3.03      0.00
   -7   10    6      2.14      0.00
   -6   10    6     -1.53      0.00
   -5   10    6      6.01      0.00
   -4   10    6     -8.23      0.00
   -3   10    6      1.72      0.00
   -2   10    6      3.76      0.00
   -1   10    6      1.50      0.00
    0   10    6     -7.96      0.00
    1   10    6      4.00      0.00
    2   10    6     -0.43      0.00
    3   10    6      1.53      0.00
    4   10    6     -4.95      0.00
    5   10    6     -3.87      0.00
    6   10    6     -4.25      0.00
    7   10    6      1.45      0.00
    8   10    6      1.13      0.00
    9   10    6     -0.60      0.00
   10   10    6     -0.64      0.00
   11   10    6     -0.44      0.00
   12   10    6      0.51      0.00
   13   10    6      0.05      0.00
   14   10    6     -0.26      0.00
   15   10    6     -0.27      0.00
   16   10    6      0.50      0.00
  -18   11    6      0.00      0.00
  -17   11    6      0.11      0.00
  -16   11    6     -0.01      0.00
  -15   11    6      1.51      0.00
  -14   11    6      0.71      0.00
  -13   11    6     -0.12      0.00
  -12   11    6     -1.59      0.00
  -11   11    6     -0.99      0.00
  -10   11    6     -0.84      0.00
   -9   11    6     -2.41      0.00
   -8   11    6      2.98      0.00
   -7   11    6      0.68      0.00
   -6   11    6     -2.36      0.00
   -5   11    6     -2.65      0.00
   -4   11    6      8.56      0.00
   -3   11    6     -3.27      0.00
   -2   11    6      4.16      0.00
   -1   11    6      0.27      0.00
    0   11    6      0.25      0.00
    1   11    6      0.96      0.00
    2   11    6      1.96      0.00
    3   11    6     -4.87      0.00
    4   11    6     -4.84      0.00
    5   11    6     -0.82      0.00
    6   11    6      1.43      0.00
    7   11    6      1.21      0.00
    8   11    6     -0.60      0.00
    9   11    6     -1.22      0.00
   10   11    6      0.68      0.00
   11   11    6     -0.45      0.00
   12   11    6     -1.38      0.00
   13   11    6      0.16      0.00
   14   11    6      1.10      0.00
   15   11    6      0.69      0.00
   16   11    6      0.83      0.00
  -18   12    6     -0.28      0.00
  -17   12    6      1.05      0.00
  -16   12    6     -0.43      0.00
  -15   12    6     -0.55      0.00
  -14   12    6     -0.40      0.00
  -13   12    6     -1.56      0.00
  -12   12    6     -1.37      0.00
  -11   12    6     -1.50      0.00
  -10   12    6      0.86      0.00
   -9   12    6     -0.44      0.00
   -8   12    6     -2.71      0.00
   -7   12    6     -0.06      0.00
   -6   12    6     -1.72      0.00
   -5   12    6     -1.94      0.00
   -4   12    6      5.10      0.00
   -3   12    6      0.51      0.00
   -2   12    6     -2.63      0.00
   -1   12    6      1.16      0.00
    0   12    6      4.81      0.00
    1   12    6     -1.73      0.00
    2   12    6     -1.88      0.00
    3   12    6     -1.16      0.00
    4   12    6      2.06      0.00
    5   12    6      2.74      0.00
    6   12    6      2.64      0.00
    7   12    6     -1.06      0.00
    8   12    6     -1.08      0.00
    9   12    6     -0.09      0.00
   10   12    6     -0.61      0.00
   11   12    6      0.57      0.00
   12   12    6     -0.24      0.00
   13   12    6     -0.49      0.00
   14   12    6     -0.10      0.00
   15   12    6      0.51      0.00
  -17   13    6     -0.50      0.00
  -16   13    6      0.09      0.00
  -15   13    6     -1.23      0.00
  -14   13    6     -0.33      0.00
  -13   13    6      0.18      0.00
  -12   13    6      1.13      0.00
  -11   13    6     -0.66      0.00
  -10   13    6      0.52      0.00
   -9   13    6      0.38      0.00
   -8   13    6     -3.03      0.00
   -7   13    6     -0.08      0.00
   -6   13    6      2.40      0.00
   -5   13    6      0.42      0.00
   -4   13    6     -4.34      0.00
   -3   13    6      2.68      0.00
   -2   13    6     -3.10      0.00
   -1   13    6      1.58      0.00
    0   13    6     -0.52      0.00
    1   13    6      0.87      0.00
    2   13    6     -0.74      0.00
    3   13    6      4.69      0.00
    4   13    6      3.73      0.00
    5   13    6      1.28      0.00
    6   13    6     -1.45      0.00
    7   13    6     -1.55      0.00
    8   13    6      0.20      0.00
    9   13    6      1.14      0.00
   10   13    6     -0.64      0.00
   11   13    6      0.46      0.00
   12   13    6      0.35      0.00
   13   13    6     -0.47      0.00
   14   13    6     -1.33      0.00
   15   13    6     -0.64      0.00
  -17   14    6     -0.41      0.00
  -16   14    6      0.63      0.00
  -15   14    6      0.90      0.00
  -14   14    6      0.43      0.00
  -13   14    6      0.48      0.00
  -12   14    6      0.91      0.00
  -11   14    6      0.95      0.00
  -10   14    6     -1.00      0.00
   -9   14    6      1.15      0.00
   -8   14    6      2.24      0.00
   -7   14    6     -0.51      0.00
   -6   14    6      1.52      0.00
   -5   14    6     -0.37      0.00
   -4   14    6     -2.88      0.00
   -3   14    6     -1.88      0.00
   -2   14    6      3.25      0.00
   -1   14    6     -2.02      0.00
    0   14    6     -1.29      0.00
    1   14    6      1.81      0.00
    2   14    6      3.14      0.00
    3   14    6      0.91      0.00
    4   14    6     -0.39      0.00
    5   14    6     -2.51      0.00
    6   14    6     -1.00      0.00
    7   14    6      0.24      0.00
    8   14    6      1.09      0.00
    9   14    6      0.54      0.00
   10   14    6      1.46      0.00
   11   14    6     -0.49      0.00
   12   14    6      0.32      0.00
   13   14    6      0.34      0.00
   14   14    6      0.17      0.00
  -16   15    6      0.05      0.00
  -15   15    6      1.01      0.00
  -14   15    6     -0.45      0.00
  -13   15    6     -0.32      0.00
  -12   15    6     -0.48      0.00
  -11   15    6      1.35      0.00
  -10   15    6     -0.88      0.00
   -9   15    6      0.34      0.00
   -8   15    6      1.63      0.00
   -7   15    6     -0.93      0.00
   -6   15    6     -2.29      0.00
   -5   15    6      0.55      0.00
   -4   15    6      1.48      0.00
   -3   15    6     -0.85      0.00
   -2   15    6      1.05      0.00
   -1   15    6     -0.67      0.00
    0   15    6      0.15      0.00
    1   15    6     -0.49      0.00
    2   15    6      0.55      0.00
    3   15    6     -3.58      0.00
    4   15    6     -2.63      0.00
    5   15    6      0.13      0.00
    6   15    6      0.76      0.00
    7   15    6      1.33      0.00
    8   15    6     -0.07      0.00
    9   15    6     -0.46      0.00
   10   15    6      0.11      0.00
   11   15    6      1.06      0.00
   12   15    6      0.55      0.00
   13   15    6      0.45      0.00
  -15   16    6     -0.77      0.00
  -14   16    6      0.03      0.00
  -13   16    6      0.18      0.00
  -12   16    6     -0.59      0.00
  -11   16    6     -0.66      0.00
  -10   16    6      0.27      0.00
   -9   16    6     -1.57      0.00
   -8   16    6     -1.99      0.00
   -7   16    6      0.43      0.00
   -6   16    6     -0.29      0.00
   -5   16    6      0.99      0.00
   -4   16    6      1.68      0.00
   -3   16    6      0.51      0.00
   -2   16    6     -3.18      0.00
   -1   16    6      1.86      0.00
    0   16    6     -0.11      0.00
    1   16    6     -1.84      0.00
    2   16    6     -2.75      0.00
    3   16    6     -0.62      0.00
    4   16    6      0.34      0.00
    5   16    6      2.29      0.00
    6   16    6      0.36      0.00
    7   16    6     -0.01      0.00
    8   16    6     -1.59      0.00
    9   16    6     -0.47      0.00
   10   16    6     -0.78      0.00
   11   16    6      0.40      0.00
   12   16    6     -0.25      0.00
  -14   17    6      0.66      0.00
  -13   17    6      0.83      0.00
  -12   17    6     -0.03      0.00
  -11   17    6     -0.95      0.00
  -10   17    6      0.81      0.00
   -9   17    6     -0.30      0.00
   -8   17    6     -0.43      0.00
   -7   17    6      0.94      0.00
   -6   17    6      1.47      0.00
   -5   17    6     -0.65      0.00
   -4   17    6     -1.59      0.00
   -3   17    6     -0.30      0.00
   -2   17    6     -0.35      0.00
   -1   17    6     -0.36      0.00
    0   17    6      0.36      0.00
    1   17    6     -0.72      0.00
    2   17    6     -0.74      0.00
    3   17    6      2.33      0.00
    4   17    6      2.00      0.00
    5   17    6     -1.24      0.00
    6   17    6      0.12      0.00
    7   17    6     -1.07      0.00
    8   17    6     -0.23      0.00
    9   17    6     -0.24      0.00
   10   17    6      0.02      0.00
   11   17    6     -1.95      0.00
  -13   18    6     -0.04      0.00
  -12   18    6      0.60      0.00
  -11   18    6      0.31      0.00
  -10   18    6      0.77      0.00
   -9   18    6      1.38      0.00
   -8   18    6      0.99      0.00
   -7   18    6     -0.20      0.00
   -6   18    6     -0.49      0.00
   -5   18    6     -1.61      0.00
   -4   18    6     -1.12      0.00
   -3   18    6      0.58      0.00
   -2   18    6      1.85      0.00
   -1   18    6     -1.42      0.00
    0   18    6     -0.60      0.00
    1   18    6      1.49      0.00
    2   18    6      1.79      0.00
    3   18    6      0.32      0.00
    4   18    6     -0.69      0.00
    5   18    6     -1.10      0.00
    6   18    6     -0.93      0.00
    7   18    6      0.13      0.00
    8   18    6      1.60      0.00
    9   18    6     -0.25      0.00
   10   18    6     -0.14      0.00
  -11   19    6      0.44      0.00
  -10   19    6     -0.21      0.00
   -9   19    6      0.26      0.00
   -8   19    6      0.22      0.00
   -7   19    6     -0.68      0.00
   -6   19    6     -0.46      0.00
   -5   19    6      0.98      0.00
   -4   19    6      1.42      0.00
   -3   19    6      0.15      0.00
   -2   19    6      0.61      0.00
   -1   19    6     -0.17      0.00
    0   19    6     -0.20      0.00
    1   19    6      0.87      0.00
    2   19    6      0.93      0.00
    3   19    6     -1.04      0.00
    4   19    6     -1.26      0.00
    5   19    6      0.93      0.00
    6   19    6     -0.56      0.00
    7   19    6      0.64      0.00
    8   19    6      0.50      0.00
    9   19    6      0.30      0.00
  -10   20    6     -1.27      0.00
   -9   20    6     -0.37      0.00
   -8   20    6      0.07      0.00
   -7   20    6      0.17      0.00
   -6   20    6      0.84      0.00
   -5   20    6      1.78      0.00
   -4   20    6      1.02      0.00
   -3   20    6     -0.53      0.00
   -2   20    6     -0.93      0.00
   -1   20    6      1.22      0.00
    0   20    6      0.85      0.00
    1   20    6     -0.62      0.00
    2   20    6     -0.96      0.00
    3   20    6      0.50      0.00
    4   20    6      0.47      0.00
    5   20    6     -0.30      0.00
    6   20    6      1.74      0.00
    7   20    6     -0.39      0.00
   -8   21    6     -0.04      0.00
   -7   21    6      0.82      0.00
   -6   21    6     -0.33      0.00
   -5   21    6     -0.83      0.00
   -4   21    6     -0.01      0.00
   -3   21    6      0.00      0.00
   -2   21    6     -0.37      0.00
   -1   21    6      0.36      0.00
    0   21    6     -0.11      0.00
    1   21    6     -0.26      0.00
    2   21    6     -0.20      0.00
    3   21    6      0.14      0.00
    4   21    6      0.62      0.00
    5   21    6      0.16      0.00
   -4   22    6     -0.98      0.00
   -3   22    6      0.55      0.00
   -2   22    6      0.22      0.00
   -1   22    6     -1.10      0.00
    0   22    6     -0.61      0.00
    1   22    6     -0.20      0.00
  -21    0    7      0.64      0.00
  -19    0    7     -1.78      0.00
  -17    0    7      3.72      0.00
  -15    0    7      1.27      0.00
  -13    0    7     -0.53      0.00
  -11    0    7      1.19      0.00
   -9    0    7     -1.58      0.00
   -7    0    7      2.33      0.00
   -5    0    7    -20.25      0.00
   -3    0    7      9.92      0.00
   -1    0    7      1.61      0.00
    1    0    7      1.64      0.00
    3    0    7     13.17      0.00
    5    0    7     -7.90      0.00
    7    0    7      5.20      0.00
    9    0    7      0.53      0.00
   11    0    7      0.82      0.00
   13    0    7      0.73      0.00
   15    0    7      0.40      0.00
   17    0    7     -1.42      0.00
  -21    1    7     -0.89      0.00
  -20    1    7     -0.20      0.00
  -19    1    7      2.14      0.00
  -18    1    7      0.32      0.00
  -17    1    7      0.04      0.00
  -16    1    7     -0.20      0.00
  -15    1    7     -2.98      0.00
  -14    1    7      0.23      0.00
  -13    1    7      1.16      0.00
  -12    1    7      1.55      0.00
  -11    1    7     -4.01      0.00
  -10    1    7      0.37      0.00
   -9    1    7     -1.54      0.00
   -8    1    7      1.19      0.00
   -7    1    7     -9.50      0.00
   -6    1    7     -1.73      0.00
   -5    1    7    -10.69      0.00
   -4    1    7     -0.02      0.00
   -3    1    7      3.35      0.00
   -2    1    7      3.52      0.00
   -1    1    7    -12.75      0.00
    0    1    7     -0.74      0.00
    1    1    7      8.37      0.00
    2    1    7     -0.43      0.00
    3    1    7     -9.17      0.00
    4    1    7      1.64      0.00
    5    1    7      6.23      0.00
    6    1    7      0.64      0.00
    7    1    7      5.67      0.00
    8    1    7     -1.35      0.00
    9    1    7      1.80      0.00
   10    1    7     -0.16      0.00
   11    1    7      2.58      0.00
   12    1    7     -0.04      0.00
   13    1    7      0.42      0.00
   14    1    7      0.61      0.00
   15    1    7     -0.27      0.00
   16    1    7     -0.14      0.00
   17    1    7      0.01      0.00
   18    1    7      0.22      0.00
  -21    2    7     -0.25      0.00
  -20    2    7      0.27      0.00
  -19    2    7      1.36      0.00
  -18    2    7     -0.79      0.00
  -17    2    7     -3.24      0.00
  -16    2    7     -1.12      0.00
  -15    2    7     -0.76      0.00
  -14    2    7      0.28      0.00
  -13    2    7      1.29      0.00
  -12    2    7     -0.16      0.00
  -11    2    7     -1.19      0.00
  -10    2    7     -0.95      0.00
   -9    2    7      2.43      0.00
   -8    2    7     -2.16      0.00
   -7    2    7      0.36      0.00
   -6    2    7     -0.52      0.00
   -5    2    7     20.67      0.00
   -4    2    7      4.56      0.00
   -3    2    7    -10.22      0.00
   -2    2    7     -3.65      0.00
   -1    2    7     -1.71      0.00
    0    2    7     -2.50      0.00
    1    2    7     -1.59      0.00
    2    2    7     -1.89      0.00
    3    2    7     -9.26      0.00
    4    2    7      6.06      0.00
    5    2    7      7.64      0.00
    6    2    7      2.20      0.00
    7    2    7     -5.34      0.00
    8    2    7     -1.16      0.00
    9    2    7     -0.45      0.00
   10    2    7      1.72      0.00
   11    2    7     -0.83      0.00
   12    2    7     -0.50      0.00
   13    2    7     -0.65      0.00
   14    2    7     -0.03      0.00
   15    2    7     -0.32      0.00
   16    2    7     -0.09      0.00
   17    2    7      1.35      0.00
   18    2    7      1.12      0.00
  -21    3    7      0.42      0.00
  -20    3    7      0.52      0.00
  -19    3    7     -0.85      0.00
  -18    3    7     -0.64      0.00
  -17    3    7      0.20      0.00
  -16    3    7      0.44      0.00
  -15    3    7      2.18      0.00
  -14    3    7     -0.37      0.00
  -13    3    7     -1.85      0.00
  -12    3    7     -2.59      0.00
  -11    3    7      3.93      0.00
  -10    3    7     -0.39      0.00
   -9    3    7      1.81      0.00
   -8    3    7     -1.15      0.00
   -7    3    7      9.84      0.00
   -6    3    7      5.42      0.00
   -5    3    7      8.66      0.00
   -4    3    7      0.61      0.00
   -3    3    7     -4.10      0.00
   -2    3    7     -9.78      0.00
   -1    3    7     14.27      0.00
    0    3    7     -0.70      0.00
    1    3    7     -8.70      0.00
    2    3    7      0.57      0.00
    3    3    7      7.44      0.00
    4    3    7     -2.43      0.00
    5    3    7     -5.93      0.00
    6    3    7     -2.20      0.00
    7    3    7     -3.70      0.00
    8    3    7      2.79      0.00
    9    3    7     -1.46      0.00
   10    3    7     -0.14      0.00
   11    3    7     -2.58      0.00
   12    3    7     -0.08      0.00
   13    3    7      0.20      0.00
   14    3    7     -1.40      0.00
   15    3    7     -0.09      0.00
   16    3    7      0.20      0.00
   17    3    7     -0.05      0.00
   18    3    7     -0.37      0.00
  -21    4    7     -0.41      0.00
  -20    4    7     -0.33      0.00
  -19    4    7     -0.54      0.00
  -18    4    7      1.11      0.00
  -17    4    7      2.05      0.00
  -16    4    7      0.54      0.00
  -15    4    7     -0.04      0.00
  -14    4    7     -0.59      0.00
  -13    4    7     -1.95      0.00
  -12    4    7      0.76      0.00
  -11    4    7      1.33      0.00
  -10    4    7      1.57      0.00
   -9    4    7     -3.73      0.00
   -8    4    7      2.69      0.00
   -7    4    7     -3.65      0.00
   -6    4    7      3.74      0.00
   -5    4    7    -19.99      0.00
   -4    4    7     -2.14      0.00
   -3    4    7      8.82      0.00
   -2    4    7      6.77      0.00
   -1    4    7     -0.23      0.00
    0    4    7      4.97      0.00
    1    4    7     -1.63      0.00
    2    4    7      1.48      0.00
    3    4    7      2.85      0.00
    4    4    7     -9.17      0.00
    5    4    7     -5.76      0.00
    6    4    7     -2.29      0.00
    7    4    7      4.71      0.00
    8    4    7      1.41      0.00
    9    4    7      0.49      0.00
   10    4    7     -2.50      0.00
   11    4    7      0.63      0.00
   12    4    7      0.71      0.00
   13    4    7      0.21      0.00
   14    4    7      0.12      0.00
   15    4    7      0.02      0.00
   16    4    7     -0.12      0.00
   17    4    7     -0.90      0.00
   18    4    7     -0.99      0.00
  -21    5    7      0.09      0.00
  -20    5    7     -0.74      0.00
  -19    5    7     -0.35      0.00
  -18    5    7      0.18      0.00
  -17    5    7     -0.58      0.00
  -16    5    7     -0.24      0.00
  -15    5    7     -2.00      0.00
  -14    5    7      0.37      0.00
  -13    5    7      2.23      0.00
  -12    5    7      0.55      0.00
  -11    5    7     -3.12      0.00
  -10    5    7     -1.45      0.00
   -9    5    7     -2.32      0.00
   -8    5    7     -1.48      0.00
   -7    5    7     -8.60      0.00
   -6    5    7     -7.37      0.00
   -5    5    7     -3.06      0.00
   -4    5    7     -2.62      0.00
   -3    5    7      8.43      0.00
   -2    5    7     10.50      0.00
   -1    5    7    -14.29      0.00
    0    5    7      3.36      0.00
    1    5    7      6.18      0.00
    2    5    7      0.09      0.00
    3    5    7     -6.20      0.00
    4    5    7      1.38      0.00
    5    5    7      4.21      0.00
    6    5    7      4.49      0.00
    7    5    7      2.87      0.00
    8    5    7     -2.42      0.00
    9    5    7      0.10      0.00
   10    5    7      0.56      0.00
   11    5    7      2.36      0.00
   12    5    7      0.34      0.00
   13    5    7     -0.77      0.00
   14    5    7      1.07      0.00
   15    5    7      0.18      0.00
   16    5    7      0.08      0.00
   17    5    7      0.32      0.00
  -20    6    7      0.27      0.00
  -19    6    7      0.09      0.00
  -18    6    7     -0.72      0.00
  -17    6    7     -0.95      0.00
  -16    6    7      0.72      0.00
  -15    6    7      0.37      0.00
  -14    6    7      0.13      0.00
  -13    6    7      1.00      0.00
  -12    6    7     -1.04      0.00
  -11    6    7     -1.90      0.00
  -10    6    7     -1.32      0.00
   -9    6    7      3.54      0.00
   -8    6    7     -1.92      0.00
   -7    6    7      2.79      0.00
   -6    6    7     -6.82      0.00
   -5    6    7     16.67      0.00
   -4    6    7     -1.70      0.00
   -3    6    7     -5.48      0.00
   -2    6    7     -6.77      0.00
   -1    6    7      2.65      0.00
    0    6    7     -7.30      0.00
    1    6    7      7.65      0.00
    2    6    7     -2.61      0.00
    3    6    7      0.38      0.00
    4    6    7      7.74      0.00
    5    6    7      4.28      0.00
    6    6    7      1.80      0.00
    7    6    7     -2.23      0.00
    8    6    7     -0.19      0.00
    9    6    7     -0.73      0.00
   10    6    7      2.43      0.00
   11    6    7     -0.41      0.00
   12    6    7     -0.27      0.00
   13    6    7      0.33      0.00
   14    6    7     -0.22      0.00
   15    6    7      0.06      0.00
   16    6    7      0.11      0.00
   17    6    7      0.14      0.00
  -20    7    7      1.06      0.00
  -19    7    7      0.56      0.00
  -18    7    7      0.81      0.00
  -17    7    7      0.69      0.00
  -16    7    7     -0.35      0.00
  -15    7    7      2.06      0.00
  -14    7    7     -0.66      0.00
  -13    7    7     -1.37      0.00
  -12    7    7      1.50      0.00
  -11    7    7      2.30      0.00
  -10    7    7      4.09      0.00
   -9    7    7      1.88      0.00
   -8    7    7      2.97      0.00
   -7    7    7      5.22      0.00
   -6    7    7      6.38      0.00
   -5    7    7     -1.73      0.00
   -4    7    7      5.19      0.00
   -3    7    7    -12.07      0.00
   -2    7    7     -4.71      0.00
   -1    7    7     10.59      0.00
    0    7    7     -2.38      0.00
    1    7    7     -4.67      0.00
    2    7    7     -0.10      0.00
    3    7    7      3.89      0.00
    4    7    7     -1.09      0.00
    5    7    7     -1.43      0.00
    6    7    7     -5.62      0.00
    7    7    7     -2.49      0.00
    8    7    7      1.80      0.00
    9    7    7      1.83      0.00
   10    7    7     -1.04      0.00
   11    7    7     -1.49      0.00
   12    7    7     -0.35      0.00
   13    7    7      0.94      0.00
   14    7    7     -0.24      0.00
   15    7    7     -0.16      0.00
   16    7    7     -0.59      0.00
   17    7    7     -0.93      0.00
  -20    8    7     -0.15      0.00
  -19    8    7      0.08      0.00
  -18    8    7      0.01      0.00
  -17    8    7      0.52      0.00
  -16    8    7     -1.23      0.00
  -15    8    7     -0.33      0.00
  -14    8    7      1.27      0.00
  -13    8    7      0.17      0.00
  -12    8    7      0.99      0.00
  -11    8    7      2.04      0.00
  -10    8    7      0.21      0.00
   -9    8    7     -1.78      0.00
   -8    8    7      0.54      0.00
   -7    8    7      0.68      0.00
   -6    8    7      6.73      0.00
   -5    8    7    -11.70      0.00
   -4    8    7      2.73      0.00
   -3    8    7      3.41      0.00
   -2    8    7      4.26      0.00
   -1    8    7     -1.72      0.00
    0    8    7      5.80      0.00
    1    8    7     -9.51      0.00
    2    8    7      3.72      0.00
    3    8    7     -1.31      0.00
    4    8    7     -4.85      0.00
    5    8    7     -5.59      0.00
    6    8    7     -1.53      0.00
    7    8    7     -0.01      0.00
    8    8    7     -0.33      0.00
    9    8    7      0.56      0.00
   10    8    7     -1.82      0.00
   11    8    7      0.39      0.00
   12    8    7     -0.44      0.00
   13    8    7     -0.66      0.00
   14    8    7      0.32      0.00
   15    8    7      0.48      0.00
   16    8    7      0.00      0.00
   17    8    7      0.45      0.00
  -19    9    7      0.07      0.00
  -18    9    7     -1.13      0.00
  -17    9    7     -0.47      0.00
  -16    9    7      1.03      0.00
  -15    9    7     -1.24      0.00
  -14    9    7      0.57      0.00
  -13    9    7      0.13      0.00
  -12    9    7     -1.76      0.00
  -11    9    7     -2.50      0.00
  -10    9    7     -4.54      0.00
   -9    9    7     -0.47      0.00
   -8    9    7     -2.35      0.00
   -7    9    7     -1.66      0.00
   -6    9    7     -4.38      0.00
   -5    9    7      2.24      0.00
   -4    9    7     -6.11      0.00
   -3    9    7     12.00      0.00
   -2    9    7     -0.58      0.00
   -1    9    7     -5.34      0.00
    0    9    7      0.61      0.00
    1    9    7      5.14      0.00
    2    9    7     -1.07      0.00
    3    9    7     -1.38      0.00
    4    9    7     -0.90      0.00
    5    9    7     -0.58      0.00
    6    9    7      3.83      0.00
    7    9    7      1.61      0.00
    8    9    7     -1.60      0.00
    9    9    7     -1.91      0.00
   10    9    7      0.68      0.00
   11    9    7      0.23      0.00
   12    9    7      0.23      0.00
   13    9    7     -0.51      0.00
   14    9    7      0.09      0.00
   15    9    7      0.31      0.00
   16    9    7      1.11      0.00
  -19   10    7     -0.47      0.00
  -18   10    7      0.40      0.00
  -17   10    7     -0.23      0.00
  -16   10    7      1.13      0.00
  -15   10    7     -0.06      0.00
  -14   10    7     -2.19      0.00
  -13   10    7     -0.55      0.00
  -12   10    7     -1.24      0.00
  -11   10    7     -0.90      0.00
  -10   10    7      0.17      0.00
   -9   10    7      0.19      0.00
   -8   10    7      0.30      0.00
   -7   10    7     -4.09      0.00
   -6   10    7     -3.99      0.00
   -5   10    7      6.33      0.00
   -4   10    7     -1.77      0.00
   -3   10    7     -2.56      0.00
   -2   10    7     -1.40      0.00
   -1   10    7      0.40      0.00
    0   10    7     -0.81      0.00
    1   10    7      6.24      0.00
    2   10    7     -1.99      0.00
    3   10    7      0.57      0.00
    4   10    7      3.32      0.00
    5   10    7      5.89      0.00
    6   10    7      1.09      0.00
    7   10    7     -0.03      0.00
    8   10    7     -0.61      0.00
    9   10    7     -0.08      0.00
   10   10    7      1.69      0.00
   11   10    7     -0.53      0.00
   12   10    7      0.48      0.00
   13   10    7      0.73      0.00
   14   10    7     -0.63      0.00
   15   10    7     -0.92      0.00
   16   10    7      0.11      0.00
  -18   11    7      0.43      0.00
  -17   11    7      0.36      0.00
  -16   11    7     -1.36      0.00
  -15   11    7      0.55      0.00
  -14   11    7     -0.12      0.00
  -13   11    7      0.18      0.00
  -12   11    7      1.13      0.00
  -11   11    7      2.67      0.00
  -10   11    7      2.35      0.00
   -9   11    7     -0.91      0.00
   -8   11    7      1.05      0.00
   -7   11    7     -0.05      0.00
   -6   11    7      2.05      0.00
   -5   11    7     -0.12      0.00
   -4   11    7      4.48      0.00
   -3   11    7     -9.97      0.00
   -2   11    7      2.63      0.00
   -1   11    7      2.15      0.00
    0   11    7      0.52      0.00
    1   11    7     -3.62      0.00
    2   11    7      2.24      0.00
    3   11    7      1.26      0.00
    4   11    7      3.53      0.00
    5   11    7      0.99      0.00
    6   11    7     -2.02      0.00
    7   11    7     -1.25      0.00
    8   11    7      1.13      0.00
    9   11    7      0.61      0.00
   10   11    7      0.77      0.00
   11   11    7      0.70      0.00
   12   11    7     -0.28      0.00
   13   11    7     -0.73      0.00
   14   11    7     -0.40      0.00
   15   11    7     -0.56      0.00
  -18   12    7     -0.35      0.00
  -17   12    7     -0.27      0.00
  -16   12    7     -0.56      0.00
  -15   12    7      0.82      0.00
  -14   12    7      1.89      0.00
  -13   12    7      0.65      0.00
  -12   12    7      1.11      0.00
  -11   12    7     -0.22      0.00
  -10   12    7      0.44      0.00
   -9   12    7      0.12      0.00
   -8   12    7      0.09      0.00
   -7   12    7      5.16      0.00
   -6   12    7      0.95      0.00
   -5   12    7     -2.67      0.00
   -4   12    7     -0.39      0.00
   -3   12    7      2.04      0.00
   -2   12    7     -1.19      0.00
   -1   12    7      0.48      0.00
    0   12    7     -1.92      0.00
    1   12    7     -2.26      0.00
    2   12    7      0.69      0.00
    3   12    7      1.19      0.00
    4   12    7     -2.59      0.00
    5   12    7     -3.68      0.00
    6   12    7     -1.09      0.00
    7   12    7      0.69      0.00
    8   12    7      1.19      0.00
    9   12    7      0.31      0.00
   10   12    7     -1.71      0.00
   11   12    7      0.87      0.00
   12   12    7     -0.04      0.00
   13   12    7     -0.26      0.00
   14   12    7      0.59      0.00
   15   12    7      0.63      0.00
  -17   13    7     -0.31      0.00
  -16   13    7      1.17      0.00
  -15   13    7     -0.84      0.00
  -14   13    7      0.18      0.00
  -13   13    7      0.15      0.00
  -12   13    7     -0.16      0.00
  -11   13    7     -2.25      0.00
  -10   13    7     -0.07      0.00
   -9   13    7      1.36      0.00
   -8   13    7     -0.55      0.00
   -7   13    7     -0.06      0.00
   -6   13    7     -0.37      0.00
   -5   13    7     -2.08      0.00
   -4   13    7     -1.72      0.00
   -3   13    7      6.17      0.00
   -2   13    7     -2.57      0.00
   -1   13    7     -1.65      0.00
    0   13    7     -1.39      0.00
    1   13    7      1.43      0.00
    2   13    7     -2.57      0.00
    3   13    7     -1.83      0.00
    4   13    7     -3.52      0.00
    5   13    7     -0.74      0.00
    6   13    7      2.02      0.00
    7   13    7      0.91      0.00
    8   13    7     -0.64      0.00
    9   13    7     -0.44      0.00
   10   13    7     -1.30      0.00
   11   13    7     -0.69      0.00
   12   13    7      0.95      0.00
   13   13    7      1.63      0.00
   14   13    7      0.45      0.00
  -16   14    7     -0.21      0.00
  -15   14    7     -1.20      0.00
  -14   14    7     -1.19      0.00
  -13   14    7     -0.12      0.00
  -12   14    7     -0.27      0.00
  -11   14    7      0.10      0.00
  -10   14    7     -1.00      0.00
   -9   14    7     -0.04      0.00
   -8   14    7     -0.78      0.00
   -7   14    7     -3.88      0.00
   -6   14    7      0.55      0.00
   -5   14    7      1.55      0.00
   -4   14    7      1.21      0.00
   -3   14    7     -1.96      0.00
   -2   14    7      1.89      0.00
   -1   14    7     -2.42      0.00
    0   14    7      1.75      0.00
    1   14    7     -0.07      0.00
    2   14    7     -0.84      0.00
    3   14    7     -1.81      0.00
    4   14    7      2.36      0.00
    5   14    7      1.98      0.00
    6   14    7      1.24      0.00
    7   14    7     -0.90      0.00
    8   14    7     -1.20      0.00
    9   14    7     -1.12      0.00
   10   14    7      0.91      0.00
   11   14    7     -0.81      0.00
   12   14    7     -0.19      0.00
   13   14    7     -0.35      0.00
  -16   15    7     -0.86      0.00
  -15   15    7      1.04      0.00
  -14   15    7     -0.17      0.00
  -13   15    7     -0.47      0.00
  -12   15    7     -0.38      0.00
  -11   15    7      1.98      0.00
  -10   15    7     -0.65      0.00
   -9   15    7     -0.60      0.00
   -8   15    7      0.69      0.00
   -7   15    7      0.77      0.00
   -6   15    7      0.30      0.00
   -5   15    7      2.00      0.00
   -4   15    7     -0.31      0.00
   -3   15    7     -2.59      0.00
   -2   15    7      1.00      0.00
   -1   15    7      2.19      0.00
    0   15    7      0.45      0.00
    1   15    7     -0.47      0.00
    2   15    7      2.34      0.00
    3   15    7      1.90      0.00
    4   15    7      1.91      0.00
    5   15    7      0.66      0.00
    6   15    7     -2.39      0.00
    7   15    7     -0.20      0.00
    8   15    7      0.42      0.00
    9   15    7      0.68      0.00
   10   15    7      0.09      0.00
   11   15    7     -0.08      0.00
   12   15    7     -1.66      0.00
   13   15    7     -1.00      0.00
  -15   16    7      0.95      0.00
  -14   16    7      0.55      0.00
  -13   16    7     -0.61      0.00
  -12   16    7     -0.30      0.00
  -11   16    7      0.87      0.00
  -10   16    7      1.50      0.00
   -9   16    7      0.15      0.00
   -8   16    7      1.15      0.00
   -7   16    7      2.13      0.00
   -6   16    7     -0.95      0.00
   -5   16    7     -1.25      0.00
   -4   16    7     -0.29      0.00
   -3   16    7      1.60      0.00
   -2   16    7     -0.50      0.00
   -1   16    7      2.64      0.00
    0   16    7     -1.41      0.00
    1   16    7      0.65      0.00
    2   16    7      1.07      0.00
    3   16    7      1.21      0.00
    4   16    7     -2.16      0.00
    5   16    7     -1.77      0.00
    6   16    7     -0.72      0.00
    7   16    7      1.21      0.00
    8   16    7      0.90      0.00
    9   16    7      1.36      0.00
   10   16    7     -0.24      0.00
   11   16    7      0.11      0.00
   12   16    7      0.30      0.00
  -14   17    7     -0.26      0.00
  -13   17    7      0.53      0.00
  -12   17    7     -0.05      0.00
  -11   17    7     -1.35      0.00
  -10   17    7      0.45      0.00
   -9   17    7     -0.08      0.00
   -8   17    7     -0.67      0.00
   -7   17    7     -0.82      0.00
   -6   17    7     -0.21      0.00
   -5   17    7     -0.25      0.00
   -4   17    7      1.17      0.00
   -3   17    7      1.74      0.00
   -2   17    7     -0.43      0.00
   -1   17    7     -2.22      0.00
    0   17    7      0.97      0.00
    1   17    7     -0.06      0.00
    2   17    7     -1.64      0.00
    3   17    7     -1.88      0.00
    4   17    7     -0.51      0.00
    5   17    7     -0.63      0.00
    6   17    7      2.23      0.00
    7   17    7     -0.01      0.00
    8   17    7     -0.03      0.00
    9   17    7     -0.32      0.00
   10   17    7      0.98      0.00
   11   17    7      0.52      0.00
  -13   18    7      0.47      0.00
  -12   18    7      0.29      0.00
  -11   18    7     -1.74      0.00
  -10   18    7     -1.28      0.00
   -9   18    7     -0.10      0.00
   -8   18    7     -1.06      0.00
   -7   18    7     -0.40      0.00
   -6   18    7      1.14      0.00
   -5   18    7      0.99      0.00
   -4   18    7     -0.06      0.00
   -3   18    7     -1.04      0.00
   -2   18    7     -0.46      0.00
   -1   18    7     -0.95      0.00
    0   18    7      1.00      0.00
    1   18    7     -0.42      0.00
    2   18    7     -1.04      0.00
    3   18    7     -0.45      0.00
    4   18    7      1.19      0.00
    5   18    7      2.34      0.00
    6   18    7     -0.01      0.00
    7   18    7     -0.86      0.00
    8   18    7     -0.31      0.00
    9   18    7     -0.95      0.00
  -11   19    7      0.41      0.00
  -10   19    7     -0.48      0.00
   -9   19    7      0.32      0.00
   -8   19    7      0.79      0.00
   -7   19    7     -0.22      0.00
   -6   19    7     -0.30      0.00
   -5   19    7     -0.37      0.00
   -4   19    7     -1.40      0.00
   -3   19    7     -1.70      0.00
   -2   19    7      1.23      0.00
   -1   19    7      1.36      0.00
    0   19    7     -0.98      0.00
    1   19    7      0.09      0.00
    2   19    7      0.53      0.00
    3   19    7      1.37      0.00
    4   19    7      0.00      0.00
    5   19    7      0.57      0.00
    6   19    7     -1.02      0.00
    7   19    7     -0.47      0.00
    8   19    7     -0.29      0.00
   -9   20    7      0.13      0.00
   -8   20    7      0.40      0.00
   -7   20    7     -0.62      0.00
   -6   20    7     -1.15      0.00
   -5   20    7     -0.95      0.00
   -4   20    7      0.03      0.00
   -3   20    7      0.59      0.00
   -2   20    7      0.10      0.00
   -1   20    7      0.01      0.00
    0   20    7     -0.61      0.00
    1   20    7      0.16      0.00
    2   20    7      0.17      0.00
    3   20    7     -0.04      0.00
    4   20    7     -0.04      0.00
    5   20    7     -2.31      0.00
    6   20    7      0.38      0.00
   -7   21    7      1.08      0.00
   -6   21    7      0.20      0.00
   -5   21    7     -0.15      0.00
   -4   21    7      1.28      0.00
   -3   21    7      0.83      0.00
   -2   21    7     -1.18      0.00
   -1   21    7     -0.57      0.00
    0   21    7      0.45      0.00
    1   21    7     -0.27      0.00
    2   21    7      0.22      0.00
    3   21    7     -1.03      0.00
    4   21    7     -0.25      0.00
   -3   22    7     -0.02      0.00
   -2   22    7      0.37      0.00
   -1   22    7      0.34      0.00
  -20    0    8      1.95      0.00
  -18    0    8     -2.61      0.00
  -16    0    8     -2.18      0.00
  -14    0    8      3.20      0.00
  -12    0    8     -3.03      0.00
  -10    0    8      2.79      0.00
   -8    0    8      3.81      0.00
   -6    0    8      6.24      0.00
   -4    0    8     15.02      0.00
   -2    0    8    -10.24      0.00
    0    0    8      9.68      0.00
    2    0    8     -9.14      0.00
    4    0    8      0.55      0.00
    6    0    8     -2.55      0.00
    8    0    8     -2.09      0.00
   10    0    8     -2.15      0.00
   12    0    8     -1.60      0.00
   14    0    8     -0.52      0.00
   16    0    8      1.03      0.00
  -21    1    8      0.02      0.00
  -20    1    8      1.06      0.00
  -19    1    8     -0.34      0.00
  -18    1    8     -1.71      0.00
  -17    1    8      0.29      0.00
  -16    1    8      2.59      0.00
  -15    1    8     -0.16      0.00
  -14    1    8      1.97      0.00
  -13    1    8     -1.07      0.00
  -12    1    8     -1.09      0.00
  -11    1    8     -0.84      0.00
  -10    1    8      2.91      0.00
   -9    1    8     -0.31      0.00
   -8    1    8     -1.49      0.00
   -7    1    8      0.89      0.00
   -6    1    8      8.54      0.00
   -5    1    8      1.98      0.00
   -4    1    8     -9.44      0.00
   -3    1    8     -1.37      0.00
   -2    1    8     10.77      0.00
   -1    1    8      0.88      0.00
    0    1    8      1.86      0.00
    1    1    8      0.70      0.00
    2    1    8     -4.67      0.00
    3    1    8     -0.48      0.00
    4    1    8      2.35      0.00
    5    1    8     -1.77      0.00
    6    1    8     -9.63      0.00
    7    1    8      0.64      0.00
    8    1    8     -3.81      0.00
    9    1    8      0.47      0.00
   10    1    8     -0.77      0.00
   11    1    8     -0.48      0.00
   12    1    8     -0.82      0.00
   13    1    8     -0.21      0.00
   14    1    8     -0.21      0.00
   15    1    8     -0.24      0.00
   16    1    8      1.08      0.00
   17    1    8      0.05      0.00
  -21    2    8      0.36      0.00
  -20    2    8     -1.60      0.00
  -19    2    8      0.02      0.00
  -18    2    8      2.33      0.00
  -17    2    8      1.78      0.00
  -16    2    8      1.92      0.00
  -15    2    8     -0.19      0.00
  -14    2    8     -3.72      0.00
  -13    2    8     -0.27      0.00
  -12    2    8      2.57      0.00
  -11    2    8      0.77      0.00
  -10    2    8     -2.97      0.00
   -9    2    8      0.24      0.00
   -8    2    8     -5.02      0.00
   -7    2    8      0.93      0.00
   -6    2    8     -8.30      0.00
   -5    2    8     -5.48      0.00
   -4    2    8    -13.27      0.00
   -3    2    8      0.28      0.00
   -2    2    8     10.68      0.00
   -1    2    8      4.79      0.00
    0    2    8     -9.46      0.00
    1    2    8      2.41      0.00
    2    2    8      7.01      0.00
    3    2    8     -2.26      0.00
    4    2    8     -1.97      0.00
    5    2    8     -4.39      0.00
    6    2    8      3.12      0.00
    7    2    8      0.81      0.00
    8    2    8      2.04      0.00
    9    2    8     -1.26      0.00
   10    2    8      1.51      0.00
   11    2    8     -0.07      0.00
   12    2    8      1.94      0.00
   13    2    8     -0.05      0.00
   14    2    8      0.16      0.00
   15    2    8      0.45      0.00
   16    2    8     -0.82      0.00
   17    2    8     -1.39      0.00
  -21    3    8     -0.22      0.00
  -20    3    8     -1.18      0.00
  -19    3    8      0.61      0.00
  -18    3    8      0.88      0.00
  -17    3    8     -0.60      0.00
  -16    3    8     -1.97      0.00
  -15    3    8      0.36      0.00
  -14    3    8     -1.22      0.00
  -13    3    8      1.59      0.00
  -12    3    8      1.56      0.00
  -11    3    8      1.35      0.00
  -10    3    8     -4.00      0.00
   -9    3    8     -0.21      0.00
   -8    3    8      0.92      0.00
   -7    3    8     -3.47      0.00
   -6    3    8     -8.05      0.00
   -5    3    8     -5.81      0.00
   -4    3    8      8.84      0.00
   -3    3    8      3.77      0.00
   -2    3    8     -9.52      0.00
   -1    3    8     -0.36      0.00
    0    3    8     -2.29      0.00
    1    3    8     -0.91      0.00
    2    3    8      5.89      0.00
    3    3    8      0.33      0.00
    4    3    8     -1.49      0.00
    5    3    8      4.28      0.00
    6    3    8      6.16      0.00
    7    3    8     -0.82      0.00
    8    3    8      3.64      0.00
    9    3    8     -0.93      0.00
   10    3    8      0.44      0.00
   11    3    8      1.33      0.00
   12    3    8      0.28      0.00
   13    3    8      0.79      0.00
   14    3    8      0.51      0.00
   15    3    8      0.64      0.00
   16    3    8     -0.98      0.00
   17    3    8     -0.04      0.00
  -21    4    8     -0.39      0.00
  -20    4    8      0.90      0.00
  -19    4    8     -0.25      0.00
  -18    4    8     -1.53      0.00
  -17    4    8     -1.60      0.00
  -16    4    8     -1.33      0.00
  -15    4    8      0.77      0.00
  -14    4    8      3.99      0.00
  -13    4    8      0.08      0.00
  -12    4    8     -2.20      0.00
  -11    4    8     -1.39      0.00
  -10    4    8      3.24      0.00
   -9    4    8      0.23      0.00
   -8    4    8      6.08      0.00
   -7    4    8     -1.59      0.00
   -6    4    8     10.45      0.00
   -5    4    8      3.86      0.00
   -4    4    8     10.03      0.00
   -3    4    8     -1.51      0.00
   -2    4    8     -9.83      0.00
   -1    4    8     -7.83      0.00
    0    4    8     11.03      0.00
    1    4    8     -2.54      0.00
    2    4    8     -2.67      0.00
    3    4    8      3.83      0.00
    4    4    8      2.94      0.00
    5    4    8      5.69      0.00
    6    4    8     -3.39      0.00
    7    4    8     -1.43      0.00
    8    4    8     -2.20      0.00
    9    4    8      2.22      0.00
   10    4    8     -0.10      0.00
   11    4    8     -0.02      0.00
   12    4    8     -2.23      0.00
   13    4    8     -0.18      0.00
   14    4    8      0.72      0.00
   15    4    8     -0.22      0.00
   16    4    8      0.42      0.00
   17    4    8      1.47      0.00
  -20    5    8      0.88      0.00
  -19    5    8     -0.05      0.00
  -18    5    8      0.02      0.00
  -17    5    8      0.63      0.00
  -16    5    8      2.01      0.00
  -15    5    8     -0.63      0.00
  -14    5    8      0.75      0.00
  -13    5    8     -0.10      0.00
  -12    5    8     -2.22      0.00
  -11    5    8      0.53      0.00
  -10    5    8      4.74      0.00
   -9    5    8      2.19      0.00
   -8    5    8     -0.09      0.00
   -7    5    8      5.41      0.00
   -6    5    8      5.65      0.00
   -5    5    8      8.56      0.00
   -4    5    8    -10.84      0.00
   -3    5    8     -3.13      0.00
   -2    5    8      6.00      0.00
   -1    5    8     -0.38      0.00
    0    5    8      4.03      0.00
    1    5    8      0.09      0.00
    2    5    8     -5.92      0.00
    3    5    8      0.11      0.00
    4    5    8      1.83      0.00
    5    5    8     -5.76      0.00
    6    5    8     -3.48      0.00
    7    5    8     -0.77      0.00
    8    5    8     -2.79      0.00
    9    5    8      0.84      0.00
   10    5    8      0.16      0.00
   11    5    8     -1.67      0.00
   12    5    8      0.12      0.00
   13    5    8     -0.95      0.00
   14    5    8     -0.60      0.00
   15    5    8     -0.70      0.00
   16    5    8      0.81      0.00
   17    5    8     -0.21      0.00
  -20    6    8     -0.47      0.00
  -19    6    8      0.25      0.00
  -18    6    8      0.71      0.00
  -17    6    8      0.12      0.00
  -16    6    8      0.73      0.00
  -15    6    8     -0.52      0.00
  -14    6    8     -2.99      0.00
  -13    6    8      0.30      0.00
  -12    6    8      2.69      0.00
  -11    6    8      0.86      0.00
  -10    6    8     -2.75      0.00
   -9    6    8     -1.24      0.00
   -8    6    8     -4.50      0.00
   -7    6    8      1.88      0.00
   -6    6    8     -8.52      0.00
   -5    6    8      0.02      0.00
   -4    6    8     -7.43      0.00
   -3    6    8      1.26      0.00
   -2    6    8      8.12      0.00
   -1    6    8      7.87      0.00
    0    6    8    -12.96      0.00
    1    6    8      2.76      0.00
    2    6    8     -0.70      0.00
    3    6    8     -2.46      0.00
    4    6    8     -2.27      0.00
    5    6    8     -4.61      0.00
    6    6    8      0.87      0.00
    7    6    8      0.63      0.00
    8    6    8      2.40      0.00
    9    6    8     -2.63      0.00
   10    6    8     -0.79      0.00
   11    6    8     -0.19      0.00
   12    6    8      1.75      0.00
   13    6    8      0.29      0.00
   14    6    8     -1.03      0.00
   15    6    8     -0.07      0.00
   16    6    8     -0.12      0.00
   17    6    8     -0.34      0.00
  -20    7    8     -0.28      0.00
  -19    7    8     -0.98      0.00
  -18    7    8     -0.44      0.00
  -17    7    8     -0.54      0.00
  -16    7    8     -2.22      0.00
  -15    7    8      0.96      0.00
  -14    7    8     -0.82      0.00
  -13    7    8     -0.98      0.00
  -12    7    8      1.64      0.00
  -11    7    8     -2.97      0.00
  -10    7    8     -4.27      0.00
   -9    7    8     -3.69      0.00
   -8    7    8      0.14      0.00
   -7    7    8     -4.88      0.00
   -6    7    8     -3.27      0.00
   -5    7    8     -9.06      0.00
   -4    7    8     12.06      0.00
   -3    7    8     -0.73      0.00
   -2    7    8     -1.89      0.00
   -1    7    8     -1.69      0.00
    0    7    8     -3.69      0.00
    1    7    8      0.14      0.00
    2    7    8      6.31      0.00
    3    7    8      0.11      0.00
    4    7    8     -2.45      0.00
    5    7    8      5.86      0.00
    6    7    8      2.44      0.00
    7    7    8      1.70      0.00
    8    7    8      0.67      0.00
    9    7    8     -0.31      0.00
   10    7    8     -0.53      0.00
   11    7    8      1.45      0.00
   12    7    8     -0.50      0.00
   13    7    8      0.63      0.00
   14    7    8      0.41      0.00
   15    7    8      0.55      0.00
   16    7    8     -0.22      0.00
  -20    8    8      0.33      0.00
  -19    8    8      0.06      0.00
  -18    8    8     -0.38      0.00
  -17    8    8      0.89      0.00
  -16    8    8     -0.40      0.00
  -15    8    8     -0.75      0.00
  -14    8    8      1.78      0.00
  -13    8    8     -0.90      0.00
  -12    8    8     -2.47      0.00
  -11    8    8      0.40      0.00
  -10    8    8      1.48      0.00
   -9    8    8      2.25      0.00
   -8    8    8      1.27      0.00
   -7    8    8     -1.57      0.00
   -6    8    8      3.74      0.00
   -5    8    8     -1.30      0.00
   -4    8    8      5.20      0.00
   -3    8    8     -0.20      0.00
   -2    8    8     -7.95      0.00
   -1    8    8     -4.21      0.00
    0    8    8     10.46      0.00
    1    8    8     -1.77      0.00
    2    8    8      1.80      0.00
    3    8    8      0.68      0.00
    4    8    8      2.63      0.00
    5    8    8      3.57      0.00
    6    8    8      2.67      0.00
    7    8    8      0.02      0.00
    8    8    8     -2.03      0.00
    9    8    8      2.07      0.00
   10    8    8      0.68      0.00
   11    8    8      0.77      0.00
   12    8    8     -0.47      0.00
   13    8    8     -0.42      0.00
   14    8    8      0.10      0.00
   15    8    8      0.01      0.00
   16    8    8     -0.11      0.00
  -19    9    8      1.36      0.00
  -18    9    8      0.51      0.00
  -17    9    8      0.07      0.00
  -16    9    8      1.46      0.00
  -15    9    8     -0.94      0.00
  -14    9    8      0.72      0.00
  -13    9    8      1.28      0.00
  -12    9    8      0.21      0.00
  -11    9    8      3.42      0.00
  -10    9    8      3.29      0.00
   -9    9    8      3.17      0.00
   -8    9    8     -0.97      0.00
   -7    9    8      3.12      0.00
   -6    9    8      2.98      0.00
   -5    9    8      7.30      0.00
   -4    9    8     -9.97      0.00
   -3    9    8      3.33      0.00
   -2    9    8     -0.96      0.00
   -1    9    8      2.79      0.00
    0    9    8      1.32      0.00
    1    9    8     -0.44      0.00
    2    9    8     -6.07      0.00
    3    9    8      1.22      0.00
    4    9    8      2.24      0.00
    5    9    8     -3.03      0.00
    6    9    8     -1.77      0.00
    7    9    8     -1.11      0.00
    8    9    8      0.70      0.00
    9    9    8      0.23      0.00
   10    9    8      0.22      0.00
   11    9    8     -0.89      0.00
   12    9    8      0.77      0.00
   13    9    8     -0.39      0.00
   14    9    8     -0.33      0.00
   15    9    8     -0.75      0.00
   16    9    8     -0.51      0.00
  -19   10    8     -0.27      0.00
  -18   10    8      0.15      0.00
  -17   10    8     -0.95      0.00
  -16   10    8      0.34      0.00
  -15   10    8      1.34      0.00
  -14   10    8     -0.84      0.00
  -13   10    8      1.48      0.00
  -12   10    8      1.02      0.00
  -11   10    8     -0.62      0.00
  -10   10    8     -0.80      0.00
   -9   10    8     -1.92      0.00
   -8   10    8      1.64      0.00
   -7   10    8      0.71      0.00
   -6   10    8      0.98      0.00
   -5   10    8      0.55      0.00
   -4   10    8     -3.36      0.00
   -3   10    8     -0.60      0.00
   -2   10    8      7.12      0.00
   -1   10    8     -0.73      0.00
    0   10    8     -5.93      0.00
    1   10    8     -1.09      0.00
    2   10    8     -0.87      0.00
    3   10    8     -0.87      0.00
    4   10    8     -2.41      0.00
    5   10    8     -3.20      0.00
    6   10    8     -3.21      0.00
    7   10    8      0.70      0.00
    8   10    8      1.19      0.00
    9   10    8     -1.51      0.00
   10   10    8     -0.11      0.00
   11   10    8     -1.36      0.00
   12   10    8     -0.64      0.00
   13   10    8      1.21      0.00
   14   10    8      0.93      0.00
   15   10    8      0.18      0.00
  -18   11    8     -0.49      0.00
  -17   11    8      0.49      0.00
  -16   11    8     -0.60      0.00
  -15   11    8      0.73      0.00
  -14   11    8     -0.59      0.00
  -13   11    8     -1.39      0.00
  -12   11    8     -1.14      0.00
  -11   11    8     -1.95      0.00
  -10   11    8     -2.11      0.00
   -9   11    8     -1.27      0.00
   -8   11    8      1.51      0.00
   -7   11    8     -1.44      0.00
   -6   11    8     -3.97      0.00
   -5   11    8     -3.89      0.00
   -4   11    8      6.38      0.00
   -3   11    8     -3.08      0.00
   -2   11    8      1.97      0.00
   -1   11    8     -2.52      0.00
    0   11    8     -0.86      0.00
    1   11    8      0.51      0.00
    2   11    8      3.32      0.00
    3   11    8     -3.05      0.00
    4   11    8     -2.06      0.00
    5   11    8      0.32      0.00
    6   11    8      1.47      0.00
    7   11    8      0.93      0.00
    8   11    8     -0.48      0.00
    9   11    8     -1.09      0.00
   10   11    8     -0.28      0.00
   11   11    8      0.37      0.00
   12   11    8     -0.03      0.00
   13   11    8      0.34      0.00
   14   11    8      0.69      0.00
   15   11    8      1.05      0.00
  -18   12    8      0.38      0.00
  -17   12    8      0.46      0.00
  -16   12    8     -0.53      0.00
  -15   12    8     -1.03      0.00
  -14   12    8      0.06      0.00
  -13   12    8     -1.25      0.00
  -12   12    8     -0.21      0.00
  -11   12    8      0.19      0.00
  -10   12    8      1.09      0.00
   -9   12    8      0.33      0.00
   -8   12    8     -2.73      0.00
   -7   12    8      0.02      0.00
   -6   12    8     -2.88      0.00
   -5   12    8      0.70      0.00
   -4   12    8      2.35      0.00
   -3   12    8      1.84      0.00
   -2   12    8     -5.66      0.00
   -1   12    8      3.10      0.00
    0   12    8      2.65      0.00
    1   12    8      2.13      0.00
    2   12    8     -0.59      0.00
    3   12    8      1.09      0.00
    4   12    8      0.81      0.00
    5   12    8      3.04      0.00
    6   12    8      1.78      0.00
    7   12    8     -1.18      0.00
    8   12    8     -0.59      0.00
    9   12    8      1.24      0.00
   10   12    8     -0.50      0.00
   11   12    8      1.40      0.00
   12   12    8      0.30      0.00
   13   12    8     -1.73      0.00
   14   12    8     -1.01      0.00
  -17   13    8     -0.49      0.00
  -16   13    8      0.55      0.00
  -15   13    8     -0.78      0.00
  -14   13    8      0.71      0.00
  -13   13    8      0.74      0.00
  -12   13    8      0.66      0.00
  -11   13    8      0.33      0.00
  -10   13    8      1.38      0.00
   -9   13    8     -0.01      0.00
   -8   13    8     -1.23      0.00
   -7   13    8      0.86      0.00
   -6   13    8      4.37      0.00
   -5   13    8      0.95      0.00
   -4   13    8     -2.39      0.00
   -3   13    8      1.38      0.00
   -2   13    8     -0.84      0.00
   -1   13    8      2.33      0.00
    0   13    8      1.93      0.00
    1   13    8     -0.06      0.00
    2   13    8     -1.04      0.00
    3   13    8      3.10      0.00
    4   13    8      2.07      0.00
    5   13    8     -0.40      0.00
    6   13    8     -1.09      0.00
    7   13    8     -1.18      0.00
    8   13    8      0.57      0.00
    9   13    8      1.78      0.00
   10   13    8      0.93      0.00
   11   13    8     -0.82      0.00
   12   13    8     -1.15      0.00
   13   13    8     -0.46      0.00
   14   13    8     -1.02      0.00
  -16   14    8      0.91      0.00
  -15   14    8      0.84      0.00
  -14   14    8     -0.26      0.00
  -13   14    8      0.28      0.00
  -12   14    8      0.46      0.00
  -11   14    8     -0.05      0.00
  -10   14    8     -1.19      0.00
   -9   14    8      0.98      0.00
   -8   14    8      2.43      0.00
   -7   14    8     -0.14      0.00
   -6   14    8      2.01      0.00
   -5   14    8     -0.99      0.00
   -4   14    8     -1.69      0.00
   -3   14    8     -1.55      0.00
   -2   14    8      5.16      0.00
   -1   14    8     -2.73      0.00
    0   14    8     -0.48      0.00
    1   14    8     -1.43      0.00
    2   14    8      1.09      0.00
    3   14    8     -0.96      0.00
    4   14    8     -0.34      0.00
    5   14    8     -2.50      0.00
    6   14    8     -0.79      0.00
    7   14    8      1.08      0.00
    8   14    8      0.81      0.00
    9   14    8     -0.41      0.00
   10   14    8      0.73      0.00
   11   14    8     -0.69      0.00
   12   14    8      0.66      0.00
   13   14    8      0.95      0.00
  -16   15    8     -0.67      0.00
  -15   15    8      0.72      0.00
  -14   15    8     -0.52      0.00
  -13   15    8     -0.20      0.00
  -12   15    8     -0.18      0.00
  -11   15    8      0.18      0.00
  -10   15    8     -1.73      0.00
   -9   15    8      0.13      0.00
   -8   15    8      0.42      0.00
   -7   15    8     -1.20      0.00
   -6   15    8     -3.14      0.00
   -5   15    8      0.10      0.00
   -4   15    8      0.17      0.00
   -3   15    8      0.38      0.00
   -2   15    8     -0.76      0.00
   -1   15    8     -1.19      0.00
    0   15    8     -2.73      0.00
    1   15    8      0.24      0.00
    2   15    8      0.08      0.00
    3   15    8     -2.41      0.00
    4   15    8     -1.77      0.00
    5   15    8      1.58      0.00
    6   15    8      0.46      0.00
    7   15    8      0.85      0.00
    8   15    8     -0.99      0.00
    9   15    8     -1.29      0.00
   10   15    8     -0.61      0.00
   11   15    8      1.78      0.00
   12   15    8      1.22      0.00
  -15   16    8     -0.52      0.00
  -14   16    8      0.91      0.00
  -13   16    8      0.55      0.00
  -12   16    8     -1.04      0.00
  -11   16    8     -0.34      0.00
  -10   16    8      0.58      0.00
   -9   16    8     -1.65      0.00
   -8   16    8     -1.56      0.00
   -7   16    8      0.06      0.00
   -6   16    8     -0.82      0.00
   -5   16    8      0.54      0.00
   -4   16    8      0.87      0.00
   -3   16    8     -0.53      0.00
   -2   16    8     -3.84      0.00
   -1   16    8      1.86      0.00
    0   16    8      0.06      0.00
    1   16    8      0.70      0.00
    2   16    8     -0.76      0.00
    3   16    8      0.88      0.00
    4   16    8      1.17      0.00
    5   16    8      1.39      0.00
    6   16    8      0.26      0.00
    7   16    8     -1.02      0.00
    8   16    8     -1.37      0.00
    9   16    8     -0.12      0.00
   10   16    8     -0.43      0.00
   11   16    8     -0.07      0.00
  -14   17    8      0.21      0.00
  -13   17    8      0.60      0.00
  -12   17    8     -0.11      0.00
  -11   17    8      0.07      0.00
  -10   17    8      1.84      0.00
   -9   17    8      0.18      0.00
   -8   17    8     -0.25      0.00
   -7   17    8      0.99      0.00
   -6   17    8      1.24      0.00
   -5   17    8     -0.48      0.00
   -4   17    8     -0.59      0.00
   -3   17    8     -0.61      0.00
   -2   17    8      1.03      0.00
   -1   17    8      0.41      0.00
    0   17    8      2.80      0.00
    1   17    8     -0.94      0.00
    2   17    8      0.92      0.00
    3   17    8      1.56      0.00
    4   17    8      1.01      0.00
    5   17    8     -1.94      0.00
    6   17    8     -0.38      0.00
    7   17    8     -0.61      0.00
    8   17    8      0.78      0.00
    9   17    8      0.33      0.00
   10   17    8     -0.30      0.00
  -12   18    8      1.52      0.00
  -11   18    8      0.50      0.00
  -10   18    8      0.23      0.00
   -9   18    8      1.43      0.00
   -8   18    8      0.12      0.00
   -7   18    8     -0.22      0.00
   -6   18    8      0.16      0.00
   -5   18    8     -0.28      0.00
   -4   18    8     -0.22      0.00
   -3   18    8      1.40      0.00
   -2   18    8      1.90      0.00
   -1   18    8     -1.28      0.00
    0   18    8     -0.75      0.00
    1   18    8      0.15      0.00
    2   18    8      0.21      0.00
    3   18    8     -0.31      0.00
    4   18    8     -2.08      0.00
    5   18    8     -0.39      0.00
    6   18    8     -0.59      0.00
    7   18    8      0.82      0.00
    8   18    8      1.42      0.00
    9   18    8     -0.06      0.00
  -11   19    8      0.08      0.00
  -10   19    8     -1.40      0.00
   -9   19    8     -0.44      0.00
   -8   19    8      0.78      0.00
   -7   19    8     -0.53      0.00
   -6   19    8      0.00      0.00
   -5   19    8      1.04      0.00
   -4   19    8      0.99      0.00
   -3   19    8     -0.10      0.00
   -2   19    8     -0.56      0.00
   -1   19    8     -0.71      0.00
    0   19    8     -1.74      0.00
    1   19    8      1.18      0.00
    2   19    8     -1.24      0.00
    3   19    8     -0.42      0.00
    4   19    8     -0.34      0.00
    5   19    8      0.69      0.00
    6   19    8      0.83      0.00
    7   19    8      0.54      0.00
   -9   20    8     -0.48      0.00
   -8   20    8      0.72      0.00
   -7   20    8      0.60      0.00
   -6   20    8     -0.03      0.00
   -5   20    8     -0.01      0.00
   -4   20    8      0.33      0.00
   -3   20    8     -0.81      0.00
   -2   20    8     -0.94      0.00
   -1   20    8      0.95      0.00
    0   20    8      0.94      0.00
    1   20    8     -0.26      0.00
    2   20    8      0.42      0.00
    3   20    8     -0.23      0.00
    4   20    8      2.02      0.00
    5   20    8      0.01      0.00
    6   20    8      1.13      0.00
   -7   21    8      0.23      0.00
   -6   21    8     -0.44      0.00
   -5   21    8     -1.14      0.00
   -4   21    8     -0.42      0.00
   -3   21    8      0.27      0.00
   -2   21    8      0.45      0.00
   -1   21    8      0.55      0.00
    0   21    8      0.63      0.00
    1   21    8     -0.73      0.00
    2   21    8      1.13      0.00
    3   21    8     -0.17      0.00
  -21    0    9     -0.17      0.00
  -19    0    9     -1.10      0.00
  -17    0    9      2.45      0.00
  -15    0    9     -0.48      0.00
  -13    0    9     -1.99      0.00
  -11    0    9      3.11      0.00
   -9    0    9     -6.15      0.00
   -7    0    9      2.35      0.00
   -5    0    9    -15.31      0.00
   -3    0    9      3.71      0.00
   -1    0    9     -5.24      0.00
    1    0    9     -5.62      0.00
    3    0    9      8.53      0.00
    5    0    9      2.05      0.00
    7    0    9      0.71      0.00
    9    0    9      5.08      0.00
   11    0    9      0.64      0.00
   13    0    9      0.63      0.00
   15    0    9      0.35      0.00
   17    0    9      0.39      0.00
  -21    1    9     -1.69      0.00
  -20    1    9      0.37      0.00
  -19    1    9      1.78      0.00
  -18    1    9     -0.06      0.00
  -17    1    9     -2.03      0.00
  -16    1    9     -0.19      0.00
  -15    1    9     -3.70      0.00
  -14    1    9      1.00      0.00
  -13    1    9      3.65      0.00
  -12    1    9      1.17      0.00
  -11    1    9     -2.05      0.00
  -10    1    9      0.29      0.00
   -9    1    9      1.75      0.00
   -8    1    9     -0.03      0.00
   -7    1    9      5.80      0.00
   -6    1    9     -1.65      0.00
   -5    1    9      0.24      0.00
   -4    1    9      0.19      0.00
   -3    1    9      9.11      0.00
   -2    1    9     -0.80      0.00
   -1    1    9    -11.72      0.00
    0    1    9     -1.64      0.00
    1    1    9      9.02      0.00
    2    1    9      0.01      0.00
    3    1    9      1.11      0.00
    4    1    9      1.92      0.00
    5    1    9      5.03      0.00
    6    1    9      0.27      0.00
    7    1    9      4.74      0.00
    8    1    9     -0.65      0.00
    9    1    9      0.53      0.00
   10    1    9      0.78      0.00
   11    1    9      0.25      0.00
   12    1    9     -0.06      0.00
   13    1    9     -0.74      0.00
   14    1    9      0.43      0.00
   15    1    9     -1.02      0.00
   16    1    9     -0.17      0.00
   17    1    9      0.74      0.00
  -21    2    9      0.15      0.00
  -20    2    9      0.09      0.00
  -19    2    9      1.00      0.00
  -18    2    9     -1.42      0.00
  -17    2    9     -2.44      0.00
  -16    2    9     -0.44      0.00
  -15    2    9      1.08      0.00
  -14    2    9      0.24      0.00
  -13    2    9      2.50      0.00
  -12    2    9     -0.19      0.00
  -11    2    9     -2.91      0.00
  -10    2    9      0.11      0.00
   -9    2    9      6.71      0.00
   -8    2    9      0.04      0.00
   -7    2    9     -0.12      0.00
   -6    2    9      4.48      0.00
   -5    2    9     14.60      0.00
   -4    2    9      4.52      0.00
   -3    2    9     -4.74      0.00
   -2    2    9     -3.61      0.00
   -1    2    9      3.98      0.00
    0    2    9     -1.90      0.00
    1    2    9      6.43      0.00
    2    2    9     -0.39      0.00
    3    2    9     -6.57      0.00
    4    2    9      3.73      0.00
    5    2    9     -2.22      0.00
    6    2    9      0.52      0.00
    7    2    9     -1.01      0.00
    8    2    9     -0.35      0.00
    9    2    9     -4.15      0.00
   10    2    9      0.76      0.00
   11    2    9     -0.98      0.00
   12    2    9     -0.15      0.00
   13    2    9     -0.35      0.00
   14    2    9     -0.44      0.00
   15    2    9     -0.50      0.00
   16    2    9      0.89      0.00
   17    2    9     -0.26      0.00
  -21    3    9      0.97      0.00
  -20    3    9     -0.55      0.00
  -19    3    9     -0.57      0.00
  -18    3    9      0.09      0.00
  -17    3    9      1.40      0.00
  -16    3    9      0.29      0.00
  -15    3    9      3.01      0.00
  -14    3    9     -1.63      0.00
  -13    3    9     -4.20      0.00
  -12    3    9     -1.90      0.00
  -11    3    9      2.88      0.00
  -10    3    9     -0.19      0.00
   -9    3    9     -0.80      0.00
   -8    3    9      0.76      0.00
   -7    3    9     -4.51      0.00
   -6    3    9      4.99      0.00
   -5    3    9     -0.11      0.00
   -4    3    9     -0.06      0.00
   -3    3    9     -8.12      0.00
   -2    3    9      0.31      0.00
   -1    3    9     11.26      0.00
    0    3    9      3.23      0.00
    1    3    9     -9.16      0.00
    2    3    9     -0.01      0.00
    3    3    9     -1.66      0.00
    4    3    9     -4.09      0.00
    5    3    9     -2.04      0.00
    6    3    9     -1.56      0.00
    7    3    9     -4.33      0.00
    8    3    9      1.40      0.00
    9    3    9     -0.21      0.00
   10    3    9     -1.86      0.00
   11    3    9     -0.19      0.00
   12    3    9     -0.41      0.00
   13    3    9      0.82      0.00
   14    3    9     -1.02      0.00
   15    3    9      0.63      0.00
   16    3    9      0.04      0.00
   17    3    9     -0.45      0.00
  -21    4    9     -0.04      0.00
  -20    4    9      0.04      0.00
  -19    4    9     -0.80      0.00
  -18    4    9      1.55      0.00
  -17    4    9      2.07      0.00
  -16    4    9     -0.05      0.00
  -15    4    9     -1.95      0.00
  -14    4    9     -0.35      0.00
  -13    4    9     -2.48      0.00
  -12    4    9      0.53      0.00
  -11    4    9      2.55      0.00
  -10    4    9     -0.29      0.00
   -9    4    9     -7.37      0.00
   -8    4    9     -1.25      0.00
   -7    4    9     -2.84      0.00
   -6    4    9     -4.19      0.00
   -5    4    9    -12.43      0.00
   -4    4    9     -5.17      0.00
   -3    4    9      5.68      0.00
   -2    4    9      5.53      0.00
   -1    4    9     -2.96      0.00
    0    4    9      1.83      0.00
    1    4    9     -8.42      0.00
    2    4    9     -0.15      0.00
    3    4    9      4.07      0.00
    4    4    9     -4.58      0.00
    5    4    9      2.18      0.00
    6    4    9     -0.23      0.00
    7    4    9      1.75      0.00
    8    4    9     -0.03      0.00
    9    4    9      2.20      0.00
   10    4    9     -1.05      0.00
   11    4    9      1.48      0.00
   12    4    9      0.54      0.00
   13    4    9     -0.51      0.00
   14    4    9      0.41      0.00
   15    4    9      0.54      0.00
   16    4    9     -1.05      0.00
   17    4    9      0.22      0.00
  -20    5    9     -0.18      0.00
  -19    5    9     -0.28      0.00
  -18    5    9     -0.30      0.00
  -17    5    9     -1.25      0.00
  -16    5    9      0.07      0.00
  -15    5    9     -2.63      0.00
  -14    5    9      0.54      0.00
  -13    5    9      4.46      0.00
  -12    5    9      0.16      0.00
  -11    5    9     -3.01      0.00
  -10    5    9     -1.25      0.00
   -9    5    9     -0.48      0.00
   -8    5    9     -1.67      0.00
   -7    5    9      2.81      0.00
   -6    5    9     -6.97      0.00
   -5    5    9      1.99      0.00
   -4    5    9     -1.64      0.00
   -3    5    9      8.57      0.00
   -2    5    9      0.37      0.00
   -1    5    9    -10.85      0.00
    0    5    9     -3.25      0.00
    1    5    9      7.82      0.00
    2    5    9      0.78      0.00
    3    5    9      1.07      0.00
    4    5    9      4.37      0.00
    5    5    9     -0.52      0.00
    6    5    9      3.87      0.00
    7    5    9      4.18      0.00
    8    5    9     -0.91      0.00
    9    5    9     -0.84      0.00
   10    5    9      1.87      0.00
   11    5    9      0.47      0.00
   12    5    9      1.11      0.00
   13    5    9     -0.67      0.00
   14    5    9      0.79      0.00
   15    5    9     -0.51      0.00
   16    5    9      0.67      0.00
  -20    6    9      0.08      0.00
  -19    6    9      0.52      0.00
  -18    6    9     -0.62      0.00
  -17    6    9     -1.26      0.00
  -16    6    9      0.33      0.00
  -15    6    9      2.07      0.00
  -14    6    9     -0.06      0.00
  -13    6    9      0.94      0.00
  -12    6    9     -0.21      0.00
  -11    6    9     -2.44      0.00
  -10    6    9      1.37      0.00
   -9    6    9      6.68      0.00
   -8    6    9      2.34      0.00
   -7    6    9      2.47      0.00
   -6    6    9      1.81      0.00
   -5    6    9      9.25      0.00
   -4    6    9      4.54      0.00
   -3    6    9     -5.68      0.00
   -2    6    9     -4.53      0.00
   -1    6    9      2.43      0.00
    0    6    9     -0.92      0.00
    1    6    9      9.37      0.00
    2    6    9     -0.74      0.00
    3    6    9     -3.26      0.00
    4    6    9      2.76      0.00
    5    6    9      0.00      0.00
    6    6    9      0.55      0.00
    7    6    9     -1.87      0.00
    8    6    9      0.92      0.00
    9    6    9     -0.67      0.00
   10    6    9      0.99      0.00
   11    6    9     -1.52      0.00
   12    6    9     -0.42      0.00
   13    6    9      1.19      0.00
   14    6    9     -0.32      0.00
   15    6    9     -0.26      0.00
   16    6    9      0.19      0.00
  -20    7    9      1.08      0.00
  -19    7    9      0.27      0.00
  -18    7    9      0.74      0.00
  -17    7    9      1.43      0.00
  -16    7    9     -0.41      0.00
  -15    7    9      2.38      0.00
  -14    7    9      0.39      0.00
  -13    7    9     -3.29      0.00
  -12    7    9      1.67      0.00
  -11    7    9      2.59      0.00
  -10    7    9      2.73      0.00
   -9    7    9      1.03      0.00
   -8    7    9      1.68      0.00
   -7    7    9     -1.26      0.00
   -6    7    9      6.48      0.00
   -5    7    9     -2.85      0.00
   -4    7    9      3.83      0.00
   -3    7    9     -8.94      0.00
   -2    7    9      1.50      0.00
   -1    7    9      8.88      0.00
    0    7    9      2.76      0.00
    1    7    9     -6.84      0.00
    2    7    9     -1.85      0.00
    3    7    9     -0.99      0.00
    4    7    9     -3.59      0.00
    5    7    9      1.08      0.00
    6    7    9     -4.81      0.00
    7    7    9     -3.22      0.00
    8    7    9     -0.01      0.00
    9    7    9      1.77      0.00
   10    7    9     -1.38      0.00
   11    7    9     -0.42      0.00
   12    7    9     -1.32      0.00
   13    7    9      0.34      0.00
   14    7    9     -0.07      0.00
   15    7    9      0.57      0.00
   16    7    9     -1.15      0.00
  -20    8    9     -0.48      0.00
  -19    8    9     -0.09      0.00
  -18    8    9     -0.11      0.00
  -17    8    9      0.46      0.00
  -16    8    9      0.24      0.00
  -15    8    9     -1.52      0.00
  -14    8    9      0.97      0.00
  -13    8    9     -0.06      0.00
  -12    8    9     -0.38      0.00
  -11    8    9      2.00      0.00
  -10    8    9     -2.96      0.00
   -9    8    9     -4.46      0.00
   -8    8    9     -2.32      0.00
   -7    8    9      0.54      0.00
   -6    8    9     -0.64      0.00
   -5    8    9     -6.07      0.00
   -4    8    9     -3.71      0.00
   -3    8    9      5.87      0.00
   -2    8    9      1.57      0.00
   -1    8    9     -0.04      0.00
    0    8    9     -1.23      0.00
    1    8    9     -7.41      0.00
    2    8    9      1.28      0.00
    3    8    9      2.16      0.00
    4    8    9     -1.63      0.00
    5    8    9     -3.31      0.00
    6    8    9     -1.20      0.00
    7    8    9      1.03      0.00
    8    8    9     -0.77      0.00
    9    8    9      0.06      0.00
   10    8    9     -0.96      0.00
   11    8    9      0.76      0.00
   12    8    9      0.03      0.00
   13    8    9     -0.91      0.00
   14    8    9      0.68      0.00
   15    8    9      0.13      0.00
   16    8    9      0.68      0.00
  -19    9    9     -0.11      0.00
  -18    9    9     -0.66      0.00
  -17    9    9     -0.86      0.00
  -16    9    9      0.50      0.00
  -15    9    9     -1.64      0.00
  -14    9    9     -0.90      0.00
  -13    9    9      1.29      0.00
  -12    9    9     -2.14      0.00
  -11    9    9     -2.52      0.00
  -10    9    9     -2.34      0.00
   -9    9    9     -0.92      0.00
   -8    9    9     -1.05      0.00
   -7    9    9     -0.15      0.00
   -6    9    9     -4.38      0.00
   -5    9    9      0.80      0.00
   -4    9    9     -4.11      0.00
   -3    9    9      7.99      0.00
   -2    9    9     -2.56      0.00
   -1    9    9     -5.55      0.00
    0    9    9     -0.79      0.00
    1    9    9      5.54      0.00
    2    9    9      1.54      0.00
    3    9    9      1.55      0.00
    4    9    9      0.81      0.00
    5    9    9     -0.81      0.00
    6    9    9      3.25      0.00
    7    9    9      1.90      0.00
    8    9    9      0.30      0.00
    9    9    9     -1.10      0.00
   10    9    9      0.83      0.00
   11    9    9     -0.16      0.00
   12    9    9      0.92      0.00
   13    9    9      0.13      0.00
   14    9    9     -0.19      0.00
   15    9    9     -0.42      0.00
  -19   10    9     -0.26      0.00
  -18   10    9      0.11      0.00
  -17   10    9      0.22      0.00
  -16   10    9     -0.41      0.00
  -15   10    9      0.51      0.00
  -14   10    9     -1.42      0.00
  -13   10    9      0.43      0.00
  -12   10    9      0.25      0.00
  -11   10    9     -0.69      0.00
  -10   10    9      2.88      0.00
   -9   10    9      2.07      0.00
   -8   10    9      1.47      0.00
   -7   10    9     -3.59      0.00
   -6   10    9      0.63      0.00
   -5   10    9      3.65      0.00
   -4   10    9      2.71      0.00
   -3   10    9     -4.98      0.00
   -2   10    9      1.31      0.00
   -1   10    9     -1.68      0.00
    0   10    9      3.84      0.00
    1   10    9      4.34      0.00
    2   10    9      0.07      0.00
    3   10    9     -1.45      0.00
    4   10    9      2.21      0.00
    5   10    9      3.83      0.00
    6   10    9      0.98      0.00
    7   10    9     -0.24      0.00
    8   10    9     -0.09      0.00
    9   10    9      0.11      0.00
   10   10    9      1.60      0.00
   11   10    9      0.24      0.00
   12   10    9     -0.54      0.00
   13   10    9     -0.07      0.00
   14   10    9     -1.34      0.00
   15   10    9      0.01      0.00
  -18   11    9      0.00      0.00
  -17   11    9     -0.14      0.00
  -16   11    9     -0.54      0.00
  -15   11    9      1.36      0.00
  -14   11    9      1.13      0.00
  -13   11    9     -0.30      0.00
  -12   11    9      1.69      0.00
  -11   11    9      2.05      0.00
  -10   11    9      0.46      0.00
   -9   11    9      0.50      0.00
   -8   11    9      0.39      0.00
   -7   11    9      1.36      0.00
   -6   11    9      1.75      0.00
   -5   11    9      1.97      0.00
   -4   11    9      2.36      0.00
   -3   11    9     -6.22      0.00
   -2   11    9      1.96      0.00
   -1   11    9      3.65      0.00
    0   11    9     -0.55      0.00
    1   11    9     -2.52      0.00
    2   11    9     -0.43      0.00
    3   11    9     -0.82      0.00
    4   11    9      1.53      0.00
    5   11    9      0.62      0.00
    6   11    9     -2.01      0.00
    7   11    9     -1.40      0.00
    8   11    9      0.07      0.00
    9   11    9      0.28      0.00
   10   11    9     -0.11      0.00
   11   11    9      0.33      0.00
   12   11    9     -0.47      0.00
   13   11    9     -0.88      0.00
   14   11    9      0.06      0.00
  -18   12    9      0.08      0.00
  -17   12    9     -0.67      0.00
  -16   12    9      0.06      0.00
  -15   12    9      0.42      0.00
  -14   12    9      1.08      0.00
  -13   12    9     -0.40      0.00
  -12   12    9     -0.24      0.00
  -11   12    9     -0.44      0.00
  -10   12    9     -1.38      0.00
   -9   12    9     -0.90      0.00
   -8   12    9     -0.27      0.00
   -7   12    9      4.31      0.00
   -6   12    9     -0.88      0.00
   -5   12    9     -2.50      0.00
   -4   12    9     -2.53      0.00
   -3   12    9      3.18      0.00
   -2   12    9     -2.49      0.00
   -1   12    9      2.10      0.00
    0   12    9     -4.20      0.00
    1   12    9     -2.27      0.00
    2   12    9     -0.69      0.00
    3   12    9      1.76      0.00
    4   12    9     -2.54      0.00
    5   12    9     -2.39      0.00
    6   12    9     -0.55      0.00
    7   12    9     -0.11      0.00
    8   12    9      0.40      0.00
    9   12    9     -0.06      0.00
   10   12    9     -2.06      0.00
   11   12    9     -0.13      0.00
   12   12    9      1.36      0.00
   13   12    9      1.12      0.00
   14   12    9      1.30      0.00
  -17   13    9      0.49      0.00
  -16   13    9      0.52      0.00
  -15   13    9     -1.77      0.00
  -14   13    9     -0.50      0.00
  -13   13    9      0.61      0.00
  -12   13    9     -0.71      0.00
  -11   13    9     -1.52      0.00
  -10   13    9      0.76      0.00
   -9   13    9     -0.19      0.00
   -8   13    9     -0.57      0.00
   -7   13    9     -1.97      0.00
   -6   13    9     -0.36      0.00
   -5   13    9     -3.67      0.00
   -4   13    9     -0.32      0.00
   -3   13    9      3.26      0.00
   -2   13    9     -1.22      0.00
   -1   13    9     -3.79      0.00
    0   13    9      0.38      0.00
    1   13    9      0.49      0.00
    2   13    9     -0.05      0.00
    3   13    9     -0.29      0.00
    4   13    9     -1.36      0.00
    5   13    9     -0.54      0.00
    6   13    9      1.96      0.00
    7   13    9      0.75      0.00
    8   13    9     -0.70      0.00
    9   13    9     -0.76      0.00
   10   13    9     -0.10      0.00
   11   13    9      0.23      0.00
   12   13    9      0.81      0.00
   13   13    9      1.21      0.00
  -16   14    9     -0.01      0.00
  -15   14    9     -0.38      0.00
  -14   14    9     -0.50      0.00
  -13   14    9      0.12      0.00
  -12   14    9      0.80      0.00
  -11   14    9      0.48      0.00
  -10   14    9      0.23      0.00
   -9   14    9      0.47      0.00
   -8   14    9     -0.77      0.00
   -7   14    9     -3.11      0.00
   -6   14    9      0.79      0.00
   -5   14    9      1.90      0.00
   -4   14    9      1.68      0.00
   -3   14    9     -2.01      0.00
   -2   14    9      1.40      0.00
   -1   14    9     -2.67      0.00
    0   14    9      3.25      0.00
    1   14    9      1.47      0.00
    2   14    9      0.39      0.00
    3   14    9     -1.42      0.00
    4   14    9      1.99      0.00
    5   14    9      1.55      0.00
    6   14    9      0.06      0.00
    7   14    9     -0.08      0.00
    8   14    9     -0.43      0.00
    9   14    9     -0.31      0.00
   10   14    9      1.25      0.00
   11   14    9     -0.62      0.00
   12   14    9     -1.32      0.00
  -15   15    9      1.59      0.00
  -14   15    9      0.00      0.00
  -13   15    9     -1.14      0.00
  -12   15    9      0.18      0.00
  -11   15    9      1.97      0.00
  -10   15    9     -0.55      0.00
   -9   15    9      0.31      0.00
   -8   15    9      1.17      0.00
   -7   15    9      1.69      0.00
   -6   15    9      0.54      0.00
   -5   15    9      3.21      0.00
   -4   15    9     -0.76      0.00
   -3   15    9     -0.79      0.00
   -2   15    9      0.45      0.00
   -1   15    9      4.25      0.00
    0   15    9     -0.97      0.00
    1   15    9      0.32      0.00
    2   15    9      0.27      0.00
    3   15    9      0.69      0.00
    4   15    9      0.32      0.00
    5   15    9      0.15      0.00
    6   15    9     -1.67      0.00
    7   15    9      0.33      0.00
    8   15    9      1.01      0.00
    9   15    9      0.83      0.00
   10   15    9     -0.46      0.00
   11   15    9     -0.79      0.00
  -15   16    9     -0.17      0.00
  -14   16    9     -0.19      0.00
  -13   16    9      0.00      0.00
  -12   16    9     -0.87      0.00
  -11   16    9      0.37      0.00
  -10   16    9      0.66      0.00
   -9   16    9     -0.28      0.00
   -8   16    9      1.20      0.00
   -7   16    9      1.80      0.00
   -6   16    9     -0.47      0.00
   -5   16    9     -0.96      0.00
   -4   16    9      0.01      0.00
   -3   16    9      1.19      0.00
   -2   16    9      0.28      0.00
   -1   16    9      1.85      0.00
    0   16    9     -2.46      0.00
    1   16    9     -1.53      0.00
    2   16    9      0.07      0.00
    3   16    9      0.26      0.00
    4   16    9     -1.10      0.00
    5   16    9     -1.10      0.00
    6   16    9      0.65      0.00
    7   16    9      0.65      0.00
    8   16    9      0.28      0.00
    9   16    9      0.75      0.00
   10   16    9     -0.27      0.00
  -13   17    9      1.13      0.00
  -12   17    9     -0.46      0.00
  -11   17    9     -2.12      0.00
  -10   17    9     -0.04      0.00
   -9   17    9     -0.04      0.00
   -8   17    9     -1.18      0.00
   -7   17    9     -0.69      0.00
   -6   17    9     -0.43      0.00
   -5   17    9     -1.44      0.00
   -4   17    9      0.69      0.00
   -3   17    9      0.31      0.00
   -2   17    9     -0.62      0.00
   -1   17    9     -3.69      0.00
    0   17    9      1.76      0.00
    1   17    9     -1.26      0.00
    2   17    9     -0.21      0.00
    3   17    9     -0.46      0.00
    4   17    9      0.32      0.00
    5   17    9      0.75      0.00
    6   17    9      1.20      0.00
    7   17    9     -0.72      0.00
    8   17    9     -0.69      0.00
    9   17    9     -0.15      0.00
  -12   18    9      0.45      0.00
  -11   18    9     -1.31      0.00
  -10   18    9     -0.87      0.00
   -9   18    9      0.70      0.00
   -8   18    9     -0.60      0.00
   -7   18    9     -0.86      0.00
   -6   18    9      0.00      0.00
   -5   18    9      0.25      0.00
   -4   18    9     -0.69      0.00
   -3   18    9     -0.69      0.00
   -2   18    9     -0.67      0.00
   -1   18    9     -0.04      0.00
    0   18    9      1.34      0.00
    1   18    9      1.70      0.00
    2   18    9     -0.86      0.00
    3   18    9      0.94      0.00
    4   18    9      0.33      0.00
    5   18    9      1.16      0.00
    6   18    9     -0.73      0.00
    7   18    9     -0.80      0.00
    8   18    9     -0.19      0.00
  -11   19    9      1.42      0.00
  -10   19    9      0.07      0.00
   -9   19    9     -0.33      0.00
   -8   19    9      0.99      0.00
   -7   19    9     -0.44      0.00
   -6   19    9     -0.28      0.00
   -5   19    9      0.46      0.00
   -4   19    9     -0.33      0.00
   -3   19    9     -0.39      0.00
   -2   19    9      1.18      0.00
   -1   19    9      2.11      0.00
    0   19    9     -1.35      0.00
    1   19    9      1.26      0.00
    2   19    9     -0.43      0.00
    3   19    9     -0.01      0.00
    4   19    9     -0.03      0.00
    5   19    9     -1.29      0.00
    6   19    9     -0.64      0.00
    7   19    9      0.21      0.00
   -9   20    9     -1.03      0.00
   -8   20    9     -0.44      0.00
   -7   20    9      0.68      0.00
   -6   20    9      0.47      0.00
   -5   20    9     -0.30      0.00
   -4   20    9      0.54      0.00
   -3   20    9      0.49      0.00
   -2   20    9      0.11      0.00
   -1   20    9     -0.72      0.00
    0   20    9     -0.56      0.00
    1   20    9     -1.57      0.00
    2   20    9      1.01      0.00
    3   20    9     -1.49      0.00
    4   20    9      0.00      0.00
    5   20    9     -1.29      0.00
   -6   21    9      0.69      0.00
   -5   21    9     -0.25      0.00
   -4   21    9      0.20      0.00
   -3   21    9      0.09      0.00
   -2   21    9     -0.73      0.00
   -1   21    9     -0.78      0.00
    0   21    9      0.47      0.00
    1   21    9     -0.62      0.00
    2   21    9      0.66      0.00
  -20    0   10      2.27      0.00
  -18    0   10     -1.65      0.00
  -16    0   10     -1.38      0.00
  -14    0   10      3.92      0.00
  -12    0   10     -4.67      0.00
  -10    0   10      0.49      0.00
   -8    0   10      0.67      0.00
   -6    0   10     -3.42      0.00
   -4    0   10      8.28      0.00
   -2    0   10     -5.30      0.00
    0    0   10     12.72      0.00
    2    0   10     -5.37      0.00
    4    0   10     -7.30      0.00
    6    0   10      1.99      0.00
    8    0   10     -4.27      0.00
   10    0   10     -0.66      0.00
   12    0   10     -0.96      0.00
   14    0   10     -0.37      0.00
   16    0   10     -0.31      0.00
  -21    1   10     -0.23      0.00
  -20    1   10      0.59      0.00
  -19    1   10     -0.35      0.00
  -18    1   10     -0.22      0.00
  -17    1   10      0.48      0.00
  -16    1   10      3.14      0.00
  -15    1   10     -0.84      0.00
  -14    1   10      0.22      0.00
  -13    1   10     -1.21      0.00
  -12    1   10     -3.27      0.00
  -11    1   10     -0.82      0.00
  -10    1   10      2.92      0.00
   -9    1   10     -0.44      0.00
   -8    1   10    -11.02      0.00
   -7    1   10      0.51      0.00
   -6    1   10      1.43      0.00
   -5    1   10     -0.27      0.00
   -4    1   10    -12.25      0.00
   -3    1   10     -0.13      0.00
   -2    1   10      3.43      0.00
   -1    1   10      1.95      0.00
    0    1   10     -0.05      0.00
    1    1   10      0.42      0.00
    2    1   10    -10.09      0.00
    3    1   10     -1.62      0.00
    4    1   10      0.80      0.00
    5    1   10     -0.67      0.00
    6    1   10     -1.26      0.00
    7    1   10      0.57      0.00
    8    1   10     -3.35      0.00
    9    1   10     -0.47      0.00
   10    1   10      2.31      0.00
   11    1   10     -0.13      0.00
   12    1   10      1.11      0.00
   13    1   10     -0.24      0.00
   14    1   10      0.47      0.00
   15    1   10      0.10      0.00
   16    1   10      0.38      0.00
  -21    2   10      0.07      0.00
  -20    2   10     -2.00      0.00
  -19    2   10      0.78      0.00
  -18    2   10      1.55      0.00
  -17    2   10      0.89      0.00
  -16    2   10      1.15      0.00
  -15    2   10      0.14      0.00
  -14    2   10     -4.68      0.00
  -13    2   10     -0.05      0.00
  -12    2   10      4.41      0.00
  -11    2   10      0.33      0.00
  -10    2   10     -1.06      0.00
   -9    2   10     -0.64      0.00
   -8    2   10     -2.01      0.00
   -7    2   10     -2.29      0.00
   -6    2   10      2.10      0.00
   -5    2   10     -5.97      0.00
   -4    2   10     -7.11      0.00
   -3    2   10     -0.15      0.00
   -2    2   10      6.66      0.00
   -1    2   10      1.63      0.00
    0    2   10    -12.32      0.00
    1    2   10      0.29      0.00
    2    2   10      3.85      0.00
    3    2   10     -0.99      0.00
    4    2   10      6.57      0.00
    5    2   10     -1.23      0.00
    6    2   10     -1.29      0.00
    7    2   10      0.98      0.00
    8    2   10      3.95      0.00
    9    2   10     -0.39      0.00
   10    2   10      0.44      0.00
   11    2   10      0.12      0.00
   12    2   10      1.07      0.00
   13    2   10      0.24      0.00
   14    2   10      0.39      0.00
   15    2   10     -0.22      0.00
   16    2   10      0.21      0.00
  -21    3   10      0.26      0.00
  -20    3   10     -0.90      0.00
  -19    3   10      0.64      0.00
  -18    3   10      0.11      0.00
  -17    3   10     -0.83      0.00
  -16    3   10     -2.37      0.00
  -15    3   10      1.46      0.00
  -14    3   10      0.94      0.00
  -13    3   10      1.92      0.00
  -12    3   10      2.82      0.00
  -11    3   10      1.53      0.00
  -10    3   10     -3.89      0.00
   -9    3   10      0.87      0.00
   -8    3   10      9.27      0.00
   -7    3   10     -1.46      0.00
   -6    3   10     -1.08      0.00
   -5    3   10     -0.28      0.00
   -4    3   10      9.99      0.00
   -3    3   10      1.56      0.00
   -2    3   10     -3.57      0.00
   -1    3   10     -3.88      0.00
    0    3   10     -0.77      0.00
    1    3   10     -0.54      0.00
    2    3   10     10.06      0.00
    3    3   10      3.33      0.00
    4    3   10     -2.51      0.00
    5    3   10      2.02      0.00
    6    3   10      0.54      0.00
    7    3   10     -0.74      0.00
    8    3   10      3.15      0.00
    9    3   10      0.91      0.00
   10    3   10     -1.54      0.00
   11    3   10      0.73      0.00
   12    3   10     -1.82      0.00
   13    3   10      0.75      0.00
   14    3   10      0.25      0.00
   15    3   10      0.13      0.00
   16    3   10     -0.62      0.00
  -21    4   10     -0.13      0.00
  -20    4   10      1.28      0.00
  -19    4   10     -0.98      0.00
  -18    4   10     -1.09      0.00
  -17    4   10     -0.75      0.00
  -16    4   10     -0.52      0.00
  -15    4   10      0.20      0.00
  -14    4   10      4.97      0.00
  -13    4   10     -0.01      0.00
  -12    4   10     -4.20      0.00
  -11    4   10     -0.72      0.00
  -10    4   10      2.31      0.00
   -9    4   10      1.97      0.00
   -8    4   10      4.00      0.00
   -7    4   10      2.74      0.00
   -6    4   10     -0.13      0.00
   -5    4   10      7.23      0.00
   -4    4   10      4.91      0.00
   -3    4   10      0.08      0.00
   -2    4   10     -7.95      0.00
   -1    4   10     -1.90      0.00
    0    4   10     11.97      0.00
    1    4   10      0.72      0.00
    2    4   10     -1.70      0.00
    3    4   10      0.43      0.00
    4    4   10     -5.28      0.00
    5    4   10      1.03      0.00
    6    4   10     -0.03      0.00
    7    4   10     -1.14      0.00
    8    4   10     -3.37      0.00
    9    4   10      0.87      0.00
   10    4   10     -0.05      0.00
   11    4   10     -0.59      0.00
   12    4   10     -0.86      0.00
   13    4   10     -0.59      0.00
   14    4   10     -0.09      0.00
   15    4   10      0.51      0.00
   16    4   10      0.05      0.00
  -20    5   10      0.68      0.00
  -19    5   10     -0.13      0.00
  -18    5   10      0.20      0.00
  -17    5   10      0.47      0.00
  -16    5   10      1.97      0.00
  -15    5   10     -0.65      0.00
  -14    5   10     -1.81      0.00
  -13    5   10     -0.47      0.00
  -12    5   10     -2.64      0.00
  -11    5   10     -0.33      0.00
  -10    5   10      4.34      0.00
   -9    5   10     -0.70      0.00
   -8    5   10     -6.47      0.00
   -7    5   10      1.48      0.00
   -6    5   10      0.03      0.00
   -5    5   10      2.18      0.00
   -4    5   10     -8.86      0.00
   -3    5   10     -2.44      0.00
   -2    5   10      3.49      0.00
   -1    5   10      4.09      0.00
    0    5   10      2.48      0.00
    1    5   10     -0.74      0.00
    2    5   10     -8.52      0.00
    3    5   10     -3.25      0.00
    4    5   10      3.96      0.00
    5    5   10     -3.55      0.00
    6    5   10     -1.17      0.00
    7    5   10     -0.87      0.00
    8    5   10     -1.73      0.00
    9    5   10     -0.70      0.00
   10    5   10      0.23      0.00
   11    5   10     -1.27      0.00
   12    5   10      1.91      0.00
   13    5   10     -0.80      0.00
   14    5   10     -0.57      0.00
   15    5   10     -0.70      0.00
   16    5   10      0.70      0.00
  -20    6   10     -0.57      0.00
  -19    6   10      0.45      0.00
  -18    6   10      0.49      0.00
  -17    6   10      0.27      0.00
  -16    6   10     -0.28      0.00
  -15    6   10     -0.16      0.00
  -14    6   10     -3.33      0.00
  -13    6   10     -0.06      0.00
  -12    6   10      4.25      0.00
  -11    6   10     -0.30      0.00
  -10    6   10     -2.95      0.00
   -9    6   10     -3.10      0.00
   -8    6   10     -4.24      0.00
   -7    6   10     -1.97      0.00
   -6    6   10     -0.40      0.00
   -5    6   10     -6.01      0.00
   -4    6   10     -2.97      0.00
   -3    6   10     -0.88      0.00
   -2    6   10      8.04      0.00
   -1    6   10      0.83      0.00
    0    6   10    -10.71      0.00
    1    6   10     -0.65      0.00
    2    6   10      0.98      0.00
    3    6   10      1.80      0.00
    4    6   10      3.23      0.00
    5    6   10     -0.76      0.00
    6    6   10     -0.01      0.00
    7    6   10      0.33      0.00
    8    6   10      2.64      0.00
    9    6   10     -0.90      0.00
   10    6   10      0.03      0.00
   11    6   10      0.37      0.00
   12    6   10      0.05      0.00
   13    6   10      0.84      0.00
   14    6   10     -0.29      0.00
   15    6   10     -0.24      0.00
   16    6   10     -0.26      0.00
  -20    7   10     -0.08      0.00
  -19    7   10     -0.62      0.00
  -18    7   10     -0.53      0.00
  -17    7   10     -0.33      0.00
  -16    7   10     -1.75      0.00
  -15    7   10     -0.26      0.00
  -14    7   10      1.38      0.00
  -13    7   10     -0.65      0.00
  -12    7   10      1.98      0.00
  -11    7   10     -1.23      0.00
  -10    7   10     -3.84      0.00
   -9    7   10      0.51      0.00
   -8    7   10      4.06      0.00
   -7    7   10     -0.72      0.00
   -6    7   10     -0.36      0.00
   -5    7   10     -3.31      0.00
   -4    7   10      7.84      0.00
   -3    7   10      0.85      0.00
   -2    7   10     -2.71      0.00
   -1    7   10     -3.75      0.00
    0    7   10     -2.70      0.00
    1    7   10      2.43      0.00
    2    7   10      7.28      0.00
    3    7   10      2.46      0.00
    4    7   10     -3.30      0.00
    5    7   10      3.96      0.00
    6    7   10      2.21      0.00
    7    7   10      2.35      0.00
    8    7   10     -0.24      0.00
    9    7   10      0.44      0.00
   10    7   10      0.55      0.00
   11    7   10      1.32      0.00
   12    7   10     -1.24      0.00
   13    7   10      0.28      0.00
   14    7   10      0.05      0.00
   15    7   10      0.77      0.00
  -19    8   10      0.09      0.00
  -18    8   10     -0.06      0.00
  -17    8   10     -0.33      0.00
  -16    8   10      0.50      0.00
  -15    8   10     -0.51      0.00
  -14    8   10      1.75      0.00
  -13    8   10     -0.05      0.00
  -12    8   10     -3.17      0.00
  -11    8   10      2.20      0.00
  -10    8   10      2.41      0.00
   -9    8   10      3.22      0.00
   -8    8   10      2.50      0.00
   -7    8   10      1.29      0.00
   -6    8   10     -0.25      0.00
   -5    8   10      4.21      0.00
   -4    8   10      1.63      0.00
   -3    8   10      1.82      0.00
   -2    8   10     -8.24      0.00
   -1    8   10      1.42      0.00
    0    8   10      7.07      0.00
    1    8   10      0.59      0.00
    2    8   10     -0.46      0.00
    3    8   10     -2.33      0.00
    4    8   10     -0.64      0.00
    5    8   10      1.39      0.00
    6    8   10      1.47      0.00
    7    8   10     -0.16      0.00
    8    8   10     -1.68      0.00
    9    8   10      0.28      0.00
   10    8   10     -0.13      0.00
   11    8   10      0.46      0.00
   12    8   10      0.83      0.00
   13    8   10     -1.18      0.00
   14    8   10      0.13      0.00
   15    8   10     -0.49      0.00
  -19    9   10      0.70      0.00
  -18    9   10      0.34      0.00
  -17    9   10      0.39      0.00
  -16    9   10      0.95      0.00
  -15    9   10      0.71      0.00
  -14    9   10     -0.24      0.00
  -13    9   10      1.01      0.00
  -12    9   10     -0.65      0.00
  -11    9   10      1.30      0.00
  -10    9   10      3.25      0.00
   -9    9   10     -0.88      0.00
   -8    9   10     -2.43      0.00
   -7    9   10      0.08      0.00
   -6    9   10      2.55      0.00
   -5    9   10      2.63      0.00
   -4    9   10     -5.88      0.00
   -3    9   10      0.32      0.00
   -2    9   10      1.18      0.00
   -1    9   10      1.69      0.00
    0    9   10      2.01      0.00
    1    9   10     -3.26      0.00
    2    9   10     -6.17      0.00
    3    9   10     -0.61      0.00
    4    9   10      1.77      0.00
    5    9   10     -2.18      0.00
    6    9   10     -2.28      0.00
    7    9   10     -2.25      0.00
    8    9   10      0.36      0.00
    9    9   10     -0.32      0.00
   10    9   10     -0.45      0.00
   11    9   10     -0.86      0.00
   12    9   10      0.36      0.00
   13    9   10      0.38      0.00
   14    9   10      0.57      0.00
   15    9   10     -0.61      0.00
  -19   10   10     -0.11      0.00
  -18   10   10     -0.44      0.00
  -17   10   10      0.41      0.00
  -16   10   10      0.17      0.00
  -15   10   10      0.62      0.00
  -14   10   10     -1.27      0.00
  -13   10   10      0.35      0.00
  -12   10   10      1.12      0.00
  -11   10   10     -2.53      0.00
  -10   10   10     -1.74      0.00
   -9   10   10     -2.01      0.00
   -8   10   10     -0.26      0.00
   -7   10   10     -1.01      0.00
   -6   10   10      1.08      0.00
   -5   10   10     -2.46      0.00
   -4   10   10     -1.62      0.00
   -3   10   10     -2.33      0.00
   -2   10   10      6.98      0.00
   -1   10   10     -3.35      0.00
    0   10   10     -3.66      0.00
    1   10   10     -1.73      0.00
    2   10   10      0.08      0.00
    3   10   10      0.53      0.00
    4   10   10     -0.15      0.00
    5   10   10     -1.94      0.00
    6   10   10     -2.08      0.00
    7   10   10      0.85      0.00
    8   10   10      0.68      0.00
    9   10   10     -0.26      0.00
   10   10   10     -0.13      0.00
   11   10   10     -0.73      0.00
   12   10   10     -0.70      0.00
   13   10   10      1.87      0.00
   14   10   10      0.05      0.00
  -18   11   10      0.32      0.00
  -17   11   10     -0.13      0.00
  -16   11   10     -0.42      0.00
  -15   11   10     -0.64      0.00
  -14   11   10     -0.63      0.00
  -13   11   10     -1.24      0.00
  -12   11   10      0.18      0.00
  -11   11   10     -0.12      0.00
  -10   11   10     -2.35      0.00
   -9   11   10      1.43      0.00
   -8   11   10      1.13      0.00
   -7   11   10      0.34      0.00
   -6   11   10     -4.46      0.00
   -5   11   10     -0.98      0.00
   -4   11   10      3.63      0.00
   -3   11   10      0.14      0.00
   -2   11   10     -0.22      0.00
   -1   11   10     -0.20      0.00
    0   11   10     -2.52      0.00
    1   11   10      2.83      0.00
    2   11   10      3.83      0.00
    3   11   10     -0.73      0.00
    4   11   10     -1.26      0.00
    5   11   10      0.73      0.00
    6   11   10      1.98      0.00
    7   11   10      1.64      0.00
    8   11   10      0.61      0.00
    9   11   10     -0.16      0.00
   10   11   10     -0.09      0.00
   11   11   10      0.43      0.00
   12   11   10      0.57      0.00
   13   11   10     -0.85      0.00
   14   11   10     -0.35      0.00
  -18   12   10      0.99      0.00
  -17   12   10     -0.12      0.00
  -16   12   10     -0.83      0.00
  -15   12   10     -0.22      0.00
  -14   12   10      0.88      0.00
  -13   12   10     -0.06      0.00
  -12   12   10     -0.19      0.00
  -11   12   10      1.79      0.00
  -10   12   10      1.74      0.00
   -9   12   10      0.20      0.00
   -8   12   10     -0.67      0.00
   -7   12   10      0.80      0.00
   -6   12   10     -1.05      0.00
   -5   12   10      1.77      0.00
   -4   12   10      2.46      0.00
   -3   12   10      2.42      0.00
   -2   12   10     -5.01      0.00
   -1   12   10      3.24      0.00
    0   12   10      2.00      0.00
    1   12   10      1.97      0.00
    2   12   10     -0.37      0.00
    3   12   10      0.53      0.00
    4   12   10     -0.09      0.00
    5   12   10      1.75      0.00
    6   12   10      1.59      0.00
    7   12   10     -0.92      0.00
    8   12   10     -0.01      0.00
    9   12   10      0.79      0.00
   10   12   10      0.15      0.00
   11   12   10      0.24      0.00
   12   12   10     -0.86      0.00
   13   12   10     -1.94      0.00
  -17   13   10     -0.13      0.00
  -16   13   10      0.77      0.00
  -15   13   10      0.08      0.00
  -14   13   10      0.66      0.00
  -13   13   10      0.70      0.00
  -12   13   10     -0.37      0.00
  -11   13   10     -0.81      0.00
  -10   13   10      1.48      0.00
   -9   13   10     -0.93      0.00
   -8   13   10     -0.07      0.00
   -7   13   10      0.20      0.00
   -6   13   10      4.70      0.00
   -5   13   10     -0.06      0.00
   -4   13   10     -0.92      0.00
   -3   13   10     -0.92      0.00
   -2   13   10      0.83      0.00
   -1   13   10      0.35      0.00
    0   13   10      3.06      0.00
    1   13   10     -2.24      0.00
    2   13   10     -2.05      0.00
    3   13   10      0.77      0.00
    4   13   10      1.26      0.00
    5   13   10     -0.67      0.00
    6   13   10     -1.33      0.00
    7   13   10     -1.10      0.00
    8   13   10     -0.37      0.00
    9   13   10      0.72      0.00
   10   13   10      0.41      0.00
   11   13   10     -0.85      0.00
   12   13   10     -0.95      0.00
  -16   14   10      0.66      0.00
  -15   14   10      0.13      0.00
  -14   14   10     -0.66      0.00
  -13   14   10     -0.74      0.00
  -12   14   10      0.46      0.00
  -11   14   10     -1.47      0.00
  -10   14   10     -1.63      0.00
   -9   14   10      1.13      0.00
   -8   14   10      0.77      0.00
   -7   14   10     -0.45      0.00
   -6   14   10      0.52      0.00
   -5   14   10     -1.21      0.00
   -4   14   10     -2.63      0.00
   -3   14   10     -0.91      0.00
   -2   14   10      4.07      0.00
   -1   14   10     -2.15      0.00
    0   14   10     -1.44      0.00
    1   14   10     -1.30      0.00
    2   14   10      0.43      0.00
    3   14   10     -0.44      0.00
    4   14   10     -0.21      0.00
    5   14   10     -0.84      0.00
    6   14   10     -0.81      0.00
    7   14   10      0.43      0.00
    8   14   10      0.01      0.00
    9   14   10     -0.61      0.00
   10   14   10      0.40      0.00
   11   14   10      0.46      0.00
   12   14   10      1.91      0.00
  -15   15   10      0.22      0.00
  -14   15   10      0.12      0.00
  -13   15   10     -0.14      0.00
  -12   15   10     -0.13      0.00
  -11   15   10      0.49      0.00
  -10   15   10     -1.48      0.00
   -9   15   10     -0.19      0.00
   -8   15   10     -0.42      0.00
   -7   15   10     -1.24      0.00
   -6   15   10     -3.32      0.00
   -5   15   10     -0.01      0.00
   -4   15   10     -0.78      0.00
   -3   15   10      1.16      0.00
   -2   15   10     -1.63      0.00
   -1   15   10      0.06      0.00
    0   15   10     -3.13      0.00
    1   15   10      2.10      0.00
    2   15   10      1.22      0.00
    3   15   10     -0.80      0.00
    4   15   10     -0.62      0.00
    5   15   10      0.67      0.00
    6   15   10      0.37      0.00
    7   15   10      0.41      0.00
    8   15   10     -0.23      0.00
    9   15   10     -0.60      0.00
   10   15   10     -0.01      0.00
   11   15   10      1.44      0.00
  -14   16   10      0.62      0.00
  -13   16   10      1.23      0.00
  -12   16   10     -1.05      0.00
  -11   16   10      0.78      0.00
  -10   16   10      0.97      0.00
   -9   16   10     -1.78      0.00
   -8   16   10     -0.87      0.00
   -7   16   10      0.19      0.00
   -6   16   10     -0.35      0.00
   -5   16   10      0.27      0.00
   -4   16   10      1.86      0.00
   -3   16   10     -1.09      0.00
   -2   16   10     -2.64      0.00
   -1   16   10      1.45      0.00
    0   16   10      1.90      0.00
    1   16   10      0.29      0.00
    2   16   10      0.16      0.00
    3   16   10      0.06      0.00
    4   16   10      0.19      0.00
    5   16   10     -0.25      0.00
    6   16   10      0.06      0.00
    7   16   10     -0.09      0.00
    8   16   10     -0.42      0.00
    9   16   10      0.33      0.00
   10   16   10     -0.86      0.00
  -13   17   10      0.32      0.00
  -12   17   10      0.65      0.00
  -11   17   10      0.30      0.00
  -10   17   10      1.31      0.00
   -9   17   10      0.67      0.00
   -8   17   10     -0.10      0.00
   -7   17   10      1.16      0.00
   -6   17   10      1.75      0.00
   -5   17   10      0.48      0.00
   -4   17   10      0.61      0.00
   -3   17   10     -0.49      0.00
   -2   17   10      1.39      0.00
   -1   17   10     -0.40      0.00
    0   17   10      2.90      0.00
    1   17   10     -1.96      0.00
    2   17   10     -0.56      0.00
    3   17   10      0.63      0.00
    4   17   10     -0.67      0.00
    5   17   10     -0.61      0.00
    6   17   10      0.05      0.00
    7   17   10     -0.05      0.00
    8   17   10      0.35      0.00
    9   17   10      0.14      0.00
  -12   18   10      1.61      0.00
  -11   18   10     -0.01      0.00
  -10   18   10     -0.51      0.00
   -9   18   10      1.19      0.00
   -8   18   10      0.54      0.00
   -7   18   10     -0.09      0.00
   -6   18   10      0.33      0.00
   -5   18   10      0.49      0.00
   -4   18   10     -0.87      0.00
   -3   18   10      1.36      0.00
   -2   18   10      0.78      0.00
   -1   18   10     -0.92      0.00
    0   18   10     -2.32      0.00
    1   18   10      0.96      0.00
    2   18   10     -1.01      0.00
    3   18   10      0.48      0.00
    4   18   10     -0.22      0.00
    5   18   10      0.33      0.00
    6   18   10      0.06      0.00
    7   18   10      0.26      0.00
  -10   19   10     -0.73      0.00
   -9   19   10     -0.62      0.00
   -8   19   10      0.92      0.00
   -7   19   10     -0.37      0.00
   -6   19   10     -1.01      0.00
   -5   19   10     -0.66      0.00
   -4   19   10     -0.06      0.00
   -3   19   10     -0.06      0.00
   -2   19   10     -0.66      0.00
   -1   19   10     -0.12      0.00
    0   19   10     -1.58      0.00
    1   19   10      1.63      0.00
    2   19   10      0.47      0.00
    3   19   10     -0.18      0.00
    4   19   10      1.30      0.00
    5   19   10      0.30      0.00
    6   19   10      0.27      0.00
   -8   20   10     -0.36      0.00
   -7   20   10     -0.03      0.00
   -6   20   10     -0.42      0.00
   -5   20   10     -0.92      0.00
   -4   20   10      0.48      0.00
   -3   20   10     -0.48      0.00
   -2   20   10      0.09      0.00
   -1   20   10      0.58      0.00
    0   20   10      1.84      0.00
    1   20   10     -1.05      0.00
    2   20   10      1.51      0.00
    3   20   10     -0.69      0.00
    4   20   10      0.59      0.00
   -4   21   10     -0.18      0.00
   -3   21   10     -0.12      0.00
   -2   21   10      0.32      0.00
   -1   21   10      0.34      0.00
    0   21   10      0.19      0.00
  -21    0   11     -0.68      0.00
  -19    0   11     -0.57      0.00
  -17    0   11      1.59      0.00
  -15    0   11     -0.82      0.00
  -13    0   11     -0.04      0.00
  -11    0   11      6.28      0.00
   -9    0   11     -2.76      0.00
   -7    0   11     11.86      0.00
   -5    0   11     -4.69      0.00
   -3    0   11      4.28      0.00
   -1    0   11     -4.14      0.00
    1    0   11     -6.36      0.00
    3    0   11     11.01      0.00
    5    0   11     -1.88      0.00
    7    0   11     -1.72      0.00
    9    0   11      2.84      0.00
   11    0   11      0.36      0.00
   13    0   11     -0.31      0.00
   15    0   11      0.98      0.00
  -21    1   11     -1.14      0.00
  -20    1   11      0.64      0.00
  -19    1   11      1.27      0.00
  -18    1   11     -0.33      0.00
  -17    1   11     -2.06      0.00
  -16    1   11      0.22      0.00
  -15    1   11     -3.75      0.00
  -14    1   11      1.17      0.00
  -13    1   11      5.07      0.00
  -12    1   11      1.17      0.00
  -11    1   11     -3.31      0.00
  -10    1   11      0.59      0.00
   -9    1   11      2.70      0.00
   -8    1   11      0.49      0.00
   -7    1   11      6.35      0.00
   -6    1   11      0.42      0.00
   -5    1   11     -1.42      0.00
   -4    1   11      1.20      0.00
   -3    1   11      8.36      0.00
   -2    1   11     -0.80      0.00
   -1    1   11     -5.78      0.00
    0    1   11     -1.11      0.00
    1    1   11      9.32      0.00
    2    1   11      1.31      0.00
    3    1   11      1.00      0.00
    4    1   11      0.43      0.00
    5    1   11     -4.83      0.00
    6    1   11     -0.45      0.00
    7    1   11      4.85      0.00
    8    1   11     -0.13      0.00
    9    1   11     -2.92      0.00
   10    1   11      0.41      0.00
   11    1   11     -1.03      0.00
   12    1   11      0.02      0.00
   13    1   11     -1.13      0.00
   14    1   11     -0.12      0.00
   15    1   11     -0.80      0.00
   16    1   11      0.33      0.00
  -21    2   11      0.48      0.00
  -20    2   11     -0.67      0.00
  -19    2   11      0.70      0.00
  -18    2   11     -0.73      0.00
  -17    2   11     -1.69      0.00
  -16    2   11     -0.50      0.00
  -15    2   11      1.59      0.00
  -14    2   11     -0.32      0.00
  -13    2   11      0.33      0.00
  -12    2   11     -0.26      0.00
  -11    2   11     -5.76      0.00
  -10    2   11     -0.33      0.00
   -9    2   11      3.58      0.00
   -8    2   11      0.68      0.00
   -7    2   11     -9.89      0.00
   -6    2   11      3.79      0.00
   -5    2   11      4.30      0.00
   -4    2   11      2.29      0.00
   -3    2   11     -5.02      0.00
   -2    2   11     -0.93      0.00
   -1    2   11      3.23      0.00
    0    2   11      0.41      0.00
    1    2   11      7.03      0.00
    2    2   11     -0.55      0.00
    3    2   11     -9.84      0.00
    4    2   11      0.08      0.00
    5    2   11      1.17      0.00
    6    2   11      0.21      0.00
    7    2   11      0.93      0.00
    8    2   11     -0.70      0.00
    9    2   11     -2.20      0.00
   10    2   11     -0.11      0.00
   11    2   11     -0.71      0.00
   12    2   11      0.11      0.00
   13    2   11      0.41      0.00
   14    2   11     -0.32      0.00
   15    2   11     -0.96      0.00
   16    2   11      1.03      0.00
  -21    3   11      0.71      0.00
  -20    3   11     -1.10      0.00
  -19    3   11     -0.70      0.00
  -18    3   11      0.57      0.00
  -17    3   11      1.25      0.00
  -16    3   11     -0.35      0.00
  -15    3   11      2.06      0.00
  -14    3   11     -1.89      0.00
  -13    3   11     -5.32      0.00
  -12    3   11     -2.22      0.00
  -11    3   11      4.12      0.00
  -10    3   11     -1.39      0.00
   -9    3   11     -1.88      0.00
   -8    3   11     -1.59      0.00
   -7    3   11     -5.92      0.00
   -6    3   11     -0.33      0.00
   -5    3   11      1.65      0.00
   -4    3   11     -3.38      0.00
   -3    3   11     -6.89      0.00
   -2    3   11      1.06      0.00
   -1    3   11      7.27      0.00
    0    3   11      2.07      0.00
    1    3   11     -8.98      0.00
    2    3   11     -2.98      0.00
    3    3   11     -0.34      0.00
    4    3   11     -0.71      0.00
    5    3   11      5.61      0.00
    6    3   11      0.17      0.00
    7    3   11     -4.63      0.00
    8    3   11      0.33      0.00
    9    3   11      1.74      0.00
   10    3   11     -0.96      0.00
   11    3   11      1.79      0.00
   12    3   11     -0.36      0.00
   13    3   11      0.48      0.00
   14    3   11      0.03      0.00
   15    3   11      0.75      0.00
   16    3   11     -0.84      0.00
  -20    4   11      0.72      0.00
  -19    4   11     -0.78      0.00
  -18    4   11      0.84      0.00
  -17    4   11      1.40      0.00
  -16    4   11      0.17      0.00
  -15    4   11     -2.33      0.00
  -14    4   11      0.03      0.00
  -13    4   11     -0.04      0.00
  -12    4   11      0.91      0.00
  -11    4   11      4.48      0.00
  -10    4   11      0.12      0.00
   -9    4   11     -5.23      0.00
   -8    4   11     -1.11      0.00
   -7    4   11      6.21      0.00
   -6    4   11     -4.13      0.00
   -5    4   11     -3.31      0.00
   -4    4   11     -3.37      0.00
   -3    4   11      5.59      0.00
   -2    4   11      1.67      0.00
   -1    4   11     -2.19      0.00
    0    4   11     -1.70      0.00
    1    4   11     -7.77      0.00
    2    4   11      1.48      0.00
    3    4   11      7.93      0.00
    4    4   11      0.90      0.00
    5    4   11      0.15      0.00
    6    4   11     -0.12      0.00
    7    4   11      0.90      0.00
    8    4   11      0.48      0.00
    9    4   11      0.89      0.00
   10    4   11      0.49      0.00
   11    4   11      1.25      0.00
   12    4   11      0.48      0.00
   13    4   11     -0.99      0.00
   14    4   11      0.09      0.00
   15    4   11      0.52      0.00
   16    4   11     -0.90      0.00
  -20    5   11      0.33      0.00
  -19    5   11      0.25      0.00
  -18    5   11     -0.46      0.00
  -17    5   11     -0.70      0.00
  -16    5   11      0.06      0.00
  -15    5   11     -0.58      0.00
  -14    5   11      0.73      0.00
  -13    5   11      5.20      0.00
  -12    5   11      1.10      0.00
  -11    5   11     -3.80      0.00
  -10    5   11      1.36      0.00
   -9    5   11      0.87      0.00
   -8    5   11      2.78      0.00
   -7    5   11      5.15      0.00
   -6    5   11     -0.43      0.00
   -5    5   11     -0.61      0.00
   -4    5   11      3.80      0.00
   -3    5   11      5.56      0.00
   -2    5   11     -0.86      0.00
   -1    5   11     -8.83      0.00
    0    5   11     -1.19      0.00
    1    5   11      7.29      0.00
    2    5   11      3.41      0.00
    3    5   11     -0.45      0.00
    4    5   11      0.78      0.00
    5    5   11     -4.52      0.00
    6    5   11      1.97      0.00
    7    5   11      3.55      0.00
    8    5   11     -0.10      0.00
    9    5   11     -0.39      0.00
   10    5   11      0.86      0.00
   11    5   11     -1.69      0.00
   12    5   11      0.81      0.00
   13    5   11      0.24      0.00
   14    5   11      0.11      0.00
   15    5   11     -0.76      0.00
  -20    6   11     -0.16      0.00
  -19    6   11      0.37      0.00
  -18    6   11     -0.47      0.00
  -17    6   11     -0.36      0.00
  -16    6   11      0.15      0.00
  -15    6   11      1.69      0.00
  -14    6   11      0.34      0.00
  -13    6   11     -1.16      0.00
  -12    6   11     -0.57      0.00
  -11    6   11     -3.24      0.00
  -10    6   11      0.99      0.00
   -9    6   11      6.08      0.00
   -8    6   11      0.89      0.00
   -7    6   11     -3.57      0.00
   -6    6   11      2.66      0.00
   -5    6   11      2.41      0.00
   -4    6   11      3.91      0.00
   -3    6   11     -5.52      0.00
   -2    6   11     -1.28      0.00
   -1    6   11      1.19      0.00
    0    6   11      2.09      0.00
    1    6   11      7.02      0.00
    2    6   11     -3.41      0.00
    3    6   11     -6.17      0.00
    4    6   11     -1.80      0.00
    5    6   11     -0.03      0.00
    6    6   11      0.31      0.00
    7    6   11     -1.98      0.00
    8    6   11     -0.23      0.00
    9    6   11     -0.09      0.00
   10    6   11     -0.32      0.00
   11    6   11     -1.16      0.00
   12    6   11     -0.74      0.00
   13    6   11      1.54      0.00
   14    6   11      0.01      0.00
   15    6   11      0.30      0.00
  -20    7   11      0.51      0.00
  -19    7   11     -0.09      0.00
  -18    7   11      0.58      0.00
  -17    7   11      0.52      0.00
  -16    7   11      0.42      0.00
  -15    7   11      0.35      0.00
  -14    7   11     -0.06      0.00
  -13    7   11     -3.79      0.00
  -12    7   11      0.28      0.00
  -11    7   11      2.66      0.00
  -10    7   11     -1.20      0.00
   -9    7   11     -0.48      0.00
   -8    7   11     -3.04      0.00
   -7    7   11     -3.60      0.00
   -6    7   11      0.43      0.00
   -5    7   11      0.11      0.00
   -4    7   11     -2.16      0.00
   -3    7   11     -4.59      0.00
   -2    7   11      1.21      0.00
   -1    7   11      8.03      0.00
    0    7   11     -0.53      0.00
    1    7   11     -5.86      0.00
    2    7   11     -3.13      0.00
    3    7   11     -0.41      0.00
    4    7   11     -0.78      0.00
    5    7   11      1.97      0.00
    6    7   11     -3.55      0.00
    7    7   11     -1.94      0.00
    8    7   11     -0.30      0.00
    9    7   11     -0.22      0.00
   10    7   11     -0.47      0.00
   11    7   11      0.91      0.00
   12    7   11     -0.81      0.00
   13    7   11     -0.31      0.00
   14    7   11      0.31      0.00
   15    7   11      0.46      0.00
  -19    8   11      0.10      0.00
  -18    8   11      0.32      0.00
  -17    8   11     -0.34      0.00
  -16    8   11      0.06      0.00
  -15    8   11     -0.75      0.00
  -14    8   11     -0.05      0.00
  -13    8   11      1.05      0.00
  -12    8   11     -0.55      0.00
  -11    8   11      2.13      0.00
  -10    8   11     -2.15      0.00
   -9    8   11     -5.13      0.00
   -8    8   11     -0.42      0.00
   -7    8   11      2.68      0.00
   -6    8   11     -1.23      0.00
   -5    8   11     -2.24      0.00
   -4    8   11     -3.41      0.00
   -3    8   11      5.39      0.00
   -2    8   11     -0.23      0.00
   -1    8   11      0.85      0.00
    0    8   11     -2.27      0.00
    1    8   11     -5.37      0.00
    2    8   11      3.57      0.00
    3    8   11      4.19      0.00
    4    8   11      1.09      0.00
    5    8   11     -1.53      0.00
    6    8   11     -0.41      0.00
    7    8   11      1.48      0.00
    8    8   11      1.06      0.00
    9    8   11      0.05      0.00
   10    8   11     -0.41      0.00
   11    8   11      0.10      0.00
   12    8   11      0.54      0.00
   13    8   11     -1.18      0.00
   14    8   11      0.59      0.00
  -19    9   11      0.06      0.00
  -18    9   11     -0.70      0.00
  -17    9   11      0.07      0.00
  -16    9   11     -0.71      0.00
  -15    9   11     -0.88      0.00
  -14    9   11     -0.07      0.00
  -13    9   11      1.84      0.00
  -12    9   11     -0.72      0.00
  -11    9   11     -2.09      0.00
  -10    9   11      1.88      0.00
   -9    9   11      0.38      0.00
   -8    9   11      2.36      0.00
   -7    9   11      1.41      0.00
   -6    9   11      0.20      0.00
   -5    9   11     -0.88      0.00
   -4    9   11      0.86      0.00
   -3    9   11      4.16      0.00
   -2    9   11     -0.23      0.00
   -1    9   11     -5.64      0.00
    0    9   11      2.08      0.00
    1    9   11      4.35      0.00
    2    9   11      2.23      0.00
    3    9   11      1.84      0.00
    4    9   11     -0.12      0.00
    5    9   11     -0.32      0.00
    6    9   11      2.83      0.00
    7    9   11      1.58      0.00
    8    9   11      0.45      0.00
    9    9   11      0.48      0.00
   10    9   11      0.14      0.00
   11    9   11     -0.34      0.00
   12    9   11      0.12      0.00
   13    9   11     -0.12      0.00
   14    9   11     -0.62      0.00
  -18   10   11     -0.46      0.00
  -17   10   11      0.01      0.00
  -16   10   11     -0.01      0.00
  -15   10   11      0.37      0.00
  -14   10   11     -0.22      0.00
  -13   10   11      0.30      0.00
  -12   10   11      0.85      0.00
  -11   10   11     -0.82      0.00
  -10   10   11      1.68      0.00
   -9   10   11      3.44      0.00
   -8   10   11      0.14      0.00
   -7   10   11     -2.69      0.00
   -6   10   11      0.43      0.00
   -5   10   11      2.70      0.00
   -4   10   11      2.57      0.00
   -3   10   11     -3.86      0.00
   -2   10   11      1.40      0.00
   -1   10   11     -1.89      0.00
    0   10   11      2.96      0.00
    1   10   11      3.90      0.00
    2   10   11     -1.49      0.00
    3   10   11     -2.95      0.00
    4   10   11      0.26      0.00
    5   10   11      2.06      0.00
    6   10   11      0.16      0.00
    7   10   11     -0.54      0.00
    8   10   11     -1.66      0.00
    9   10   11     -0.07      0.00
   10   10   11      1.08      0.00
   11   10   11      0.65      0.00
   12   10   11     -0.77      0.00
   13   10   11      0.32      0.00
   14   10   11     -1.34      0.00
  -18   11   11      0.26      0.00
  -17   11   11     -0.81      0.00
  -16   11   11      0.47      0.00
  -15   11   11      1.74      0.00
  -14   11   11      0.42      0.00
  -13   11   11     -0.96      0.00
  -12   11   11      0.39      0.00
  -11   11   11      1.33      0.00
  -10   11   11     -2.78      0.00
   -9   11   11     -0.25      0.00
   -8   11   11     -1.47      0.00
   -7   11   11      0.46      0.00
   -6   11   11     -0.72      0.00
   -5   11   11      1.86      0.00
   -4   11   11     -0.99      0.00
   -3   11   11     -3.82      0.00
   -2   11   11     -0.75      0.00
   -1   11   11      4.30      0.00
    0   11   11     -2.09      0.00
    1   11   11     -2.01      0.00
    2   11   11     -1.70      0.00
    3   11   11     -1.67      0.00
    4   11   11      0.71      0.00
    5   11   11     -0.21      0.00
    6   11   11     -1.76      0.00
    7   11   11     -2.09      0.00
    8   11   11     -0.29      0.00
    9   11   11     -0.39      0.00
   10   11   11      0.13      0.00
   11   11   11     -0.09      0.00
   12   11   11      0.66      0.00
   13   11   11      0.27      0.00
  -17   12   11      0.40      0.00
  -16   12   11     -0.29      0.00
  -15   12   11     -0.30      0.00
  -14   12   11     -0.11      0.00
  -13   12   11     -0.54      0.00
  -12   12   11     -0.93      0.00
  -11   12   11     -0.28      0.00
  -10   12   11     -0.35      0.00
   -9   12   11     -2.55      0.00
   -8   12   11      0.09      0.00
   -7   12   11      2.07      0.00
   -6   12   11     -0.47      0.00
   -5   12   11     -3.13      0.00
   -4   12   11     -2.43      0.00
   -3   12   11      1.69      0.00
   -2   12   11     -1.14      0.00
   -1   12   11      1.85      0.00
    0   12   11     -2.78      0.00
    1   12   11     -2.67      0.00
    2   12   11      0.31      0.00
    3   12   11      2.14      0.00
    4   12   11     -0.68      0.00
    5   12   11     -1.52      0.00
    6   12   11     -0.27      0.00
    7   12   11      0.01      0.00
    8   12   11      1.14      0.00
    9   12   11      0.05      0.00
   10   12   11     -1.20      0.00
   11   12   11      0.26      0.00
   12   12   11      1.13      0.00
  -17   13   11      0.85      0.00
  -16   13   11     -0.02      0.00
  -15   13   11     -2.07      0.00
  -14   13   11     -0.33      0.00
  -13   13   11      0.97      0.00
  -12   13   11      0.36      0.00
  -11   13   11     -0.58      0.00
  -10   13   11      2.39      0.00
   -9   13   11     -0.07      0.00
   -8   13   11     -0.23      0.00
   -7   13   11     -1.25      0.00
   -6   13   11      0.42      0.00
   -5   13   11     -2.83      0.00
   -4   13   11      1.45      0.00
   -3   13   11      2.41      0.00
   -2   13   11      0.44      0.00
   -1   13   11     -4.14      0.00
    0   13   11      1.58      0.00
    1   13   11      0.88      0.00
    2   13   11      1.53      0.00
    3   13   11      0.76      0.00
    4   13   11     -0.68      0.00
    5   13   11      0.35      0.00
    6   13   11      1.31      0.00
    7   13   11      1.50      0.00
    8   13   11      0.09      0.00
    9   13   11     -0.06      0.00
   10   13   11      0.03      0.00
   11   13   11      0.28      0.00
   12   13   11     -0.46      0.00
  -16   14   11      0.23      0.00
  -15   14   11      0.44      0.00
  -14   14   11      0.57      0.00
  -13   14   11     -0.12      0.00
  -12   14   11      1.51      0.00
  -11   14   11      0.65      0.00
  -10   14   11     -0.39      0.00
   -9   14   11      1.71      0.00
   -8   14   11     -0.43      0.00
   -7   14   11     -1.13      0.00
   -6   14   11      0.56      0.00
   -5   14   11      2.77      0.00
   -4   14   11      1.44      0.00
   -3   14   11     -0.65      0.00
   -2   14   11     -0.11      0.00
   -1   14   11     -1.79      0.00
    0   14   11      1.92      0.00
    1   14   11      2.02      0.00
    2   14   11     -0.27      0.00
    3   14   11     -1.23      0.00
    4   14   11      0.27      0.00
    5   14   11      0.77      0.00
    6   14   11      0.47      0.00
    7   14   11      0.16      0.00
    8   14   11     -0.53      0.00
    9   14   11     -0.50      0.00
   10   14   11      0.48      0.00
   11   14   11     -1.35      0.00
  -15   15   11      1.17      0.00
  -14   15   11      0.07      0.00
  -13   15   11     -0.73      0.00
  -12   15   11     -0.43      0.00
  -11   15   11      1.05      0.00
  -10   15   11     -0.95      0.00
   -9   15   11      0.52      0.00
   -8   15   11      1.90      0.00
   -7   15   11      0.99      0.00
   -6   15   11      0.42      0.00
   -5   15   11      2.80      0.00
   -4   15   11     -1.18      0.00
   -3   15   11     -1.01      0.00
   -2   15   11     -0.22      0.00
   -1   15   11      3.99      0.00
    0   15   11     -1.99      0.00
    1   15   11     -0.63      0.00
    2   15   11     -0.67      0.00
    3   15   11     -0.38      0.00
    4   15   11      0.77      0.00
    5   15   11     -0.29      0.00
    6   15   11     -0.81      0.00
    7   15   11     -0.41      0.00
    8   15   11     -0.15      0.00
    9   15   11      0.04      0.00
   10   15   11     -0.43      0.00
  -14   16   11     -0.90      0.00
  -13   16   11      0.57      0.00
  -12   16   11     -1.38      0.00
  -11   16   11     -0.21      0.00
  -10   16   11      0.94      0.00
   -9   16   11     -0.47      0.00
   -8   16   11      0.62      0.00
   -7   16   11      0.64      0.00
   -6   16   11     -0.22      0.00
   -5   16   11     -1.74      0.00
   -4   16   11      0.09      0.00
   -3   16   11      0.13      0.00
   -2   16   11      1.00      0.00
   -1   16   11      0.76      0.00
    0   16   11     -0.89      0.00
    1   16   11     -2.10      0.00
    2   16   11      0.64      0.00
    3   16   11      1.05      0.00
    4   16   11      0.37      0.00
    5   16   11      0.10      0.00
    6   16   11     -0.33      0.00
    7   16   11     -0.25      0.00
    8   16   11      0.03      0.00
    9   16   11      1.12      0.00
  -13   17   11      0.25      0.00
  -12   17   11     -0.25      0.00
  -11   17   11     -1.53      0.00
  -10   17   11     -0.07      0.00
   -9   17   11     -0.12      0.00
   -8   17   11     -1.92      0.00
   -7   17   11     -0.56      0.00
   -6   17   11     -0.91      0.00
   -5   17   11     -1.76      0.00
   -4   17   11      0.22      0.00
   -3   17   11      0.64      0.00
   -2   17   11     -0.07      0.00
   -1   17   11     -3.03      0.00
    0   17   11      2.11      0.00
    1   17   11      0.13      0.00
    2   17   11      0.01      0.00
    3   17   11      0.79      0.00
    4   17   11     -0.41      0.00
    5   17   11      0.35      0.00
    6   17   11      0.50      0.00
    7   17   11     -0.11      0.00
    8   17   11      0.22      0.00
  -11   18   11     -0.48      0.00
  -10   18   11     -0.93      0.00
   -9   18   11      0.00      0.00
   -8   18   11     -0.15      0.00
   -7   18   11     -0.38      0.00
   -6   18   11     -0.52      0.00
   -5   18   11      0.85      0.00
   -4   18   11     -0.43      0.00
   -3   18   11      0.23      0.00
   -2   18   11     -1.04      0.00
   -1   18   11      0.49      0.00
    0   18   11     -0.15      0.00
    1   18   11      2.13      0.00
    2   18   11     -1.40      0.00
    3   18   11     -0.80      0.00
    4   18   11     -0.41      0.00
    5   18   11     -0.17      0.00
    6   18   11      0.06      0.00
    7   18   11      0.34      0.00
  -10   19   11      0.13      0.00
   -9   19   11     -0.65      0.00
   -8   19   11      1.03      0.00
   -7   19   11      0.54      0.00
   -6   19   11      0.98      0.00
   -5   19   11      0.87      0.00
   -4   19   11      0.27      0.00
   -3   19   11     -0.59      0.00
   -2   19   11      0.45      0.00
   -1   19   11      1.22      0.00
    0   19   11     -1.40      0.00
    1   19   11     -0.23      0.00
    2   19   11     -0.27      0.00
    3   19   11     -1.21      0.00
    4   19   11      0.02      0.00
    5   19   11     -0.46      0.00
   -7   20   11      0.65      0.00
   -6   20   11      1.24      0.00
   -5   20   11     -0.53      0.00
   -4   20   11     -0.04      0.00
   -3   20   11     -0.27      0.00
   -2   20   11      0.55      0.00
   -1   20   11     -0.72      0.00
    0   20   11      0.18      0.00
    1   20   11     -1.69      0.00
    2   20   11      1.42      0.00
  -20    0   12      0.93      0.00
  -18    0   12     -1.25      0.00
  -16    0   12     -1.21      0.00
  -14    0   12      2.85      0.00
  -12    0   12     -6.53      0.00
  -10    0   12     -0.69      0.00
   -8    0   12     -4.77      0.00
   -6    0   12     -8.29      0.00
   -4    0   12      3.78      0.00
   -2    0   12     -5.16      0.00
    0    0   12      9.31      0.00
    2    0   12     -4.16      0.00
    4    0   12     -2.04      0.00
    6    0   12      7.00      0.00
    8    0   12     -2.98      0.00
   10    0   12     -0.15      0.00
   12    0   12      0.24      0.00
   14    0   12     -0.74      0.00
  -21    1   12     -0.57      0.00
  -20    1   12      0.39      0.00
  -19    1   12      0.04      0.00
  -18    1   12      0.28      0.00
  -17    1   12      0.19      0.00
  -16    1   12      3.80      0.00
  -15    1   12     -0.67      0.00
  -14    1   12     -0.47      0.00
  -13    1   12     -1.21      0.00
  -12    1   12     -1.35      0.00
  -11    1   12     -0.71      0.00
  -10    1   12      6.47      0.00
   -9    1   12     -0.53      0.00
   -8    1   12     -7.24      0.00
   -7    1   12     -0.48      0.00
   -6    1   12      7.33      0.00
   -5    1   12     -1.22      0.00
   -4    1   12     -3.67      0.00
   -3    1   12     -0.61      0.00
   -2    1   12      0.10      0.00
   -1    1   12      0.93      0.00
    0    1   12      0.68      0.00
    1    1   12     -0.51      0.00
    2    1   12     -6.69      0.00
    3    1   12     -0.37      0.00
    4    1   12      7.45      0.00
    5    1   12      0.70      0.00
    6    1   12     -2.04      0.00
    7    1   12      0.31      0.00
    8    1   12     -0.43      0.00
    9    1   12     -0.27      0.00
   10    1   12      2.03      0.00
   11    1   12      0.06      0.00
   12    1   12      2.04      0.00
   13    1   12      0.15      0.00
   14    1   12      0.20      0.00
   15    1   12      0.00      0.00
  -21    2   12      0.46      0.00
  -20    2   12     -0.94      0.00
  -19    2   12      0.84      0.00
  -18    2   12      1.21      0.00
  -17    2   12      0.30      0.00
  -16    2   12      0.98      0.00
  -15    2   12      0.62      0.00
  -14    2   12     -3.24      0.00
  -13    2   12      0.25      0.00
  -12    2   12      6.24      0.00
  -11    2   12      1.19      0.00
  -10    2   12      0.03      0.00
   -9    2   12      0.59      0.00
   -8    2   12      3.39      0.00
   -7    2   12     -0.74      0.00
   -6    2   12      7.58      0.00
   -5    2   12     -1.90      0.00
   -4    2   12     -3.22      0.00
   -3    2   12      0.53      0.00
   -2    2   12      5.61      0.00
   -1    2   12     -0.32      0.00
    0    2   12     -9.49      0.00
    1    2   12     -0.19      0.00
    2    2   12      3.48      0.00
    3    2   12      1.73      0.00
    4    2   12      2.38      0.00
    5    2   12     -1.78      0.00
    6    2   12     -5.62      0.00
    7    2   12      1.16      0.00
    8    2   12      2.72      0.00
    9    2   12      0.35      0.00
   10    2   12      0.28      0.00
   11    2   12     -0.25      0.00
   12    2   12     -0.38      0.00
   13    2   12      0.54      0.00
   14    2   12      0.86      0.00
   15    2   12     -0.66      0.00
  -20    3   12     -0.29      0.00
  -19    3   12     -0.13      0.00
  -18    3   12      0.07      0.00
  -17    3   12     -0.35      0.00
  -16    3   12     -2.19      0.00
  -15    3   12      1.04      0.00
  -14    3   12      1.88      0.00
  -13    3   12      2.14      0.00
  -12    3   12      0.57      0.00
  -11    3   12      1.54      0.00
  -10    3   12     -6.39      0.00
   -9    3   12      1.84      0.00
   -8    3   12      6.70      0.00
   -7    3   12      1.02      0.00
   -6    3   12     -6.04      0.00
   -5    3   12      2.80      0.00
   -4    3   12      3.00      0.00
   -3    3   12      2.21      0.00
   -2    3   12     -1.85      0.00
   -1    3   12     -1.96      0.00
    0    3   12     -1.32      0.00
    1    3   12      1.51      0.00
    2    3   12      6.55      0.00
    3    3   12      0.34      0.00
    4    3   12     -7.97      0.00
    5    3   12     -1.20      0.00
    6    3   12      1.45      0.00
    7    3   12     -0.31      0.00
    8    3   12      1.31      0.00
    9    3   12      0.42      0.00
   10    3   12     -1.96      0.00
   11    3   12     -0.06      0.00
   12    3   12     -1.97      0.00
   13    3   12     -0.09      0.00
   14    3   12      0.23      0.00
   15    3   12      0.27      0.00
  -20    4   12      0.63      0.00
  -19    4   12     -0.92      0.00
  -18    4   12     -0.84      0.00
  -17    4   12     -0.16      0.00
  -16    4   12     -0.68      0.00
  -15    4   12     -0.03      0.00
  -14    4   12      2.86      0.00
  -13    4   12     -0.76      0.00
  -12    4   12     -5.68      0.00
  -11    4   12     -2.05      0.00
  -10    4   12      1.59      0.00
   -9    4   12     -0.70      0.00
   -8    4   12     -0.67      0.00
   -7    4   12     -0.27      0.00
   -6    4   12     -6.22      0.00
   -5    4   12      2.68      0.00
   -4    4   12      2.38      0.00
   -3    4   12     -1.18      0.00
   -2    4   12     -5.68      0.00
   -1    4   12      0.87      0.00
    0    4   12      9.55      0.00
    1    4   12      0.04      0.00
    2    4   12     -2.62      0.00
    3    4   12     -3.47      0.00
    4    4   12     -3.17      0.00
    5    4   12      1.91      0.00
    6    4   12      2.55      0.00
    7    4   12     -1.31      0.00
    8    4   12     -2.05      0.00
    9    4   12     -0.52      0.00
   10    4   12     -0.83      0.00
   11    4   12     -0.38      0.00
   12    4   12      1.04      0.00
   13    4   12     -0.61      0.00
   14    4   12     -0.53      0.00
   15    4   12      0.71      0.00
  -20    5   12      0.01      0.00
  -19    5   12      0.30      0.00
  -18    5   12     -0.23      0.00
  -17    5   12      0.19      0.00
  -16    5   12      0.59      0.00
  -15    5   12     -0.41      0.00
  -14    5   12     -2.58      0.00
  -13    5   12     -1.10      0.00
  -12    5   12     -0.72      0.00
  -11    5   12     -1.16      0.00
  -10    5   12      5.36      0.00
   -9    5   12     -2.96      0.00
   -8    5   12     -5.86      0.00
   -7    5   12     -1.38      0.00
   -6    5   12      3.69      0.00
   -5    5   12     -2.67      0.00
   -4    5   12     -2.91      0.00
   -3    5   12     -2.70      0.00
   -2    5   12      3.45      0.00
   -1    5   12      1.97      0.00
    0    5   12      2.30      0.00
    1    5   12     -2.39      0.00
    2    5   12     -5.77      0.00
    3    5   12      0.17      0.00
    4    5   12      6.93      0.00
    5    5   12     -0.12      0.00
    6    5   12     -1.12      0.00
    7    5   12     -0.70      0.00
    8    5   12     -1.59      0.00
    9    5   12     -0.03      0.00
   10    5   12      0.95      0.00
   11    5   12     -0.16      0.00
   12    5   12      1.18      0.00
   13    5   12     -0.03      0.00
   14    5   12     -0.33      0.00
   15    5   12     -0.53      0.00
  -20    6   12      0.08      0.00
  -19    6   12      0.29      0.00
  -18    6   12      0.15      0.00
  -17    6   12     -0.11      0.00
  -16    6   12      0.49      0.00
  -15    6   12     -0.66      0.00
  -14    6   12     -1.11      0.00
  -13    6   12      0.94      0.00
  -12    6   12      5.04      0.00
  -11    6   12      1.15      0.00
  -10    6   12     -2.79      0.00
   -9    6   12      0.78      0.00
   -8    6   12     -1.24      0.00
   -7    6   12      1.78      0.00
   -6    6   12      4.64      0.00
   -5    6   12     -2.66      0.00
   -4    6   12     -1.66      0.00
   -3    6   12      0.87      0.00
   -2    6   12      5.57      0.00
   -1    6   12     -1.03      0.00
    0    6   12     -8.27      0.00
    1    6   12      1.34      0.00
    2    6   12      2.17      0.00
    3    6   12      4.59      0.00
    4    6   12      3.08      0.00
    5    6   12     -1.22      0.00
    6    6   12     -0.51      0.00
    7    6   12      1.07      0.00
    8    6   12      1.23      0.00
    9    6   12      0.40      0.00
   10    6   12      1.36      0.00
   11    6   12      0.37      0.00
   12    6   12     -1.79      0.00
   13    6   12      0.42      0.00
   14    6   12     -0.37      0.00
  -20    7   12      0.21      0.00
  -19    7   12     -0.44      0.00
  -18    7   12      0.00      0.00
  -17    7   12     -0.22      0.00
  -16    7   12      0.00      0.00
  -15    7   12      0.27      0.00
  -14    7   12      1.50      0.00
  -13    7   12      0.20      0.00
  -12    7   12      1.19      0.00
  -11    7   12      0.70      0.00
  -10    7   12     -3.65      0.00
   -9    7   12      2.94      0.00
   -8    7   12      5.05      0.00
   -7    7   12      1.73      0.00
   -6    7   12     -2.30      0.00
   -5    7   12      1.52      0.00
   -4    7   12      2.78      0.00
   -3    7   12      1.65      0.00
   -2    7   12     -3.14      0.00
   -1    7   12     -1.08      0.00
    0    7   12     -2.07      0.00
    1    7   12      2.78      0.00
    2    7   12      5.77      0.00
    3    7   12     -0.34      0.00
    4    7   12     -4.17      0.00
    5    7   12      1.36      0.00
    6    7   12      1.23      0.00
    7    7   12      1.43      0.00
    8    7   12      0.97      0.00
    9    7   12     -0.38      0.00
   10    7   12      0.02      0.00
   11    7   12      0.47      0.00
   12    7   12     -0.25      0.00
   13    7   12     -0.43      0.00
   14    7   12     -0.09      0.00
  -19    8   12      0.13      0.00
  -18    8   12      0.29      0.00
  -17    8   12      0.08      0.00
  -16    8   12     -0.40      0.00
  -15    8   12      0.39      0.00
  -14    8   12      0.45      0.00
  -13    8   12     -0.89      0.00
  -12    8   12     -3.57      0.00
  -11    8   12      0.74      0.00
  -10    8   12      2.55      0.00
   -9    8   12     -1.01      0.00
   -8    8   12      1.16      0.00
   -7    8   12     -2.13      0.00
   -6    8   12     -2.81      0.00
   -5    8   12      1.62      0.00
   -4    8   12      1.18      0.00
   -3    8   12      0.04      0.00
   -2    8   12     -5.87      0.00
   -1    8   12      1.38      0.00
    0    8   12      5.68      0.00
    1    8   12     -1.50      0.00
    2    8   12     -1.47      0.00
    3    8   12     -3.81      0.00
    4    8   12     -1.89      0.00
    5    8   12      0.84      0.00
    6    8   12      0.51      0.00
    7    8   12     -1.52      0.00
    8    8   12     -0.73      0.00
    9    8   12     -0.33      0.00
   10    8   12     -0.85      0.00
   11    8   12      0.50      0.00
   12    8   12      1.79      0.00
   13    8   12     -0.59      0.00
   14    8   12      0.90      0.00
  -19    9   12      0.45      0.00
  -18    9   12     -0.07      0.00
  -17    9   12      0.42      0.00
  -16    9   12      0.28      0.00
  -15    9   12     -0.43      0.00
  -14    9   12     -0.10      0.00
  -13    9   12      0.12      0.00
  -12    9   12     -0.85      0.00
  -11    9   12     -1.23      0.00
  -10    9   12      2.36      0.00
   -9    9   12     -2.52      0.00
   -8    9   12     -4.01      0.00
   -7    9   12     -1.79      0.00
   -6    9   12      2.32      0.00
   -5    9   12     -0.58      0.00
   -4    9   12     -2.69      0.00
   -3    9   12     -1.55      0.00
   -2    9   12      1.43      0.00
   -1    9   12     -0.47      0.00
    0    9   12      1.81      0.00
    1    9   12     -2.69      0.00
    2    9   12     -5.81      0.00
    3    9   12      0.48      0.00
    4    9   12      1.86      0.00
    5    9   12     -0.76      0.00
    6    9   12     -1.75      0.00
    7    9   12     -1.20      0.00
    8    9   12     -0.94      0.00
    9    9   12      0.60      0.00
   10    9   12     -0.12      0.00
   11    9   12     -0.39      0.00
   12    9   12     -0.06      0.00
   13    9   12      0.93      0.00
  -18   10   12     -0.20      0.00
  -17   10   12      0.05      0.00
  -16   10   12      0.50      0.00
  -15   10   12     -0.16      0.00
  -14   10   12     -1.31      0.00
  -13   10   12      0.82      0.00
  -12   10   12      1.61      0.00
  -11   10   12     -1.03      0.00
  -10   10   12     -1.89      0.00
   -9   10   12      1.38      0.00
   -8   10   12     -0.23      0.00
   -7   10   12      1.21      0.00
   -6   10   12      1.29      0.00
   -5   10   12     -0.89      0.00
   -4   10   12     -1.70      0.00
   -3   10   12     -0.65      0.00
   -2   10   12      4.89      0.00
   -1   10   12     -1.94      0.00
    0   10   12     -3.62      0.00
    1   10   12     -0.11      0.00
    2   10   12      0.89      0.00
    3   10   12      2.13      0.00
    4   10   12      1.19      0.00
    5   10   12     -0.84      0.00
    6   10   12     -0.77      0.00
    7   10   12      1.78      0.00
    8   10   12      0.56      0.00
    9   10   12      0.10      0.00
   10   10   12     -0.21      0.00
   11   10   12     -0.90      0.00
   12   10   12     -0.79      0.00
   13   10   12      1.04      0.00
  -18   11   12      0.68      0.00
  -17   11   12     -0.25      0.00
  -16   11   12     -1.08      0.00
  -15   11   12      0.22      0.00
  -14   11   12     -0.39      0.00
  -13   11   12     -0.30      0.00
  -12   11   12      0.77      0.00
  -11   11   12      2.11      0.00
  -10   11   12     -1.16      0.00
   -9   11   12      2.11      0.00
   -8   11   12      2.63      0.00
   -7   11   12      1.44      0.00
   -6   11   12     -2.72      0.00
   -5   11   12      0.51      0.00
   -4   11   12      2.52      0.00
   -3   11   12      2.13      0.00
   -2   11   12     -0.35      0.00
   -1   11   12      0.58      0.00
    0   11   12     -2.70      0.00
    1   11   12      2.66      0.00
    2   11   12      4.45      0.00
    3   11   12     -0.24      0.00
    4   11   12     -0.74      0.00
    5   11   12     -0.09      0.00
    6   11   12      1.96      0.00
    7   11   12      1.06      0.00
    8   11   12      1.26      0.00
    9   11   12     -0.85      0.00
   10   11   12     -0.16      0.00
   11   11   12      0.04      0.00
   12   11   12     -0.07      0.00
  -17   12   12     -0.12      0.00
  -16   12   12     -0.45      0.00
  -15   12   12      0.47      0.00
  -14   12   12      1.54      0.00
  -13   12   12     -0.13      0.00
  -12   12   12     -0.57      0.00
  -11   12   12      0.36      0.00
  -10   12   12      1.87      0.00
   -9   12   12     -1.57      0.00
   -8   12   12      0.33      0.00
   -7   12   12      0.03      0.00
   -6   12   12     -0.36      0.00
   -5   12   12      1.35      0.00
   -4   12   12      2.70      0.00
   -3   12   12      0.61      0.00
   -2   12   12     -3.59      0.00
   -1   12   12      1.66      0.00
    0   12   12      2.42      0.00
    1   12   12      0.74      0.00
    2   12   12     -0.56      0.00
    3   12   12     -1.21      0.00
    4   12   12     -0.75      0.00
    5   12   12      1.03      0.00
    6   12   12      0.45      0.00
    7   12   12     -1.11      0.00
    8   12   12     -0.46      0.00
    9   12   12      0.25      0.00
   10   12   12      0.17      0.00
   11   12   12      0.50      0.00
   12   12   12     -0.63      0.00
  -16   13   12      1.50      0.00
  -15   13   12      0.01      0.00
  -14   13   12      0.31      0.00
  -13   13   12     -0.17      0.00
  -12   13   12     -0.97      0.00
  -11   13   12     -2.24      0.00
  -10   13   12      0.32      0.00
   -9   13   12     -0.49      0.00
   -8   13   12     -1.33      0.00
   -7   13   12     -0.26      0.00
   -6   13   12      2.82      0.00
   -5   13   12     -0.65      0.00
   -4   13   12     -1.27      0.00
   -3   13   12     -1.97      0.00
   -2   13   12      0.68      0.00
   -1   13   12      0.09      0.00
    0   13   12      2.91      0.00
    1   13   12     -2.68      0.00
    2   13   12     -2.94      0.00
    3   13   12      0.15      0.00
    4   13   12      0.14      0.00
    5   13   12      0.34      0.00
    6   13   12     -1.10      0.00
    7   13   12     -1.44      0.00
    8   13   12     -0.95      0.00
    9   13   12      0.90      0.00
   10   13   12      0.36      0.00
   11   13   12     -0.28      0.00
  -16   14   12      0.00      0.00
  -15   14   12     -0.60      0.00
  -14   14   12     -0.85      0.00
  -13   14   12     -0.91      0.00
  -12   14   12      0.29      0.00
  -11   14   12     -0.42      0.00
  -10   14   12     -1.57      0.00
   -9   14   12      1.54      0.00
   -8   14   12     -0.64      0.00
   -7   14   12     -0.69      0.00
   -6   14   12      0.13      0.00
   -5   14   12     -1.18      0.00
   -4   14   12     -2.93      0.00
   -3   14   12      0.44      0.00
   -2   14   12      3.28      0.00
   -1   14   12     -0.82      0.00
    0   14   12     -1.97      0.00
    1   14   12     -0.35      0.00
    2   14   12      0.25      0.00
    3   14   12      0.72      0.00
    4   14   12      0.50      0.00
    5   14   12     -0.85      0.00
    6   14   12     -0.14      0.00
    7   14   12      0.48      0.00
    8   14   12      0.55      0.00
    9   14   12     -0.05      0.00
   10   14   12      0.58      0.00
  -15   15   12     -0.19      0.00
  -14   15   12     -0.18      0.00
  -13   15   12      0.55      0.00
  -12   15   12      0.27      0.00
  -11   15   12      1.22      0.00
  -10   15   12     -0.65      0.00
   -9   15   12     -1.48      0.00
   -8   15   12      0.47      0.00
   -7   15   12     -0.91      0.00
   -6   15   12     -1.94      0.00
   -5   15   12      0.09      0.00
   -4   15   12      0.10      0.00
   -3   15   12      1.38      0.00
   -2   15   12     -1.20      0.00
   -1   15   12      0.33      0.00
    0   15   12     -2.36      0.00
    1   15   12      1.97      0.00
    2   15   12      1.81      0.00
    3   15   12     -0.67      0.00
    4   15   12      0.06      0.00
    5   15   12     -0.52      0.00
    6   15   12      0.26      0.00
    7   15   12      1.73      0.00
    8   15   12      0.73      0.00
    9   15   12     -0.54      0.00
  -14   16   12      0.13      0.00
  -13   16   12      1.21      0.00
  -12   16   12     -0.29      0.00
  -11   16   12      0.28      0.00
  -10   16   12      0.53      0.00
   -9   16   12     -1.62      0.00
   -8   16   12      0.28      0.00
   -7   16   12      0.78      0.00
   -6   16   12     -0.19      0.00
   -5   16   12      0.25      0.00
   -4   16   12      2.29      0.00
   -3   16   12     -1.49      0.00
   -2   16   12     -2.42      0.00
   -1   16   12      0.06      0.00
    0   16   12      2.20      0.00
    1   16   12     -0.40      0.00
    2   16   12     -0.31      0.00
    3   16   12     -0.69      0.00
    4   16   12     -1.03      0.00
    5   16   12      0.26      0.00
    6   16   12      0.36      0.00
    7   16   12     -0.14      0.00
    8   16   12     -0.75      0.00
  -12   17   12      0.59      0.00
  -11   17   12      0.07      0.00
  -10   17   12      0.76      0.00
   -9   17   12      1.86      0.00
   -8   17   12     -0.14      0.00
   -7   17   12      1.00      0.00
   -6   17   12      0.89      0.00
   -5   17   12      1.04      0.00
   -4   17   12      0.04      0.00
   -3   17   12     -0.67      0.00
   -2   17   12      0.82      0.00
   -1   17   12     -0.55      0.00
    0   17   12      1.87      0.00
    1   17   12     -1.03      0.00
    2   17   12     -1.12      0.00
    3   17   12      0.53      0.00
    4   17   12     -0.18      0.00
    5   17   12      0.21      0.00
    6   17   12     -0.23      0.00
    7   17   12     -1.37      0.00
  -11   18   12      0.13      0.00
  -10   18   12      0.14      0.00
   -9   18   12      1.07      0.00
   -8   18   12      0.01      0.00
   -7   18   12     -0.41      0.00
   -6   18   12     -0.03      0.00
   -5   18   12      0.20      0.00
   -4   18   12     -1.26      0.00
   -3   18   12      1.53      0.00
   -2   18   12      1.03      0.00
   -1   18   12      0.36      0.00
    0   18   12     -1.95      0.00
    1   18   12      1.35      0.00
    2   18   12      0.19      0.00
    3   18   12      0.96      0.00
    4   18   12      0.95      0.00
    5   18   12     -0.08      0.00
    6   18   12     -0.85      0.00
   -9   19   12     -1.08      0.00
   -8   19   12     -0.04      0.00
   -7   19   12     -0.69      0.00
   -6   19   12     -0.62      0.00
   -5   19   12     -1.59      0.00
   -4   19   12      0.22      0.00
   -3   19   12      0.38      0.00
   -2   19   12      0.11      0.00
   -1   19   12      0.05      0.00
    0   19   12     -0.86      0.00
    1   19   12      0.85      0.00
    2   19   12      1.09      0.00
    3   19   12      0.04      0.00
    4   19   12      0.29      0.00
   -6   20   12      0.10      0.00
   -5   20   12     -0.19      0.00
   -4   20   12      0.52      0.00
   -3   20   12     -0.82      0.00
   -2   20   12     -0.23      0.00
   -1   20   12     -0.07      0.00
    0   20   12      1.09      0.00
    1   20   12     -1.29      0.00
  -19    0   13     -0.06      0.00
  -17    0   13      1.29      0.00
  -15    0   13     -1.58      0.00
  -13    0   13      1.39      0.00
  -11    0   13      4.55      0.00
   -9    0   13     -3.24      0.00
   -7    0   13     11.02      0.00
   -5    0   13     -3.87      0.00
   -3    0   13      1.44      0.00
   -1    0   13      0.09      0.00
    1    0   13     -7.24      0.00
    3    0   13      4.52      0.00
    5    0   13     -6.47      0.00
    7    0   13     -0.63      0.00
    9    0   13      1.43      0.00
   11    0   13     -0.02      0.00
   13    0   13     -0.28      0.00
   15    0   13      0.97      0.00
  -20    1   13      0.10      0.00
  -19    1   13      0.11      0.00
  -18    1   13     -0.19      0.00
  -17    1   13     -2.30      0.00
  -16    1   13      0.01      0.00
  -15    1   13     -3.66      0.00
  -14    1   13      0.95      0.00
  -13    1   13      3.44      0.00
  -12    1   13      0.81      0.00
  -11    1   13     -6.61      0.00
  -10    1   13     -0.04      0.00
   -9    1   13     -1.27      0.00
   -8    1   13      0.32      0.00
   -7    1   13     -1.10      0.00
   -6    1   13      0.38      0.00
   -5    1   13     -9.05      0.00
   -4    1   13      0.94      0.00
   -3    1   13      4.80      0.00
   -2    1   13      0.04      0.00
   -1    1   13     -5.02      0.00
    0    1   13     -0.27      0.00
    1    1   13      5.30      0.00
    2    1   13      0.57      0.00
    3    1   13     -2.58      0.00
    4    1   13     -1.09      0.00
    5    1   13     -2.49      0.00
    6    1   13      0.00      0.00
    7    1   13      3.14      0.00
    8    1   13     -0.31      0.00
    9    1   13     -2.15      0.00
   10    1   13      0.03      0.00
   11    1   13     -2.52      0.00
   12    1   13     -0.17      0.00
   13    1   13     -0.09      0.00
   14    1   13     -0.45      0.00
   15    1   13     -1.10      0.00
  -20    2   13     -1.23      0.00
  -19    2   13      0.13      0.00
  -18    2   13      0.13      0.00
  -17    2   13     -1.37      0.00
  -16    2   13     -0.42      0.00
  -15    2   13      1.79      0.00
  -14    2   13     -0.44      0.00
  -13    2   13     -1.24      0.00
  -12    2   13     -0.96      0.00
  -11    2   13     -4.09      0.00
  -10    2   13     -1.66      0.00
   -9    2   13      3.80      0.00
   -8    2   13     -1.01      0.00
   -7    2   13     -9.82      0.00
   -6    2   13      0.58      0.00
   -5    2   13      3.27      0.00
   -4    2   13     -0.62      0.00
   -3    2   13     -1.61      0.00
   -2    2   13     -0.29      0.00
   -1    2   13      0.41      0.00
    0    2   13      1.15      0.00
    1    2   13      7.10      0.00
    2    2   13     -1.60      0.00
    3    2   13     -4.60      0.00
    4    2   13      1.42      0.00
    5    2   13      5.33      0.00
    6    2   13     -0.01      0.00
    7    2   13      0.19      0.00
    8    2   13     -0.93      0.00
    9    2   13     -1.33      0.00
   10    2   13      0.01      0.00
   11    2   13      0.16      0.00
   12    2   13     -0.18      0.00
   13    2   13      0.06      0.00
   14    2   13      0.18      0.00
   15    2   13     -0.70      0.00
  -20    3   13     -0.10      0.00
  -19    3   13     -0.29      0.00
  -18    3   13      0.39      0.00
  -17    3   13      1.28      0.00
  -16    3   13      0.08      0.00
  -15    3   13      1.73      0.00
  -14    3   13     -1.59      0.00
  -13    3   13     -3.27      0.00
  -12    3   13     -1.38      0.00
  -11    3   13      6.79      0.00
  -10    3   13     -0.33      0.00
   -9    3   13      0.68      0.00
   -8    3   13     -0.91      0.00
   -7    3   13      0.27      0.00
   -6    3   13     -0.43      0.00
   -5    3   13      7.77      0.00
   -4    3   13     -2.82      0.00
   -3    3   13     -3.79      0.00
   -2    3   13      0.04      0.00
   -1    3   13      6.03      0.00
    0    3   13      0.32      0.00
    1    3   13     -5.27      0.00
    2    3   13     -1.14      0.00
    3    3   13      2.87      0.00
    4    3   13      2.65      0.00
    5    3   13      3.53      0.00
    6    3   13     -0.52      0.00
    7    3   13     -3.68      0.00
    8    3   13      0.74      0.00
    9    3   13      1.45      0.00
   10    3   13      0.24      0.00
   11    3   13      2.73      0.00
   12    3   13      0.13      0.00
   13    3   13     -0.55      0.00
   14    3   13      0.61      0.00
  -20    4   13      1.10      0.00
  -19    4   13     -0.12      0.00
  -18    4   13     -0.22      0.00
  -17    4   13      1.30      0.00
  -16    4   13      0.00      0.00
  -15    4   13     -1.34      0.00
  -14    4   13      0.42      0.00
  -13    4   13      1.39      0.00
  -12    4   13      2.13      0.00
  -11    4   13      2.99      0.00
  -10    4   13      2.43      0.00
   -9    4   13     -5.07      0.00
   -8    4   13      2.39      0.00
   -7    4   13      7.49      0.00
   -6    4   13     -0.16      0.00
   -5    4   13     -2.09      0.00
   -4    4   13      0.82      0.00
   -3    4   13      1.58      0.00
   -2    4   13      0.49      0.00
   -1    4   13     -1.43      0.00
    0    4   13     -1.48      0.00
    1    4   13     -6.32      0.00
    2    4   13      2.99      0.00
    3    4   13      4.94      0.00
    4    4   13     -1.15      0.00
    5    4   13     -2.78      0.00
    6    4   13      0.02      0.00
    7    4   13      0.61      0.00
    8    4   13      1.07      0.00
    9    4   13      1.45      0.00
   10    4   13      0.60      0.00
   11    4   13     -0.48      0.00
   12    4   13      0.32      0.00
   13    4   13     -0.23      0.00
   14    4   13     -0.33      0.00
  -20    5   13     -0.04      0.00
  -19    5   13      0.20      0.00
  -18    5   13     -0.16      0.00
  -17    5   13     -0.05      0.00
  -16    5   13     -0.06      0.00
  -15    5   13     -0.39      0.00
  -14    5   13      0.83      0.00
  -13    5   13      3.23      0.00
  -12    5   13      0.33      0.00
  -11    5   13     -5.42      0.00
  -10    5   13      0.90      0.00
   -9    5   13      0.25      0.00
   -8    5   13      1.33      0.00
   -7    5   13      1.02      0.00
   -6    5   13     -0.06      0.00
   -5    5   13     -5.32      0.00
   -4    5   13      3.31      0.00
   -3    5   13      2.88      0.00
   -2    5   13     -0.74      0.00
   -1    5   13     -6.63      0.00
    0    5   13      0.17      0.00
    1    5   13      4.86      0.00
    2    5   13      1.12      0.00
    3    5   13     -2.47      0.00
    4    5   13     -2.48      0.00
    5    5   13     -3.50      0.00
    6    5   13      1.65      0.00
    7    5   13      3.44      0.00
    8    5   13     -0.73      0.00
    9    5   13     -0.15      0.00
   10    5   13     -0.59      0.00
   11    5   13     -1.96      0.00
   12    5   13      0.21      0.00
   13    5   13      1.07      0.00
   14    5   13     -0.31      0.00
  -20    6   13     -0.15      0.00
  -19    6   13     -0.14      0.00
  -18    6   13      0.34      0.00
  -17    6   13     -0.68      0.00
  -16    6   13      0.39      0.00
  -15    6   13      0.01      0.00
  -14    6   13     -0.46      0.00
  -13    6   13     -1.91      0.00
  -12    6   13     -1.81      0.00
  -11    6   13     -2.18      0.00
  -10    6   13     -2.10      0.00
   -9    6   13      5.66      0.00
   -8    6   13     -3.48      0.00
   -7    6   13     -5.48      0.00
   -6    6   13     -0.78      0.00
   -5    6   13      1.41      0.00
   -4    6   13     -0.11      0.00
   -3    6   13     -1.88      0.00
   -2    6   13     -0.41      0.00
   -1    6   13      1.20      0.00
    0    6   13      0.44      0.00
    1    6   13      5.05      0.00
    2    6   13     -4.00      0.00
    3    6   13     -4.84      0.00
    4    6   13     -0.08      0.00
    5    6   13      1.11      0.00
    6    6   13     -0.07      0.00
    7    6   13     -0.77      0.00
    8    6   13     -0.86      0.00
    9    6   13     -1.73      0.00
   10    6   13     -0.46      0.00
   11    6   13      0.82      0.00
   12    6   13     -0.01      0.00
   13    6   13      0.93      0.00
   14    6   13      0.21      0.00
  -19    7   13      0.24      0.00
  -18    7   13     -0.19      0.00
  -17    7   13     -0.56      0.00
  -16    7   13     -0.32      0.00
  -15    7   13      0.69      0.00
  -14    7   13     -0.49      0.00
  -13    7   13     -2.65      0.00
  -12    7   13      0.59      0.00
  -11    7   13      3.26      0.00
  -10    7   13     -1.16      0.00
   -9    7   13     -1.17      0.00
   -8    7   13     -1.15      0.00
   -7    7   13     -1.71      0.00
   -6    7   13      0.26      0.00
   -5    7   13      3.26      0.00
   -4    7   13     -2.13      0.00
   -3    7   13     -2.58      0.00
   -2    7   13      0.87      0.00
   -1    7   13      5.36      0.00
    0    7   13     -0.78      0.00
    1    7   13     -4.97      0.00
    2    7   13     -0.96      0.00
    3    7   13      0.81      0.00
    4    7   13      1.59      0.00
    5    7   13      2.06      0.00
    6    7   13     -1.98      0.00
    7    7   13     -2.44      0.00
    8    7   13      0.61      0.00
    9    7   13     -0.59      0.00
   10    7   13      0.31      0.00
   11    7   13      0.74      0.00
   12    7   13     -0.18      0.00
   13    7   13     -0.66      0.00
  -19    8   13      0.20      0.00
  -18    8   13     -0.28      0.00
  -17    8   13      0.06      0.00
  -16    8   13     -0.04      0.00
  -15    8   13      0.33      0.00
  -14    8   13      1.10      0.00
  -13    8   13      1.38      0.00
  -12    8   13      0.31      0.00
  -11    8   13      1.84      0.00
  -10    8   13      1.52      0.00
   -9    8   13     -4.24      0.00
   -8    8   13      3.26      0.00
   -7    8   13      4.16      0.00
   -6    8   13      1.57      0.00
   -5    8   13     -1.52      0.00
   -4    8   13     -0.48      0.00
   -3    8   13      2.47      0.00
   -2    8   13     -0.02      0.00
   -1    8   13      0.34      0.00
    0    8   13     -0.39      0.00
    1    8   13     -4.04      0.00
    2    8   13      3.43      0.00
    3    8   13      4.06      0.00
    4    8   13      0.68      0.00
    5    8   13     -1.11      0.00
    6    8   13      0.20      0.00
    7    8   13      0.48      0.00
    8    8   13      1.18      0.00
    9    8   13      1.29      0.00
   10    8   13     -0.58      0.00
   11    8   13     -1.15      0.00
   12    8   13     -0.29      0.00
   13    8   13     -1.16      0.00
  -19    9   13     -0.39      0.00
  -18    9   13      0.31      0.00
  -17    9   13      0.41      0.00
  -16    9   13      0.53      0.00
  -15    9   13     -1.25      0.00
  -14    9   13      0.52      0.00
  -13    9   13      1.59      0.00
  -12    9   13     -0.44      0.00
  -11    9   13     -2.00      0.00
  -10    9   13      1.70      0.00
   -9    9   13      1.52      0.00
   -8    9   13      0.86      0.00
   -7    9   13      1.41      0.00
   -6    9   13     -0.11      0.00
   -5    9   13     -1.87      0.00
   -4    9   13      1.39      0.00
   -3    9   13      3.01      0.00
   -2    9   13      0.36      0.00
   -1    9   13     -3.81      0.00
    0    9   13      1.34      0.00
    1    9   13      4.44      0.00
    2    9   13      0.85      0.00
    3    9   13      0.73      0.00
    4    9   13     -1.55      0.00
    5    9   13     -0.57      0.00
    6    9   13      1.13      0.00
    7    9   13      2.08      0.00
    8    9   13     -0.65      0.00
    9    9   13      0.49      0.00
   10    9   13      0.08      0.00
   11    9   13     -0.11      0.00
   12    9   13     -0.17      0.00
   13    9   13     -0.12      0.00
  -18   10   13     -0.07      0.00
  -17   10   13     -0.18      0.00
  -16   10   13     -0.19      0.00
  -15   10   13      0.74      0.00
  -14   10   13     -1.32      0.00
  -13   10   13     -0.13      0.00
  -12   10   13      0.08      0.00
  -11   10   13     -1.28      0.00
  -10   10   13     -1.84      0.00
   -9   10   13      2.23      0.00
   -8   10   13     -1.91      0.00
   -7   10   13     -3.18      0.00
   -6   10   13     -1.03      0.00
   -5   10   13      1.99      0.00
   -4   10   13      0.86      0.00
   -3   10   13     -1.72      0.00
   -2   10   13      0.38      0.00
   -1   10   13     -0.98      0.00
    0   10   13      1.71      0.00
    1   10   13      3.35      0.00
    2   10   13     -2.12      0.00
    3   10   13     -3.43      0.00
    4   10   13     -0.45      0.00
    5   10   13      1.02      0.00
    6   10   13      0.18      0.00
    7   10   13     -0.39      0.00
    8   10   13     -1.38      0.00
    9   10   13     -0.35      0.00
   10   10   13      1.39      0.00
   11   10   13      0.91      0.00
   12   10   13      0.08      0.00
  -17   11   13      0.04      0.00
  -16   11   13     -0.32      0.00
  -15   11   13      1.34      0.00
  -14   11   13     -0.28      0.00
  -13   11   13     -1.14      0.00
  -12   11   13     -0.19      0.00
  -11   11   13      0.79      0.00
  -10   11   13     -2.23      0.00
   -9   11   13     -1.48      0.00
   -8   11   13     -0.68      0.00
   -7   11   13     -0.53      0.00
   -6   11   13     -0.24      0.00
   -5   11   13      1.26      0.00
   -4   11   13     -1.77      0.00
   -3   11   13     -3.27      0.00
   -2   11   13     -0.57      0.00
   -1   11   13      3.71      0.00
    0   11   13     -1.55      0.00
    1   11   13     -2.65      0.00
    2   11   13     -1.23      0.00
    3   11   13     -1.35      0.00
    4   11   13      1.60      0.00
    5   11   13      0.01      0.00
    6   11   13     -0.82      0.00
    7   11   13     -1.92      0.00
    8   11   13      0.68      0.00
    9   11   13     -0.14      0.00
   10   11   13     -0.05      0.00
   11   11   13      0.05      0.00
   12   11   13      0.37      0.00
  -17   12   13      0.46      0.00
  -16   12   13     -0.07      0.00
  -15   12   13     -1.51      0.00
  -14   12   13      0.36      0.00
  -13   12   13     -0.16      0.00
  -12   12   13      0.17      0.00
  -11   12   13      0.50      0.00
  -10   12   13      2.19      0.00
   -9   12   13     -1.73      0.00
   -8   12   13      0.38      0.00
   -7   12   13      2.00      0.00
   -6   12   13     -0.42      0.00
   -5   12   13     -2.37      0.00
   -4   12   13     -1.25      0.00
   -3   12   13      0.68      0.00
   -2   12   13     -0.15      0.00
   -1   12   13      0.92      0.00
    0   12   13     -1.89      0.00
    1   12   13     -2.68      0.00
    2   12   13      1.47      0.00
    3   12   13      2.48      0.00
    4   12   13     -0.07      0.00
    5   12   13     -0.35      0.00
    6   12   13     -0.88      0.00
    7   12   13      0.24      0.00
    8   12   13      1.14      0.00
    9   12   13      0.18      0.00
   10   12   13     -1.44      0.00
   11   12   13      0.16      0.00
  -16   13   13     -0.01      0.00
  -15   13   13     -1.21      0.00
  -14   13   13      0.40      0.00
  -13   13   13      1.07      0.00
  -12   13   13      0.88      0.00
  -11   13   13      0.41      0.00
  -10   13   13      1.42      0.00
   -9   13   13      1.05      0.00
   -8   13   13     -0.59      0.00
   -7   13   13     -0.01      0.00
   -6   13   13      0.31      0.00
   -5   13   13     -1.80      0.00
   -4   13   13      1.99      0.00
   -3   13   13      2.36      0.00
   -2   13   13     -0.21      0.00
   -1   13   13     -3.96      0.00
    0   13   13      1.64      0.00
    1   13   13      1.62      0.00
    2   13   13      1.38      0.00
    3   13   13      1.41      0.00
    4   13   13     -1.52      0.00
    5   13   13     -0.33      0.00
    6   13   13      1.30      0.00
    7   13   13      1.14      0.00
    8   13   13     -0.43      0.00
    9   13   13     -0.14      0.00
   10   13   13      0.14      0.00
  -15   14   13      1.27      0.00
  -14   14   13      0.71      0.00
  -13   14   13      0.03      0.00
  -12   14   13      0.25      0.00
  -11   14   13     -0.16      0.00
  -10   14   13     -1.76      0.00
   -9   14   13      1.62      0.00
   -8   14   13      0.60      0.00
   -7   14   13     -1.23      0.00
   -6   14   13      0.74      0.00
   -5   14   13      2.23      0.00
   -4   14   13      0.68      0.00
   -3   14   13     -0.65      0.00
   -2   14   13     -0.61      0.00
   -1   14   13     -0.81      0.00
    0   14   13      1.05      0.00
    1   14   13      2.25      0.00
    2   14   13     -0.78      0.00
    3   14   13     -1.46      0.00
    4   14   13      0.11      0.00
    5   14   13     -0.23      0.00
    6   14   13      0.82      0.00
    7   14   13     -0.02      0.00
    8   14   13     -1.19      0.00
    9   14   13     -0.73      0.00
  -14   15   13     -0.53      0.00
  -13   15   13     -0.50      0.00
  -12   15   13     -0.80      0.00
  -11   15   13     -0.19      0.00
  -10   15   13      0.19      0.00
   -9   15   13     -0.11      0.00
   -8   15   13      2.01      0.00
   -7   15   13     -0.41      0.00
   -6   15   13      0.15      0.00
   -5   15   13      1.97      0.00
   -4   15   13     -1.25      0.00
   -3   15   13     -1.22      0.00
   -2   15   13      0.14      0.00
   -1   15   13      3.67      0.00
    0   15   13     -1.47      0.00
    1   15   13     -1.13      0.00
    2   15   13     -0.62      0.00
    3   15   13     -0.81      0.00
    4   15   13      1.60      0.00
    5   15   13      0.43      0.00
    6   15   13     -1.63      0.00
    7   15   13     -0.90      0.00
    8   15   13     -0.03      0.00
  -13   16   13     -0.17      0.00
  -12   16   13     -0.45      0.00
  -11   16   13      0.38      0.00
  -10   16   13      1.51      0.00
   -9   16   13     -0.75      0.00
   -8   16   13     -0.86      0.00
   -7   16   13      0.83      0.00
   -6   16   13     -0.13      0.00
   -5   16   13     -1.46      0.00
   -4   16   13      0.22      0.00
   -3   16   13      0.59      0.00
   -2   16   13      1.40      0.00
   -1   16   13      0.20      0.00
    0   16   13     -0.18      0.00
    1   16   13     -1.90      0.00
    2   16   13      0.56      0.00
    3   16   13      1.45      0.00
    4   16   13      0.53      0.00
    5   16   13      0.24      0.00
    6   16   13     -0.36      0.00
    7   16   13     -0.09      0.00
  -12   17   13     -0.14      0.00
  -11   17   13     -0.49      0.00
  -10   17   13     -0.96      0.00
   -9   17   13     -0.33      0.00
   -8   17   13     -1.88      0.00
   -7   17   13      0.74      0.00
   -6   17   13     -0.87      0.00
   -5   17   13     -1.29      0.00
   -4   17   13      0.11      0.00
   -3   17   13      0.83      0.00
   -2   17   13     -0.08      0.00
   -1   17   13     -2.83      0.00
    0   17   13      0.89      0.00
    1   17   13      0.38      0.00
    2   17   13      0.16      0.00
    3   17   13      0.35      0.00
    4   17   13     -0.98      0.00
    5   17   13      0.15      0.00
    6   17   13      1.45      0.00
  -10   18   13     -1.13      0.00
   -9   18   13      0.04      0.00
   -8   18   13      0.81      0.00
   -7   18   13     -0.13      0.00
   -6   18   13     -0.36      0.00
   -5   18   13      0.48      0.00
   -4   18   13     -0.36      0.00
   -3   18   13     -0.27      0.00
   -2   18   13     -1.64      0.00
   -1   18   13      0.11      0.00
    0   18   13     -0.53      0.00
    1   18   13      1.44      0.00
    2   18   13     -1.24      0.00
    3   18   13     -1.20      0.00
    4   18   13     -0.72      0.00
   -8   19   13      1.05      0.00
   -7   19   13     -0.17      0.00
   -6   19   13      1.38      0.00
   -5   19   13      0.57      0.00
   -4   19   13      0.17      0.00
   -3   19   13     -0.89      0.00
   -2   19   13      0.40      0.00
   -1   19   13      1.36      0.00
    0   19   13     -0.67      0.00
    1   19   13     -0.22      0.00
    2   19   13     -0.36      0.00
  -20    0   14      0.44      0.00
  -18    0   14     -0.84      0.00
  -16    0   14      0.14      0.00
  -14    0   14      2.34      0.00
  -12    0   14     -4.19      0.00
  -10    0   14      3.71      0.00
   -8    0   14     -1.69      0.00
   -6    0   14     -3.18      0.00
   -4    0   14      7.59      0.00
   -2    0   14     -6.54      0.00
    0    0   14      8.33      0.00
    2    0   14     -0.12      0.00
    4    0   14      1.44      0.00
    6    0   14      3.59      0.00
    8    0   14     -1.54      0.00
   10    0   14     -0.54      0.00
   12    0   14      0.91      0.00
   14    0   14     -0.87      0.00
  -20    1   14      1.53      0.00
  -19    1   14      0.22      0.00
  -18    1   14      0.52      0.00
  -17    1   14      0.09      0.00
  -16    1   14      3.63      0.00
  -15    1   14     -0.36      0.00
  -14    1   14     -0.58      0.00
  -13    1   14     -0.74      0.00
  -12    1   14      0.81      0.00
  -11    1   14      0.25      0.00
  -10    1   14      7.24      0.00
   -9    1   14      0.45      0.00
   -8    1   14     -3.08      0.00
   -7    1   14      0.20      0.00
   -6    1   14     10.91      0.00
   -5    1   14     -0.30      0.00
   -4    1   14      0.32      0.00
   -3    1   14     -0.53      0.00
   -2    1   14     -0.45      0.00
   -1    1   14      0.07      0.00
    0    1   14      2.47      0.00
    1    1   14     -0.38      0.00
    2    1   14     -4.72      0.00
    3    1   14      0.80      0.00
    4    1   14      4.03      0.00
    5    1   14      0.05      0.00
    6    1   14     -1.53      0.00
    7    1   14      0.61      0.00
    8    1   14     -0.19      0.00
    9    1   14     -0.02      0.00
   10    1   14      2.95      0.00
   11    1   14      0.24      0.00
   12    1   14      0.52      0.00
   13    1   14      0.63      0.00
   14    1   14      0.40      0.00
  -20    2   14     -0.32      0.00
  -19    2   14      0.00      0.00
  -18    2   14      0.75      0.00
  -17    2   14     -0.04      0.00
  -16    2   14     -0.08      0.00
  -15    2   14      0.16      0.00
  -14    2   14     -2.41      0.00
  -13    2   14      0.65      0.00
  -12    2   14      3.93      0.00
  -11    2   14      1.52      0.00
  -10    2   14     -3.80      0.00
   -9    2   14      1.39      0.00
   -8    2   14      0.96      0.00
   -7    2   14      0.36      0.00
   -6    2   14      3.23      0.00
   -5    2   14      0.12      0.00
   -4    2   14     -6.85      0.00
   -3    2   14      0.98      0.00
   -2    2   14      5.58      0.00
   -1    2   14     -0.97      0.00
    0    2   14     -8.16      0.00
    1    2   14     -0.26      0.00
    2    2   14      0.36      0.00
    3    2   14      0.23      0.00
    4    2   14     -0.81      0.00
    5    2   14     -1.61      0.00
    6    2   14     -3.04      0.00
    7    2   14      1.47      0.00
    8    2   14      1.77      0.00
    9    2   14      0.05      0.00
   10    2   14      0.24      0.00
   11    2   14     -0.14      0.00
   12    2   14     -0.63      0.00
   13    2   14      0.24      0.00
   14    2   14      0.79      0.00
  -20    3   14     -0.95      0.00
  -19    3   14     -0.51      0.00
  -18    3   14     -0.25      0.00
  -17    3   14     -0.18      0.00
  -16    3   14     -2.15      0.00
  -15    3   14      0.48      0.00
  -14    3   14      1.38      0.00
  -13    3   14      1.03      0.00
  -12    3   14     -1.57      0.00
  -11    3   14     -0.53      0.00
  -10    3   14     -6.18      0.00
   -9    3   14     -0.76      0.00
   -8    3   14      3.53      0.00
   -7    3   14     -1.08      0.00
   -6    3   14     -9.15      0.00
   -5    3   14      0.92      0.00
   -4    3   14     -0.11      0.00
   -3    3   14      1.17      0.00
   -2    3   14     -0.40      0.00
   -1    3   14     -0.31      0.00
    0    3   14     -2.52      0.00
    1    3   14      0.97      0.00
    2    3   14      4.14      0.00
    3    3   14     -1.97      0.00
    4    3   14     -4.96      0.00
    5    3   14      0.03      0.00
    6    3   14      1.91      0.00
    7    3   14     -1.15      0.00
    8    3   14      0.82      0.00
    9    3   14     -0.33      0.00
   10    3   14     -2.91      0.00
   11    3   14     -0.53      0.00
   12    3   14     -0.03      0.00
   13    3   14     -0.85      0.00
   14    3   14      0.01      0.00
  -20    4   14     -0.16      0.00
  -19    4   14      0.18      0.00
  -18    4   14     -0.50      0.00
  -17    4   14      0.14      0.00
  -16    4   14     -0.43      0.00
  -15    4   14      0.30      0.00
  -14    4   14      1.91      0.00
  -13    4   14     -1.41      0.00
  -12    4   14     -3.56      0.00
  -11    4   14     -2.47      0.00
  -10    4   14      4.23      0.00
   -9    4   14     -2.31      0.00
   -8    4   14      0.29      0.00
   -7    4   14     -1.36      0.00
   -6    4   14     -3.42      0.00
   -5    4   14     -0.02      0.00
   -4    4   14      5.41      0.00
   -3    4   14     -1.30      0.00
   -2    4   14     -3.69      0.00
   -1    4   14      1.28      0.00
    0    4   14      7.43      0.00
    1    4   14     -0.26      0.00
    2    4   14     -0.99      0.00
    3    4   14     -1.21      0.00
    4    4   14     -0.57      0.00
    5    4   14      2.04      0.00
    6    4   14      1.84      0.00
    7    4   14     -1.72      0.00
    8    4   14     -2.28      0.00
    9    4   14     -0.55      0.00
   10    4   14     -0.02      0.00
   11    4   14      0.14      0.00
   12    4   14      0.58      0.00
   13    4   14     -0.25      0.00
   14    4   14     -0.15      0.00
  -20    5   14      0.66      0.00
  -19    5   14      0.30      0.00
  -18    5   14     -0.05      0.00
  -17    5   14     -0.11      0.00
  -16    5   14      0.75      0.00
  -15    5   14     -0.12      0.00
  -14    5   14     -1.58      0.00
  -13    5   14      0.33      0.00
  -12    5   14      1.02      0.00
  -11    5   14      0.64      0.00
  -10    5   14      4.30      0.00
   -9    5   14      0.60      0.00
   -8    5   14     -3.96      0.00
   -7    5   14      1.95      0.00
   -6    5   14      6.36      0.00
   -5    5   14     -1.02      0.00
   -4    5   14     -0.57      0.00
   -3    5   14     -0.58      0.00
   -2    5   14      1.14      0.00
   -1    5   14      0.75      0.00
    0    5   14      2.09      0.00
    1    5   14     -1.33      0.00
    2    5   14     -3.65      0.00
    3    5   14      1.91      0.00
    4    5   14      4.86      0.00
    5    5   14     -0.41      0.00
    6    5   14     -2.14      0.00
    7    5   14      0.61      0.00
    8    5   14     -1.49      0.00
    9    5   14      0.79      0.00
   10    5   14      2.02      0.00
   11    5   14      0.36      0.00
   12    5   14     -0.79      0.00
   13    5   14      0.23      0.00
  -19    6   14     -0.41      0.00
  -18    6   14      0.00      0.00
  -17    6   14      0.03      0.00
  -16    6   14      1.07      0.00
  -15    6   14     -0.38      0.00
  -14    6   14     -0.79      0.00
  -13    6   14      1.36      0.00
  -12    6   14      3.56      0.00
  -11    6   14      1.78      0.00
  -10    6   14     -4.22      0.00
   -9    6   14      2.64      0.00
   -8    6   14     -0.66      0.00
   -7    6   14      2.51      0.00
   -6    6   14      3.21      0.00
   -5    6   14     -0.33      0.00
   -4    6   14     -3.81      0.00
   -3    6   14      0.68      0.00
   -2    6   14      3.23      0.00
   -1    6   14     -0.61      0.00
    0    6   14     -5.90      0.00
    1    6   14      1.23      0.00
    2    6   14      1.29      0.00
    3    6   14      2.43      0.00
    4    6   14      1.21      0.00
    5    6   14     -1.59      0.00
    6    6   14     -1.09      0.00
    7    6   14      1.23      0.00
    8    6   14      2.40      0.00
    9    6   14      0.67      0.00
   10    6   14      0.16      0.00
   11    6   14     -0.64      0.00
   12    6   14     -1.04      0.00
   13    6   14     -0.02      0.00
  -19    7   14      0.37      0.00
  -18    7   14      0.08      0.00
  -17    7   14      0.67      0.00
  -16    7   14     -0.38      0.00
  -15    7   14      0.17      0.00
  -14    7   14      0.60      0.00
  -13    7   14     -1.30      0.00
  -12    7   14      0.07      0.00
  -11    7   14     -0.32      0.00
  -10    7   14     -2.61      0.00
   -9    7   14     -0.89      0.00
   -8    7   14      3.91      0.00
   -7    7   14     -1.83      0.00
   -6    7   14     -4.01      0.00
   -5    7   14      0.28      0.00
   -4    7   14      1.18      0.00
   -3    7   14      0.09      0.00
   -2    7   14     -0.76      0.00
   -1    7   14     -0.59      0.00
    0    7   14     -0.70      0.00
    1    7   14      1.37      0.00
    2    7   14      4.07      0.00
    3    7   14     -1.35      0.00
    4    7   14     -3.37      0.00
    5    7   14      0.33      0.00
    6    7   14      2.08      0.00
    7    7   14     -0.07      0.00
    8    7   14      1.47      0.00
    9    7   14     -0.59      0.00
   10    7   14     -0.95      0.00
   11    7   14      0.18      0.00
   12    7   14      0.85      0.00
   13    7   14     -0.22      0.00
  -19    8   14      0.38      0.00
  -18    8   14      0.49      0.00
  -17    8   14     -0.58      0.00
  -16    8   14     -0.87      0.00
  -15    8   14     -0.57      0.00
  -14    8   14      0.49      0.00
  -13    8   14     -0.81      0.00
  -12    8   14     -3.11      0.00
  -11    8   14     -0.44      0.00
  -10    8   14      2.70      0.00
   -9    8   14     -2.48      0.00
   -8    8   14     -0.31      0.00
   -7    8   14     -2.69      0.00
   -6    8   14     -2.39      0.00
   -5    8   14      0.37      0.00
   -4    8   14      2.50      0.00
   -3    8   14     -0.06      0.00
   -2    8   14     -3.87      0.00
   -1    8   14      0.68      0.00
    0    8   14      4.31      0.00
    1    8   14     -0.83      0.00
    2    8   14     -1.14      0.00
    3    8   14     -2.68      0.00
    4    8   14     -0.82      0.00
    5    8   14      1.27      0.00
    6    8   14      0.86      0.00
    7    8   14     -1.08      0.00
    8    8   14     -1.74      0.00
    9    8   14     -0.25      0.00
   10    8   14      0.26      0.00
   11    8   14      1.20      0.00
   12    8   14      1.11      0.00
  -18    9   14     -0.01      0.00
  -17    9   14     -0.81      0.00
  -16    9   14      0.60      0.00
  -15    9   14     -0.35      0.00
  -14    9   14      0.16      0.00
  -13    9   14      1.23      0.00
  -12    9   14     -0.05      0.00
  -11    9   14     -0.55      0.00
  -10    9   14      1.79      0.00
   -9    9   14      0.82      0.00
   -8    9   14     -3.16      0.00
   -7    9   14      0.83      0.00
   -6    9   14      2.47      0.00
   -5    9   14      0.15      0.00
   -4    9   14     -1.81      0.00
   -3    9   14     -0.82      0.00
   -2    9   14     -0.13      0.00
   -1    9   14     -0.31      0.00
    0    9   14      0.44      0.00
    1    9   14     -1.39      0.00
    2    9   14     -4.30      0.00
    3    9   14      1.38      0.00
    4    9   14      1.89      0.00
    5    9   14      0.34      0.00
    6    9   14     -2.01      0.00
    7    9   14     -0.03      0.00
    8    9   14     -1.23      0.00
    9    9   14      0.38      0.00
   10    9   14      0.45      0.00
   11    9   14     -0.54      0.00
   12    9   14     -0.07      0.00
  -18   10   14     -0.41      0.00
  -17   10   14      0.98      0.00
  -16   10   14     -0.08      0.00
  -15   10   14      1.04      0.00
  -14   10   14     -0.95      0.00
  -13   10   14      0.77      0.00
  -12   10   14      1.90      0.00
  -11   10   14      0.63      0.00
  -10   10   14     -0.83      0.00
   -9   10   14      2.15      0.00
   -8   10   14      1.16      0.00
   -7   10   14      1.21      0.00
   -6   10   14      1.44      0.00
   -5   10   14     -0.83      0.00
   -4   10   14     -2.19      0.00
   -3   10   14     -0.13      0.00
   -2   10   14      3.21      0.00
   -1   10   14     -1.72      0.00
    0   10   14     -3.50      0.00
    1   10   14     -0.11      0.00
    2   10   14      1.22      0.00
    3   10   14      2.03      0.00
    4   10   14      0.76      0.00
    5   10   14     -1.63      0.00
    6   10   14     -0.59      0.00
    7   10   14      0.87      0.00
    8   10   14      0.92      0.00
    9   10   14     -0.35      0.00
   10   10   14     -0.78      0.00
   11   10   14     -1.03      0.00
  -17   11   14      0.39      0.00
  -16   11   14     -0.88      0.00
  -15   11   14      0.31      0.00
  -14   11   14      0.09      0.00
  -13   11   14     -0.78      0.00
  -12   11   14      0.10      0.00
  -11   11   14      1.21      0.00
  -10   11   14     -0.86      0.00
   -9   11   14     -0.24      0.00
   -8   11   14      2.10      0.00
   -7   11   14      0.21      0.00
   -6   11   14     -2.02      0.00
   -5   11   14      0.52      0.00
   -4   11   14      2.01      0.00
   -3   11   14      1.09      0.00
   -2   11   14      0.09      0.00
   -1   11   14      0.45      0.00
    0   11   14     -1.69      0.00
    1   11   14      1.75      0.00
    2   11   14      3.77      0.00
    3   11   14     -1.17      0.00
    4   11   14     -1.09      0.00
    5   11   14     -0.41      0.00
    6   11   14      1.24      0.00
    7   11   14      0.41      0.00
    8   11   14      1.06      0.00
    9   11   14     -0.70      0.00
   10   11   14     -0.32      0.00
   11   11   14      0.62      0.00
  -17   12   14     -0.83      0.00
  -16   12   14      0.84      0.00
  -15   12   14     -0.21      0.00
  -14   12   14      0.89      0.00
  -13   12   14     -0.72      0.00
  -12   12   14     -1.08      0.00
  -11   12   14     -1.41      0.00
  -10   12   14      0.30      0.00
   -9   12   14     -1.42      0.00
   -8   12   14     -0.55      0.00
   -7   12   14      0.72      0.00
   -6   12   14     -0.63      0.00
   -5   12   14      1.58      0.00
   -4   12   14      2.34      0.00
   -3   12   14      0.09      0.00
   -2   12   14     -2.25      0.00
   -1   12   14      1.82      0.00
    0   12   14      3.05      0.00
    1   12   14     -0.04      0.00
    2   12   14     -1.00      0.00
    3   12   14     -1.08      0.00
    4   12   14     -0.94      0.00
    5   12   14      2.04      0.00
    6   12   14      0.60      0.00
    7   12   14     -0.61      0.00
    8   12   14     -0.69      0.00
    9   12   14      0.80      0.00
   10   12   14      0.31      0.00
  -16   13   14      0.86      0.00
  -15   13   14     -0.39      0.00
  -14   13   14     -0.29      0.00
  -13   13   14     -0.11      0.00
  -12   13   14     -0.81      0.00
  -11   13   14     -1.01      0.00
  -10   13   14      0.05      0.00
   -9   13   14      0.94      0.00
   -8   13   14     -1.40      0.00
   -7   13   14     -0.26      0.00
   -6   13   14      2.30      0.00
   -5   13   14     -1.04      0.00
   -4   13   14     -1.15      0.00
   -3   13   14     -0.64      0.00
   -2   13   14      0.87      0.00
   -1   13   14     -0.19      0.00
    0   13   14      1.90      0.00
    1   13   14     -1.95      0.00
    2   13   14     -3.14      0.00
    3   13   14      0.79      0.00
    4   13   14      0.80      0.00
    5   13   14      0.23      0.00
    6   13   14      0.10      0.00
    7   13   14     -1.08      0.00
    8   13   14     -0.79      0.00
    9   13   14      0.83      0.00
  -15   14   14     -0.62      0.00
  -14   14   14     -0.69      0.00
  -13   14   14      0.25      0.00
  -12   14   14      0.83      0.00
  -11   14   14      1.08      0.00
  -10   14   14     -0.30      0.00
   -9   14   14      0.47      0.00
   -8   14   14     -0.11      0.00
   -7   14   14     -1.38      0.00
   -6   14   14      0.43      0.00
   -5   14   14     -1.13      0.00
   -4   14   14     -2.20      0.00
   -3   14   14      0.43      0.00
   -2   14   14      2.07      0.00
   -1   14   14     -0.90      0.00
    0   14   14     -2.77      0.00
    1   14   14      0.00      0.00
    2   14   14      0.32      0.00
    3   14   14      0.50      0.00
    4   14   14      0.99      0.00
    5   14   14     -1.46      0.00
    6   14   14     -0.69      0.00
    7   14   14      1.10      0.00
    8   14   14      0.92      0.00
    9   14   14     -0.70      0.00
  -14   15   14     -0.10      0.00
  -13   15   14      0.63      0.00
  -12   15   14      0.90      0.00
  -11   15   14      0.23      0.00
  -10   15   14     -0.48      0.00
   -9   15   14     -2.29      0.00
   -8   15   14      1.20      0.00
   -7   15   14     -0.10      0.00
   -6   15   14     -1.79      0.00
   -5   15   14      0.17      0.00
   -4   15   14      0.29      0.00
   -3   15   14      0.53      0.00
   -2   15   14     -1.64      0.00
   -1   15   14      0.24      0.00
    0   15   14     -1.35      0.00
    1   15   14      1.35      0.00
    2   15   14      1.98      0.00
    3   15   14     -0.92      0.00
    4   15   14     -0.64      0.00
    5   15   14     -0.35      0.00
    6   15   14     -0.06      0.00
    7   15   14      1.50      0.00
    8   15   14      0.62      0.00
  -13   16   14     -0.02      0.00
  -12   16   14     -0.67      0.00
  -11   16   14     -0.57      0.00
  -10   16   14     -0.13      0.00
   -9   16   14     -0.18      0.00
   -8   16   14      0.08      0.00
   -7   16   14      1.03      0.00
   -6   16   14     -0.79      0.00
   -5   16   14      0.27      0.00
   -4   16   14      1.77      0.00
   -3   16   14     -1.25      0.00
   -2   16   14     -1.57      0.00
   -1   16   14      0.00      0.00
    0   16   14      2.62      0.00
    1   16   14      0.05      0.00
    2   16   14     -0.15      0.00
    3   16   14     -1.05      0.00
    4   16   14     -1.03      0.00
    5   16   14      0.51      0.00
    6   16   14      0.55      0.00
  -11   17   14      0.52      0.00
  -10   17   14      0.89      0.00
   -9   17   14      2.30      0.00
   -8   17   14     -0.94      0.00
   -7   17   14      0.12      0.00
   -6   17   14      0.79      0.00
   -5   17   14      1.24      0.00
   -4   17   14     -0.02      0.00
   -3   17   14     -0.29      0.00
   -2   17   14      1.44      0.00
   -1   17   14      0.04      0.00
    0   17   14      1.39      0.00
    1   17   14     -0.72      0.00
    2   17   14     -0.95      0.00
    3   17   14      0.74      0.00
    4   17   14      0.06      0.00
    5   17   14      0.08      0.00
   -9   18   14      0.12      0.00
   -8   18   14     -0.27      0.00
   -7   18   14     -0.48      0.00
   -6   18   14      0.88      0.00
   -5   18   14     -0.07      0.00
   -4   18   14     -0.94      0.00
   -3   18   14      1.61      0.00
   -2   18   14      0.96      0.00
   -1   18   14      0.41      0.00
    0   18   14     -1.97      0.00
    1   18   14      0.77      0.00
    2   18   14      0.07      0.00
    3   18   14      1.53      0.00
   -6   19   14     -0.33      0.00
   -5   19   14     -1.54      0.00
   -4   19   14      0.08      0.00
   -3   19   14     -0.03      0.00
   -2   19   14     -0.48      0.00
   -1   19   14     -0.20      0.00
    0   19   14     -1.14      0.00
  -19    0   15     -0.44      0.00
  -17    0   15      0.56      0.00
  -15    0   15     -2.39      0.00
  -13    0   15      0.79      0.00
  -11    0   15     -0.09      0.00
   -9    0   15     -6.11      0.00
   -7    0   15      5.43      0.00
   -5    0   15     -8.22      0.00
   -3    0   15      1.50      0.00
   -1    0   15      0.82      0.00
    1    0   15     -6.36      0.00
    3    0   15      2.24      0.00
    5    0   15     -2.54      0.00
    7    0   15     -0.86      0.00
    9    0   15      2.02      0.00
   11    0   15     -1.25      0.00
   13    0   15      0.77      0.00
  -20    1   15     -0.33      0.00
  -19    1   15     -0.03      0.00
  -18    1   15      0.14      0.00
  -17    1   15     -1.77      0.00
  -16    1   15     -0.10      0.00
  -15    1   15     -1.98      0.00
  -14    1   15      0.54      0.00
  -13    1   15      2.50      0.00
  -12    1   15     -0.03      0.00
  -11    1   15     -4.68      0.00
  -10    1   15     -1.10      0.00
   -9    1   15      0.31      0.00
   -8    1   15     -0.45      0.00
   -7    1   15     -2.19      0.00
   -6    1   15     -0.21      0.00
   -5    1   15     -7.44      0.00
   -4    1   15      0.28      0.00
   -3    1   15      5.05      0.00
   -2    1   15      0.45      0.00
   -1    1   15     -5.47      0.00
    0    1   15      0.13      0.00
    1    1   15      5.23      0.00
    2    1   15     -0.14      0.00
    3    1   15     -0.55      0.00
    4    1   15     -0.57      0.00
    5    1   15     -1.95      0.00
    6    1   15     -0.35      0.00
    7    1   15      1.93      0.00
    8    1   15     -0.31      0.00
    9    1   15     -2.07      0.00
   10    1   15     -0.09      0.00
   11    1   15     -1.16      0.00
   12    1   15     -0.59      0.00
   13    1   15     -0.12      0.00
  -20    2   15     -0.32      0.00
  -19    2   15      0.49      0.00
  -18    2   15      0.23      0.00
  -17    2   15     -0.41      0.00
  -16    2   15      0.31      0.00
  -15    2   15      2.24      0.00
  -14    2   15     -0.40      0.00
  -13    2   15     -0.66      0.00
  -12    2   15     -0.56      0.00
  -11    2   15      0.15      0.00
  -10    2   15     -1.02      0.00
   -9    2   15      5.94      0.00
   -8    2   15     -0.37      0.00
   -7    2   15     -4.75      0.00
   -6    2   15      0.63      0.00
   -5    2   15      7.13      0.00
   -4    2   15     -0.88      0.00
   -3    2   15     -0.89      0.00
   -2    2   15      0.13      0.00
   -1    2   15     -0.27      0.00
    0    2   15      1.27      0.00
    1    2   15      5.98      0.00
    2    2   15     -0.51      0.00
    3    2   15     -2.56      0.00
    4    2   15      1.47      0.00
    5    2   15      2.32      0.00
    6    2   15     -0.88      0.00
    7    2   15      0.13      0.00
    8    2   15      0.00      0.00
    9    2   15     -1.52      0.00
   10    2   15     -0.08      0.00
   11    2   15      0.92      0.00
   12    2   15     -0.14      0.00
   13    2   15     -0.85      0.00
  -20    3   15      0.64      0.00
  -19    3   15      0.02      0.00
  -18    3   15     -0.19      0.00
  -17    3   15      1.01      0.00
  -16    3   15      0.40      0.00
  -15    3   15      0.87      0.00
  -14    3   15     -0.73      0.00
  -13    3   15     -2.03      0.00
  -12    3   15      0.46      0.00
  -11    3   15      4.68      0.00
  -10    3   15      2.17      0.00
   -9    3   15     -1.18      0.00
   -8    3   15      1.53      0.00
   -7    3   15      1.30      0.00
   -6    3   15      0.86      0.00
   -5    3   15      6.61      0.00
   -4    3   15     -0.88      0.00
   -3    3   15     -4.70      0.00
   -2    3   15     -0.58      0.00
   -1    3   15      5.33      0.00
    0    3   15     -0.28      0.00
    1    3   15     -4.18      0.00
    2    3   15      0.11      0.00
    3    3   15      1.04      0.00
    4    3   15      1.50      0.00
    5    3   15      1.79      0.00
    6    3   15      0.53      0.00
    7    3   15     -2.64      0.00
    8    3   15      0.85      0.00
    9    3   15      2.18      0.00
   10    3   15      0.54      0.00
   11    3   15      0.69      0.00
   12    3   15      0.62      0.00
   13    3   15     -0.09      0.00
  -20    4   15      0.12      0.00
  -19    4   15     -0.46      0.00
  -18    4   15     -0.34      0.00
  -17    4   15      0.30      0.00
  -16    4   15     -0.66      0.00
  -15    4   15     -1.51      0.00
  -14    4   15      0.36      0.00
  -13    4   15      0.73      0.00
  -12    4   15      1.15      0.00
  -11    4   15     -0.35      0.00
  -10    4   15      1.49      0.00
   -9    4   15     -5.62      0.00
   -8    4   15      0.71      0.00
   -7    4   15      3.72      0.00
   -6    4   15     -0.80      0.00
   -5    4   15     -4.91      0.00
   -4    4   15      0.98      0.00
   -3    4   15     -0.12      0.00
   -2    4   15     -0.50      0.00
   -1    4   15     -0.58      0.00
    0    4   15     -1.17      0.00
    1    4   15     -4.96      0.00
    2    4   15      1.58      0.00
    3    4   15      3.10      0.00
    4    4   15     -1.68      0.00
    5    4   15     -1.69      0.00
    6    4   15      0.77      0.00
    7    4   15      1.23      0.00
    8    4   15      0.38      0.00
    9    4   15      0.99      0.00
   10    4   15      0.19      0.00
   11    4   15     -0.50      0.00
   12    4   15      0.12      0.00
   13    4   15      0.42      0.00
  -19    5   15     -0.35      0.00
  -18    5   15      0.33      0.00
  -17    5   15     -0.03      0.00
  -16    5   15     -0.58      0.00
  -15    5   15     -0.41      0.00
  -14    5   15     -0.17      0.00
  -13    5   15      2.03      0.00
  -12    5   15     -1.25      0.00
  -11    5   15     -3.69      0.00
  -10    5   15     -1.89      0.00
   -9    5   15      1.93      0.00
   -8    5   15     -2.45      0.00
   -7    5   15     -0.34      0.00
   -6    5   15     -1.58      0.00
   -5    5   15     -4.85      0.00
   -4    5   15      0.87      0.00
   -3    5   15      4.05      0.00
   -2    5   15     -0.38      0.00
   -1    5   15     -4.55      0.00
    0    5   15      0.21      0.00
    1    5   15      3.49      0.00
    2    5   15      0.56      0.00
    3    5   15     -0.97      0.00
    4    5   15     -1.75      0.00
    5    5   15     -1.20      0.00
    6    5   15      0.11      0.00
    7    5   15      3.10      0.00
    8    5   15     -0.90      0.00
    9    5   15     -1.77      0.00
   10    5   15     -0.79      0.00
   11    5   15      0.27      0.00
   12    5   15      0.44      0.00
   13    5   15      0.35      0.00
  -19    6   15      0.39      0.00
  -18    6   15      0.09      0.00
  -17    6   15     -0.28      0.00
  -16    6   15      0.46      0.00
  -15    6   15      0.49      0.00
  -14    6   15     -0.04      0.00
  -13    6   15     -1.24      0.00
  -12    6   15     -0.45      0.00
  -11    6   15      0.17      0.00
  -10    6   15     -1.29      0.00
   -9    6   15      4.85      0.00
   -8    6   15     -1.06      0.00
   -7    6   15     -3.28      0.00
   -6    6   15      0.41      0.00
   -5    6   15      3.11      0.00
   -4    6   15     -0.11      0.00
   -3    6   15     -0.18      0.00
   -2    6   15      0.57      0.00
   -1    6   15      0.24      0.00
    0    6   15      0.29      0.00
    1    6   15      3.94      0.00
    2    6   15     -2.65      0.00
    3    6   15     -2.86      0.00
    4    6   15      1.02      0.00
    5    6   15      1.22      0.00
    6    6   15     -0.06      0.00
    7    6   15     -1.81      0.00
    8    6   15     -0.77      0.00
    9    6   15     -0.94      0.00
   10    6   15      0.23      0.00
   11    6   15      0.54      0.00
   12    6   15      0.41      0.00
  -19    7   15      0.77      0.00
  -18    7   15     -0.88      0.00
  -17    7   15     -0.40      0.00
  -16    7   15      0.47      0.00
  -15    7   15      1.05      0.00
  -14    7   15      0.75      0.00
  -13    7   15     -1.73      0.00
  -12    7   15      1.23      0.00
  -11    7   15      2.48      0.00
  -10    7   15      1.54      0.00
   -9    7   15     -1.79      0.00
   -8    7   15      2.62      0.00
   -7    7   15     -0.13      0.00
   -6    7   15      1.89      0.00
   -5    7   15      2.99      0.00
   -4    7   15     -0.50      0.00
   -3    7   15     -3.45      0.00
   -2    7   15      0.60      0.00
   -1    7   15      2.89      0.00
    0    7   15     -0.31      0.00
    1    7   15     -4.01      0.00
    2    7   15     -0.96      0.00
    3    7   15      0.18      0.00
    4    7   15      1.70      0.00
    5    7   15      0.37      0.00
    6    7   15     -0.58      0.00
    7    7   15     -2.75      0.00
    8    7   15      0.52      0.00
    9    7   15      1.16      0.00
   10    7   15      0.17      0.00
   11    7   15     -0.62      0.00
   12    7   15     -0.87      0.00
  -18    8   15      0.56      0.00
  -17    8   15      0.03      0.00
  -16    8   15      0.49      0.00
  -15    8   15     -0.20      0.00
  -14    8   15      0.21      0.00
  -13    8   15      1.09      0.00
  -12    8   15     -0.86      0.00
  -11    8   15      0.52      0.00
  -10    8   15      1.06      0.00
   -9    8   15     -2.81      0.00
   -8    8   15      1.06      0.00
   -7    8   15      3.22      0.00
   -6    8   15      0.02      0.00
   -5    8   15     -2.12      0.00
   -4    8   15     -0.55      0.00
   -3    8   15      1.11      0.00
   -2    8   15     -0.65      0.00
   -1    8   15      0.58      0.00
    0    8   15     -0.84      0.00
    1    8   15     -3.29      0.00
    2    8   15      2.47      0.00
    3    8   15      2.13      0.00
    4    8   15     -0.65      0.00
    5    8   15     -1.05      0.00
    6    8   15     -0.44      0.00
    7    8   15      1.42      0.00
    8    8   15      0.96      0.00
    9    8   15      0.38      0.00
   10    8   15     -0.80      0.00
   11    8   15     -0.74      0.00
   12    8   15     -0.78      0.00
  -18    9   15      1.12      0.00
  -17    9   15      0.14      0.00
  -16    9   15     -0.40      0.00
  -15    9   15     -1.23      0.00
  -14    9   15     -0.69      0.00
  -13    9   15      0.56      0.00
  -12    9   15     -0.49      0.00
  -11    9   15     -2.06      0.00
  -10    9   15     -0.99      0.00
   -9    9   15      0.86      0.00
   -8    9   15     -1.66      0.00
   -7    9   15      0.25      0.00
   -6    9   15     -1.23      0.00
   -5    9   15     -1.51      0.00
   -4    9   15      0.66      0.00
   -3    9   15      3.32      0.00
   -2    9   15      0.35      0.00
   -1    9   15     -2.08      0.00
    0    9   15      0.87      0.00
    1    9   15      3.83      0.00
    2    9   15      0.46      0.00
    3    9   15      0.33      0.00
    4    9   15     -1.65      0.00
    5    9   15      0.09      0.00
    6    9   15      0.67      0.00
    7    9   15      2.24      0.00
    8    9   15     -0.47      0.00
    9    9   15     -0.67      0.00
   10    9   15      0.50      0.00
   11    9   15      0.06      0.00
  -17   10   15      0.27      0.00
  -16   10   15     -1.01      0.00
  -15   10   15      0.60      0.00
  -14   10   15     -0.68      0.00
  -13   10   15     -0.25      0.00
  -12   10   15      0.60      0.00
  -11   10   15     -0.99      0.00
  -10   10   15     -1.57      0.00
   -9   10   15      0.77      0.00
   -8   10   15     -0.29      0.00
   -7   10   15     -2.71      0.00
   -6   10   15      0.72      0.00
   -5   10   15      1.70      0.00
   -4   10   15      0.79      0.00
   -3   10   15     -0.67      0.00
   -2   10   15      1.24      0.00
   -1   10   15     -0.23      0.00
    0   10   15      1.75      0.00
    1   10   15      2.66      0.00
    2   10   15     -1.56      0.00
    3   10   15     -2.12      0.00
    4   10   15      0.89      0.00
    5   10   15      0.82      0.00
    6   10   15      0.97      0.00
    7   10   15     -0.80      0.00
    8   10   15     -0.68      0.00
    9   10   15      0.26      0.00
   10   10   15      0.95      0.00
   11   10   15      0.50      0.00
  -17   11   15      0.29      0.00
  -16   11   15      0.37      0.00
  -15   11   15      0.46      0.00
  -14   11   15      0.36      0.00
  -13   11   15      0.15      0.00
  -12   11   15      0.21      0.00
  -11   11   15      1.27      0.00
  -10   11   15      0.27      0.00
   -9   11   15     -0.26      0.00
   -8   11   15      0.33      0.00
   -7   11   15      0.07      0.00
   -6   11   15     -0.22      0.00
   -5   11   15      1.02      0.00
   -4   11   15     -0.92      0.00
   -3   11   15     -2.89      0.00
   -2   11   15     -0.39      0.00
   -1   11   15      2.63      0.00
    0   11   15     -1.29      0.00
    1   11   15     -2.64      0.00
    2   11   15     -0.26      0.00
    3   11   15     -0.51      0.00
    4   11   15      1.03      0.00
    5   11   15      0.46      0.00
    6   11   15     -1.13      0.00
    7   11   15     -1.69      0.00
    8   11   15      0.79      0.00
    9   11   15      0.39      0.00
   10   11   15     -0.60      0.00
  -16   12   15      0.50      0.00
  -15   12   15     -0.81      0.00
  -14   12   15      0.57      0.00
  -13   12   15      0.06      0.00
  -12   12   15      0.44      0.00
  -11   12   15      1.04      0.00
  -10   12   15      1.78      0.00
   -9   12   15     -0.54      0.00
   -8   12   15     -0.95      0.00
   -7   12   15      1.53      0.00
   -6   12   15     -1.71      0.00
   -5   12   15     -1.77      0.00
   -4   12   15     -0.96      0.00
   -3   12   15      0.01      0.00
   -2   12   15     -1.49      0.00
   -1   12   15     -0.44      0.00
    0   12   15     -1.10      0.00
    1   12   15     -2.12      0.00
    2   12   15      0.72      0.00
    3   12   15      2.02      0.00
    4   12   15     -1.15      0.00
    5   12   15     -0.92      0.00
    6   12   15     -1.28      0.00
    7   12   15      0.23      0.00
    8   12   15      0.28      0.00
    9   12   15      0.17      0.00
  -15   13   15      0.04      0.00
  -14   13   15      0.37      0.00
  -13   13   15      0.08      0.00
  -12   13   15     -0.27      0.00
  -11   13   15     -0.18      0.00
  -10   13   15     -0.53      0.00
   -9   13   15      0.28      0.00
   -8   13   15     -0.31      0.00
   -7   13   15     -0.44      0.00
   -6   13   15      0.87      0.00
   -5   13   15     -1.49      0.00
   -4   13   15      0.84      0.00
   -3   13   15      1.59      0.00
   -2   13   15     -0.10      0.00
   -1   13   15     -2.72      0.00
    0   13   15      1.31      0.00
    1   13   15      2.16      0.00
    2   13   15      0.58      0.00
    3   13   15      0.61      0.00
    4   13   15     -0.89      0.00
    5   13   15     -1.46      0.00
    6   13   15      1.53      0.00
    7   13   15      1.00      0.00
    8   13   15     -0.78      0.00
    9   13   15     -0.31      0.00
  -14   14   15     -0.22      0.00
  -13   14   15     -0.19      0.00
  -12   14   15     -0.56      0.00
  -11   14   15     -1.17      0.00
  -10   14   15     -1.11      0.00
   -9   14   15      0.95      0.00
   -8   14   15      1.79      0.00
   -7   14   15     -1.04      0.00
   -6   14   15      1.19      0.00
   -5   14   15      1.94      0.00
   -4   14   15      0.68      0.00
   -3   14   15     -0.11      0.00
   -2   14   15      0.70      0.00
   -1   14   15      0.78      0.00
    0   14   15      0.48      0.00
    1   14   15      2.01      0.00
    2   14   15     -0.06      0.00
    3   14   15     -1.37      0.00
    4   14   15      0.67      0.00
    5   14   15      0.87      0.00
    6   14   15      0.48      0.00
    7   14   15     -0.04      0.00
    8   14   15     -0.44      0.00
  -13   15   15     -0.43      0.00
  -12   15   15      0.34      0.00
  -11   15   15      0.24      0.00
  -10   15   15      1.34      0.00
   -9   15   15     -0.14      0.00
   -8   15   15      0.84      0.00
   -7   15   15      0.03      0.00
   -6   15   15     -0.11      0.00
   -5   15   15      1.59      0.00
   -4   15   15     -0.42      0.00
   -3   15   15     -0.44      0.00
   -2   15   15      0.00      0.00
   -1   15   15      2.26      0.00
    0   15   15     -0.99      0.00
    1   15   15     -1.67      0.00
    2   15   15     -0.39      0.00
    3   15   15     -0.35      0.00
    4   15   15      1.64      0.00
    5   15   15      1.12      0.00
    6   15   15     -1.57      0.00
    7   15   15     -0.82      0.00
  -12   16   15      0.24      0.00
  -11   16   15      1.29      0.00
  -10   16   15      0.74      0.00
   -9   16   15     -0.71      0.00
   -8   16   15     -1.75      0.00
   -7   16   15      1.29      0.00
   -6   16   15     -0.16      0.00
   -5   16   15     -1.54      0.00
   -4   16   15     -0.23      0.00
   -3   16   15      0.08      0.00
   -2   16   15      0.50      0.00
   -1   16   15     -1.14      0.00
    0   16   15     -0.47      0.00
    1   16   15     -1.88      0.00
    2   16   15      0.58      0.00
    3   16   15      1.14      0.00
    4   16   15      0.21      0.00
    5   16   15     -0.33      0.00
  -10   17   15     -1.43      0.00
   -9   17   15     -0.13      0.00
   -8   17   15     -0.65      0.00
   -7   17   15      0.47      0.00
   -6   17   15     -0.95      0.00
   -5   17   15     -1.32      0.00
   -4   17   15     -0.29      0.00
   -3   17   15      0.21      0.00
   -2   17   15     -0.25      0.00
   -1   17   15     -2.06      0.00
    0   17   15      0.64      0.00
    1   17   15      0.77      0.00
    2   17   15      0.01      0.00
    3   17   15      0.38      0.00
    4   17   15     -1.53      0.00
   -8   18   15      1.14      0.00
   -7   18   15     -0.92      0.00
   -6   18   15     -0.26      0.00
   -5   18   15      0.52      0.00
   -4   18   15     -0.03      0.00
   -3   18   15     -0.06      0.00
   -2   18   15     -1.00      0.00
   -1   18   15      0.99      0.00
    0   18   15     -0.07      0.00
    1   18   15      1.50      0.00
  -20    0   16      1.05      0.00
  -18    0   16     -0.83      0.00
  -16    0   16      1.11      0.00
  -14    0   16      1.64      0.00
  -12    0   16     -1.87      0.00
  -10    0   16      4.87      0.00
   -8    0   16     -0.33      0.00
   -6    0   16      1.14      0.00
   -4    0   16      5.87      0.00
   -2    0   16     -6.14      0.00
    0    0   16      5.55      0.00
    2    0   16     -0.53      0.00
    4    0   16     -0.69      0.00
    6    0   16      2.67      0.00
    8    0   16     -2.66      0.00
   10    0   16      0.92      0.00
   12    0   16     -0.73      0.00
  -20    1   16      1.11      0.00
  -19    1   16     -0.19      0.00
  -18    1   16      0.06      0.00
  -17    1   16      0.14      0.00
  -16    1   16      1.73      0.00
  -15    1   16     -0.30      0.00
  -14    1   16     -1.51      0.00
  -13    1   16     -0.14      0.00
  -12    1   16     -0.62      0.00
  -11    1   16      0.81      0.00
  -10    1   16      2.15      0.00
   -9    1   16      0.87      0.00
   -8    1   16     -3.86      0.00
   -7    1   16      0.09      0.00
   -6    1   16      6.80      0.00
   -5    1   16     -0.02      0.00
   -4    1   16     -2.74      0.00
   -3    1   16     -0.33      0.00
   -2    1   16      1.24      0.00
   -1    1   16     -0.33      0.00
    0    1   16      0.31      0.00
    1    1   16     -0.06      0.00
    2    1   16     -3.92      0.00
    3    1   16      0.69      0.00
    4    1   16      2.76      0.00
    5    1   16      0.33      0.00
    6    1   16     -0.51      0.00
    7    1   16      0.47      0.00
    8    1   16     -0.64      0.00
    9    1   16     -0.16      0.00
   10    1   16      2.13      0.00
   11    1   16      0.60      0.00
   12    1   16      0.11      0.00
  -20    2   16     -0.89      0.00
  -19    2   16      0.00      0.00
  -18    2   16      0.37      0.00
  -17    2   16     -0.32      0.00
  -16    2   16     -0.94      0.00
  -15    2   16     -0.28      0.00
  -14    2   16     -1.59      0.00
  -13    2   16      0.12      0.00
  -12    2   16      1.66      0.00
  -11    2   16      0.20      0.00
  -10    2   16     -4.37      0.00
   -9    2   16     -0.15      0.00
   -8    2   16     -0.19      0.00
   -7    2   16     -0.72      0.00
   -6    2   16     -0.81      0.00
   -5    2   16     -0.10      0.00
   -4    2   16     -5.64      0.00
   -3    2   16      0.47      0.00
   -2    2   16      5.23      0.00
   -1    2   16     -0.85      0.00
    0    2   16     -5.52      0.00
    1    2   16     -0.57      0.00
    2    2   16      0.72      0.00
    3    2   16     -0.23      0.00
    4    2   16      0.86      0.00
    5    2   16     -0.49      0.00
    6    2   16     -2.02      0.00
    7    2   16      0.24      0.00
    8    2   16      2.36      0.00
    9    2   16      0.23      0.00
   10    2   16     -0.80      0.00
   11    2   16      0.14      0.00
   12    2   16      1.04      0.00
  -19    3   16      0.23      0.00
  -18    3   16      0.15      0.00
  -17    3   16     -0.46      0.00
  -16    3   16     -0.81      0.00
  -15    3   16      0.45      0.00
  -14    3   16      1.61      0.00
  -13    3   16     -0.12      0.00
  -12    3   16     -0.32      0.00
  -11    3   16     -1.66      0.00
  -10    3   16     -1.46      0.00
   -9    3   16     -2.02      0.00
   -8    3   16      4.17      0.00
   -7    3   16     -0.89      0.00
   -6    3   16     -5.94      0.00
   -5    3   16      0.17      0.00
   -4    3   16      2.35      0.00
   -3    3   16      0.49      0.00
   -2    3   16     -0.66      0.00
   -1    3   16      0.46      0.00
    0    3   16     -1.37      0.00
    1    3   16      0.35      0.00
    2    3   16      3.44      0.00
    3    3   16     -1.62      0.00
    4    3   16     -2.87      0.00
    5    3   16     -0.65      0.00
    6    3   16      1.55      0.00
    7    3   16     -0.93      0.00
    8    3   16     -0.06      0.00
    9    3   16     -0.08      0.00
   10    3   16     -1.36      0.00
   11    3   16     -0.73      0.00
   12    3   16     -0.36      0.00
  -19    4   16      0.22      0.00
  -18    4   16      0.34      0.00
  -17    4   16      0.43      0.00
  -16    4   16      0.36      0.00
  -15    4   16      0.91      0.00
  -14    4   16      1.28      0.00
  -13    4   16     -0.30      0.00
  -12    4   16     -1.47      0.00
  -11    4   16     -0.42      0.00
  -10    4   16      3.75      0.00
   -9    4   16      0.62      0.00
   -8    4   16      0.92      0.00
   -7    4   16      1.17      0.00
   -6    4   16     -0.01      0.00
   -5    4   16      0.25      0.00
   -4    4   16      4.97      0.00
   -3    4   16     -0.09      0.00
   -2    4   16     -3.57      0.00
   -1    4   16      1.00      0.00
    0    4   16      5.10      0.00
    1    4   16     -0.11      0.00
    2    4   16     -0.97      0.00
    3    4   16     -0.35      0.00
    4    4   16     -1.28      0.00
    5    4   16      1.28      0.00
    6    4   16      0.72      0.00
    7    4   16     -0.54      0.00
    8    4   16     -2.02      0.00
    9    4   16     -0.64      0.00
   10    4   16      0.52      0.00
   11    4   16     -0.01      0.00
   12    4   16     -1.08      0.00
  -19    5   16     -0.19      0.00
  -18    5   16     -0.32      0.00
  -17    5   16      0.64      0.00
  -16    5   16      0.09      0.00
  -15    5   16     -0.07      0.00
  -14    5   16     -1.50      0.00
  -13    5   16      0.94      0.00
  -12    5   16      0.46      0.00
  -11    5   16      1.38      0.00
  -10    5   16      0.72      0.00
   -9    5   16      2.32      0.00
   -8    5   16     -3.76      0.00
   -7    5   16      2.08      0.00
   -6    5   16      4.47      0.00
   -5    5   16     -0.13      0.00
   -4    5   16     -2.01      0.00
   -3    5   16      0.16      0.00
   -2    5   16      0.17      0.00
   -1    5   16      0.18      0.00
    0    5   16      1.52      0.00
    1    5   16     -1.08      0.00
    2    5   16     -3.33      0.00
    3    5   16      1.65      0.00
    4    5   16      2.46      0.00
    5    5   16      0.22      0.00
    6    5   16     -2.47      0.00
    7    5   16      0.55      0.00
    8    5   16      0.54      0.00
    9    5   16      0.54      0.00
   10    5   16      0.23      0.00
   11    5   16     -0.41      0.00
   12    5   16      0.25      0.00
  -19    6   16     -0.24      0.00
  -18    6   16     -0.64      0.00
  -17    6   16     -0.10      0.00
  -16    6   16      0.26      0.00
  -15    6   16     -1.45      0.00
  -14    6   16     -0.77      0.00
  -13    6   16     -0.22      0.00
  -12    6   16      1.72      0.00
  -11    6   16      0.10      0.00
  -10    6   16     -3.34      0.00
   -9    6   16     -0.94      0.00
   -8    6   16     -0.77      0.00
   -7    6   16     -0.90      0.00
   -6    6   16      0.75      0.00
   -5    6   16     -0.68      0.00
   -4    6   16     -3.61      0.00
   -3    6   16     -0.54      0.00
   -2    6   16      3.15      0.00
   -1    6   16     -0.63      0.00
    0    6   16     -4.10      0.00
    1    6   16      1.11      0.00
    2    6   16      0.62      0.00
    3    6   16      1.21      0.00
    4    6   16      1.24      0.00
    5    6   16     -1.93      0.00
    6    6   16      0.04      0.00
    7    6   16      0.75      0.00
    8    6   16      1.80      0.00
    9    6   16      0.74      0.00
   10    6   16     -0.43      0.00
   11    6   16     -0.67      0.00
   12    6   16      0.30      0.00
  -18    7   16      0.16      0.00
  -17    7   16     -0.48      0.00
  -16    7   16     -0.26      0.00
  -15    7   16     -0.24      0.00
  -14    7   16      0.58      0.00
  -13    7   16     -0.97      0.00
  -12    7   16     -0.11      0.00
  -11    7   16     -0.66      0.00
  -10    7   16     -0.72      0.00
   -9    7   16     -2.45      0.00
   -8    7   16      2.53      0.00
   -7    7   16     -2.37      0.00
   -6    7   16     -3.02      0.00
   -5    7   16     -0.11      0.00
   -4    7   16      1.81      0.00
   -3    7   16     -0.26      0.00
   -2    7   16      0.28      0.00
   -1    7   16     -0.23      0.00
    0    7   16     -0.14      0.00
    1    7   16      1.67      0.00
    2    7   16      3.73      0.00
    3    7   16     -1.39      0.00
    4    7   16     -1.66      0.00
    5    7   16      0.34      0.00
    6    7   16      2.43      0.00
    7    7   16     -0.08      0.00
    8    7   16     -0.50      0.00
    9    7   16     -0.25      0.00
   10    7   16      0.23      0.00
   11    7   16      1.29      0.00
  -18    8   16      0.72      0.00
  -17    8   16     -0.69      0.00
  -16    8   16     -0.22      0.00
  -15    8   16      1.06      0.00
  -14    8   16      0.63      0.00
  -13    8   16      0.85      0.00
  -12    8   16     -1.54      0.00
  -11    8   16      0.36      0.00
  -10    8   16      2.05      0.00
   -9    8   16      0.70      0.00
   -8    8   16     -0.28      0.00
   -7    8   16      0.43      0.00
   -6    8   16     -1.14      0.00
   -5    8   16      1.00      0.00
   -4    8   16      2.21      0.00
   -3    8   16      0.77      0.00
   -2    8   16     -3.26      0.00
   -1    8   16      1.10      0.00
    0    8   16      3.28      0.00
    1    8   16     -0.63      0.00
    2    8   16     -0.18      0.00
    3    8   16     -1.27      0.00
    4    8   16     -0.75      0.00
    5    8   16      1.96      0.00
    6    8   16     -0.15      0.00
    7    8   16     -0.79      0.00
    8    8   16     -1.15      0.00
    9    8   16     -0.47      0.00
   10    8   16      0.83      0.00
   11    8   16      1.09      0.00
  -18    9   16      0.06      0.00
  -17    9   16      0.47      0.00
  -16    9   16      0.55      0.00
  -15    9   16      0.30      0.00
  -14    9   16      0.54      0.00
  -13    9   16      0.40      0.00
  -12    9   16      0.39      0.00
  -11    9   16      0.01      0.00
  -10    9   16      1.48      0.00
   -9    9   16      1.98      0.00
   -8    9   16     -1.33      0.00
   -7    9   16      1.18      0.00
   -6    9   16      1.88      0.00
   -5    9   16     -0.15      0.00
   -4    9   16     -1.83      0.00
   -3    9   16     -0.41      0.00
   -2    9   16     -0.63      0.00
   -1    9   16     -0.77      0.00
    0    9   16     -0.22      0.00
    1    9   16     -1.44      0.00
    2    9   16     -3.41      0.00
    3    9   16      1.21      0.00
    4    9   16      1.17      0.00
    5    9   16     -0.64      0.00
    6    9   16     -1.88      0.00
    7    9   16     -0.01      0.00
    8    9   16      0.04      0.00
    9    9   16     -0.01      0.00
   10    9   16      0.08      0.00
  -17   10   16      1.21      0.00
  -16   10   16     -0.31      0.00
  -15   10   16     -0.27      0.00
  -14   10   16     -0.70      0.00
  -13   10   16     -0.44      0.00
  -12   10   16      0.51      0.00
  -11   10   16      0.17      0.00
  -10   10   16     -0.32      0.00
   -9   10   16     -0.15      0.00
   -8   10   16      0.83      0.00
   -7   10   16     -1.01      0.00
   -6   10   16      1.05      0.00
   -5   10   16     -1.29      0.00
   -4   10   16     -1.83      0.00
   -3   10   16     -1.25      0.00
   -2   10   16      2.08      0.00
   -1   10   16     -1.78      0.00
    0   10   16     -3.06      0.00
    1   10   16     -0.28      0.00
    2   10   16      0.63      0.00
    3   10   16      0.65      0.00
    4   10   16      0.47      0.00
    5   10   16     -1.81      0.00
    6   10   16     -0.09      0.00
    7   10   16      0.33      0.00
    8   10   16      0.62      0.00
    9   10   16     -0.11      0.00
   10   10   16     -0.99      0.00
  -16   11   16     -0.33      0.00
  -15   11   16     -0.09      0.00
  -14   11   16     -0.82      0.00
  -13   11   16     -0.37      0.00
  -12   11   16     -0.39      0.00
  -11   11   16      0.04      0.00
  -10   11   16     -1.59      0.00
   -9   11   16     -0.91      0.00
   -8   11   16      0.69      0.00
   -7   11   16      0.54      0.00
   -6   11   16     -1.54      0.00
   -5   11   16      0.84      0.00
   -4   11   16      1.44      0.00
   -3   11   16      0.33      0.00
   -2   11   16      0.40      0.00
   -1   11   16      1.18      0.00
    0   11   16     -0.68      0.00
    1   11   16      0.94      0.00
    2   11   16      2.66      0.00
    3   11   16     -0.31      0.00
    4   11   16     -1.25      0.00
    5   11   16      0.91      0.00
    6   11   16      1.02      0.00
    7   11   16      0.24      0.00
    8   11   16      0.25      0.00
    9   11   16     -0.32      0.00
  -16   12   16      0.63      0.00
  -15   12   16      0.00      0.00
  -14   12   16      0.35      0.00
  -13   12   16     -0.26      0.00
  -12   12   16     -0.06      0.00
  -11   12   16     -0.77      0.00
  -10   12   16     -0.22      0.00
   -9   12   16      0.20      0.00
   -8   12   16     -0.13      0.00
   -7   12   16      1.94      0.00
   -6   12   16     -0.32      0.00
   -5   12   16      1.46      0.00
   -4   12   16      1.89      0.00
   -3   12   16      1.83      0.00
   -2   12   16     -0.81      0.00
   -1   12   16      1.17      0.00
    0   12   16      2.79      0.00
    1   12   16      0.42      0.00
    2   12   16     -0.90      0.00
    3   12   16     -0.07      0.00
    4   12   16      0.02      0.00
    5   12   16      1.77      0.00
    6   12   16      0.89      0.00
    7   12   16      0.00      0.00
    8   12   16     -0.89      0.00
  -15   13   16     -0.44      0.00
  -14   13   16      0.54      0.00
  -13   13   16      0.47      0.00
  -12   13   16     -0.08      0.00
  -11   13   16      0.45      0.00
  -10   13   16      0.97      0.00
   -9   13   16      0.78      0.00
   -8   13   16     -0.65      0.00
   -7   13   16     -1.08      0.00
   -6   13   16      1.74      0.00
   -5   13   16     -0.88      0.00
   -4   13   16     -0.51      0.00
   -3   13   16     -0.08      0.00
   -2   13   16      0.16      0.00
   -1   13   16     -0.85      0.00
    0   13   16      0.49      0.00
    1   13   16     -0.83      0.00
    2   13   16     -2.30      0.00
    3   13   16     -0.15      0.00
    4   13   16      1.50      0.00
    5   13   16     -0.49      0.00
    6   13   16     -0.09      0.00
    7   13   16     -0.66      0.00
    8   13   16     -0.13      0.00
  -14   14   16     -0.20      0.00
  -13   14   16      0.48      0.00
  -12   14   16      0.68      0.00
  -11   14   16      0.45      0.00
  -10   14   16     -0.06      0.00
   -9   14   16     -0.88      0.00
   -8   14   16     -0.23      0.00
   -7   14   16     -1.74      0.00
   -6   14   16     -0.25      0.00
   -5   14   16     -1.13      0.00
   -4   14   16     -1.82      0.00
   -3   14   16     -1.31      0.00
   -2   14   16      0.34      0.00
   -1   14   16     -0.35      0.00
    0   14   16     -2.44      0.00
    1   14   16     -0.62      0.00
    2   14   16      0.26      0.00
    3   14   16      0.05      0.00
    4   14   16     -0.29      0.00
    5   14   16     -1.28      0.00
    6   14   16     -1.26      0.00
    7   14   16      0.66      0.00
  -13   15   16     -0.41      0.00
  -12   15   16      0.08      0.00
  -11   15   16     -0.72      0.00
  -10   15   16     -0.88      0.00
   -9   15   16     -1.32      0.00
   -8   15   16      0.87      0.00
   -7   15   16      0.65      0.00
   -6   15   16     -1.44      0.00
   -5   15   16     -0.16      0.00
   -4   15   16      0.12      0.00
   -3   15   16      0.37      0.00
   -2   15   16     -0.62      0.00
   -1   15   16      0.55      0.00
    0   15   16      0.07      0.00
    1   15   16      0.70      0.00
    2   15   16      1.68      0.00
    3   15   16     -0.92      0.00
    4   15   16     -1.17      0.00
    5   15   16     -0.13      0.00
  -11   16   16     -0.14      0.00
  -10   16   16      0.14      0.00
   -9   16   16      1.03      0.00
   -8   16   16     -0.12      0.00
   -7   16   16      0.89      0.00
   -6   16   16     -0.01      0.00
   -5   16   16      0.95      0.00
   -4   16   16      1.66      0.00
   -3   16   16      0.04      0.00
   -2   16   16      0.05      0.00
   -1   16   16      0.19      0.00
    0   16   16      2.27      0.00
    1   16   16      0.24      0.00
    2   16   16      0.00      0.00
    3   16   16     -0.66      0.00
    4   16   16     -0.24      0.00
   -9   17   16      1.30      0.00
   -8   17   16     -0.74      0.00
   -7   17   16     -0.25      0.00
   -6   17   16      1.08      0.00
   -5   17   16      1.29      0.00
   -4   17   16     -0.21      0.00
   -3   17   16     -0.15      0.00
   -2   17   16      0.79      0.00
   -1   17   16     -0.27      0.00
    0   17   16      0.24      0.00
    1   17   16     -0.39      0.00
    2   17   16     -1.12      0.00
   -6   18   16      0.49      0.00
   -5   18   16     -0.84      0.00
   -4   18   16     -1.01      0.00
   -3   18   16      0.60      0.00
   -2   18   16     -0.12      0.00
   -1   18   16      0.02      0.00
  -19    0   17      0.03      0.00
  -17    0   17      0.09      0.00
  -15    0   17     -1.73      0.00
  -13    0   17      1.12      0.00
  -11    0   17      0.30      0.00
   -9    0   17     -3.54      0.00
   -7    0   17      3.26      0.00
   -5    0   17     -6.01      0.00
   -3    0   17      2.73      0.00
   -1    0   17      0.59      0.00
    1    0   17     -2.85      0.00
    3    0   17      1.94      0.00
    5    0   17     -1.43      0.00
    7    0   17      1.16      0.00
    9    0   17      0.61      0.00
   11    0   17     -0.21      0.00
  -19    1   17      0.54      0.00
  -18    1   17     -0.08      0.00
  -17    1   17     -0.58      0.00
  -16    1   17      0.18      0.00
  -15    1   17      0.12      0.00
  -14    1   17      0.22      0.00
  -13    1   17      2.42      0.00
  -12    1   17     -0.15      0.00
  -11    1   17     -0.63      0.00
  -10    1   17     -0.97      0.00
   -9    1   17      2.38      0.00
   -8    1   17      0.01      0.00
   -7    1   17     -0.67      0.00
   -6    1   17      0.16      0.00
   -5    1   17     -1.53      0.00
   -4    1   17     -0.08      0.00
   -3    1   17      2.51      0.00
   -2    1   17      0.41      0.00
   -1    1   17     -3.02      0.00
    0    1   17      0.03      0.00
    1    1   17      3.32      0.00
    2    1   17     -0.32      0.00
    3    1   17      0.43      0.00
    4    1   17     -0.64      0.00
    5    1   17     -1.94      0.00
    6    1   17     -0.21      0.00
    7    1   17      2.47      0.00
    8    1   17      0.07      0.00
    9    1   17     -2.28      0.00
   10    1   17     -0.46      0.00
   11    1   17     -0.07      0.00
   12    1   17     -0.59      0.00
  -19    2   17      0.27      0.00
  -18    2   17     -0.19      0.00
  -17    2   17      0.10      0.00
  -16    2   17      0.91      0.00
  -15    2   17      1.45      0.00
  -14    2   17     -0.14      0.00
  -13    2   17     -0.90      0.00
  -12    2   17      0.33      0.00
  -11    2   17     -0.38      0.00
  -10    2   17      0.47      0.00
   -9    2   17      3.31      0.00
   -8    2   17      0.53      0.00
   -7    2   17     -2.63      0.00
   -6    2   17      0.54      0.00
   -5    2   17      5.49      0.00
   -4    2   17     -0.18      0.00
   -3    2   17     -2.17      0.00
   -2    2   17      0.28      0.00
   -1    2   17     -0.24      0.00
    0    2   17      0.99      0.00
    1    2   17      2.98      0.00
    2    2   17      0.18      0.00
    3    2   17     -2.39      0.00
    4    2   17      0.81      0.00
    5    2   17      1.21      0.00
    6    2   17     -0.06      0.00
    7    2   17     -1.33      0.00
    8    2   17     -0.39      0.00
    9    2   17     -0.27      0.00
   10    2   17     -0.57      0.00
   11    2   17     -0.51      0.00
   12    2   17      0.25      0.00
  -19    3   17     -0.55      0.00
  -18    3   17      0.37      0.00
  -17    3   17     -0.16      0.00
  -16    3   17     -0.21      0.00
  -15    3   17     -0.28      0.00
  -14    3   17     -0.39      0.00
  -13    3   17     -1.64      0.00
  -12    3   17      0.50      0.00
  -11    3   17      0.95      0.00
  -10    3   17      1.85      0.00
   -9    3   17     -2.73      0.00
   -8    3   17      0.39      0.00
   -7    3   17     -0.10      0.00
   -6    3   17      0.00      0.00
   -5    3   17      2.16      0.00
   -4    3   17      0.16      0.00
   -3    3   17     -3.03      0.00
   -2    3   17     -0.65      0.00
   -1    3   17      3.59      0.00
    0    3   17      0.00      0.00
    1    3   17     -2.62      0.00
    2    3   17      0.58      0.00
    3    3   17     -0.01      0.00
    4    3   17      1.47      0.00
    5    3   17      1.14      0.00
    6    3   17      0.19      0.00
    7    3   17     -1.88      0.00
    8    3   17      0.19      0.00
    9    3   17      1.68      0.00
   10    3   17      0.76      0.00
   11    3   17      0.58      0.00
  -19    4   17     -0.66      0.00
  -18    4   17      0.01      0.00
  -17    4   17     -0.24      0.00
  -16    4   17     -1.55      0.00
  -15    4   17     -0.86      0.00
  -14    4   17      0.08      0.00
  -13    4   17      0.67      0.00
  -12    4   17     -0.22      0.00
  -11    4   17      0.26      0.00
  -10    4   17     -0.95      0.00
   -9    4   17     -2.99      0.00
   -8    4   17     -1.49      0.00
   -7    4   17      1.74      0.00
   -6    4   17     -0.89      0.00
   -5    4   17     -4.27      0.00
   -4    4   17      0.03      0.00
   -3    4   17      1.14      0.00
   -2    4   17     -0.87      0.00
   -1    4   17     -0.20      0.00
    0    4   17     -0.65      0.00
    1    4   17     -3.06      0.00
    2    4   17      0.74      0.00
    3    4   17      3.15      0.00
    4    4   17     -1.59      0.00
    5    4   17     -0.72      0.00
    6    4   17      0.05      0.00
    7    4   17      1.71      0.00
    8    4   17      1.03      0.00
    9    4   17     -0.23      0.00
   10    4   17      0.65      0.00
   11    4   17      1.44      0.00
  -19    5   17      0.22      0.00
  -18    5   17     -0.46      0.00
  -17    5   17      0.89      0.00
  -16    5   17     -0.11      0.00
  -15    5   17      0.26      0.00
  -14    5   17      0.26      0.00
  -13    5   17      1.26      0.00
  -12    5   17     -0.73      0.00
  -11    5   17     -1.00      0.00
  -10    5   17     -1.43      0.00
   -9    5   17      2.38      0.00
   -8    5   17     -1.08      0.00
   -7    5   17      0.49      0.00
   -6    5   17     -0.71      0.00
   -5    5   17     -2.21      0.00
   -4    5   17     -0.29      0.00
   -3    5   17      3.03      0.00
   -2    5   17     -0.04      0.00
   -1    5   17     -3.44      0.00
    0    5   17      0.17      0.00
    1    5   17      2.55      0.00
    2    5   17     -0.18      0.00
    3    5   17     -0.07      0.00
    4    5   17     -1.16      0.00
    5    5   17     -0.31      0.00
    6    5   17      0.47      0.00
    7    5   17      1.40      0.00
    8    5   17     -0.58      0.00
    9    5   17     -0.85      0.00
   10    5   17     -0.05      0.00
   11    5   17     -0.57      0.00
  -18    6   17      0.11      0.00
  -17    6   17      0.13      0.00
  -16    6   17      1.89      0.00
  -15    6   17      0.42      0.00
  -14    6   17      0.35      0.00
  -13    6   17     -0.80      0.00
  -12    6   17      0.35      0.00
  -11    6   17      0.00      0.00
  -10    6   17      1.18      0.00
   -9    6   17      2.73      0.00
   -8    6   17      1.92      0.00
   -7    6   17     -1.58      0.00
   -6    6   17      1.08      0.00
   -5    6   17      2.78      0.00
   -4    6   17      0.42      0.00
   -3    6   17     -1.00      0.00
   -2    6   17      1.12      0.00
   -1    6   17     -0.12      0.00
    0    6   17     -0.07      0.00
    1    6   17      2.94      0.00
    2    6   17     -2.02      0.00
    3    6   17     -2.97      0.00
    4    6   17      1.96      0.00
    5    6   17      0.46      0.00
    6    6   17     -0.01      0.00
    7    6   17     -1.78      0.00
    8    6   17     -1.41      0.00
    9    6   17      0.48      0.00
   10    6   17     -0.17      0.00
   11    6   17     -1.19      0.00
  -18    7   17      0.07      0.00
  -17    7   17     -0.70      0.00
  -16    7   17      0.39      0.00
  -15    7   17      0.38      0.00
  -14    7   17     -0.45      0.00
  -13    7   17     -1.00      0.00
  -12    7   17      0.31      0.00
  -11    7   17      0.88      0.00
  -10    7   17      1.20      0.00
   -9    7   17     -1.11      0.00
   -8    7   17      1.37      0.00
   -7    7   17     -0.15      0.00
   -6    7   17      0.98      0.00
   -5    7   17      1.61      0.00
   -4    7   17      0.15      0.00
   -3    7   17     -2.56      0.00
   -2    7   17      0.09      0.00
   -1    7   17      2.10      0.00
    0    7   17     -0.88      0.00
    1    7   17     -3.36      0.00
    2    7   17     -0.18      0.00
    3    7   17     -0.23      0.00
    4    7   17      0.31      0.00
    5    7   17      0.09      0.00
    6    7   17     -0.83      0.00
    7    7   17     -1.22      0.00
    8    7   17      0.45      0.00
    9    7   17      0.38      0.00
   10    7   17     -0.84      0.00
  -18    8   17      0.42      0.00
  -17    8   17     -0.29      0.00
  -16    8   17     -1.57      0.00
  -15    8   17     -0.37      0.00
  -14    8   17     -0.44      0.00
  -13    8   17      0.34      0.00
  -12    8   17     -0.68      0.00
  -11    8   17      0.22      0.00
  -10    8   17     -0.91      0.00
   -9    8   17     -1.82      0.00
   -8    8   17     -1.53      0.00
   -7    8   17      1.92      0.00
   -6    8   17     -1.09      0.00
   -5    8   17     -1.54      0.00
   -4    8   17     -0.70      0.00
   -3    8   17      1.20      0.00
   -2    8   17     -1.23      0.00
   -1    8   17      0.41      0.00
    0    8   17     -0.51      0.00
    1    8   17     -2.68      0.00
    2    8   17      1.98      0.00
    3    8   17      2.08      0.00
    4    8   17     -1.58      0.00
    5    8   17     -0.44      0.00
    6    8   17     -0.07      0.00
    7    8   17      1.34      0.00
    8    8   17      1.20      0.00
    9    8   17     -0.90      0.00
   10    8   17     -0.18      0.00
  -17    9   17     -0.01      0.00
  -16    9   17     -0.53      0.00
  -15    9   17     -0.90      0.00
  -14    9   17      0.77      0.00
  -13    9   17      0.32      0.00
  -12    9   17      0.30      0.00
  -11    9   17     -1.05      0.00
  -10    9   17     -1.13      0.00
   -9    9   17     -0.32      0.00
   -8    9   17     -0.75      0.00
   -7    9   17     -0.10      0.00
   -6    9   17      0.01      0.00
   -5    9   17     -1.03      0.00
   -4    9   17      0.17      0.00
   -3    9   17      2.42      0.00
   -2    9   17      1.01      0.00
   -1    9   17     -1.28      0.00
    0    9   17      1.34      0.00
    1    9   17      3.17      0.00
    2    9   17      0.14      0.00
    3    9   17      0.19      0.00
    4    9   17      0.25      0.00
    5    9   17     -0.25      0.00
    6    9   17      0.75      0.00
    7    9   17      1.25      0.00
    8    9   17     -0.32      0.00
    9    9   17     -0.24      0.00
  -16   10   17      0.78      0.00
  -15   10   17      0.35      0.00
  -14   10   17     -0.06      0.00
  -13   10   17      0.85      0.00
  -12   10   17      0.38      0.00
  -11   10   17     -0.67      0.00
  -10   10   17      0.10      0.00
   -9   10   17      0.74      0.00
   -8   10   17      1.30      0.00
   -7   10   17     -1.79      0.00
   -6   10   17      1.38      0.00
   -5   10   17      1.03      0.00
   -4   10   17      1.21      0.00
   -3   10   17     -0.28      0.00
   -2   10   17      1.56      0.00
   -1   10   17      0.23      0.00
    0   10   17      1.11      0.00
    1   10   17      2.06      0.00
    2   10   17     -0.94      0.00
    3   10   17     -1.67      0.00
    4   10   17      0.76      0.00
    5   10   17      0.57      0.00
    6   10   17      0.60      0.00
    7   10   17     -0.91      0.00
    8   10   17     -0.40      0.00
    9   10   17      1.04      0.00
  -16   11   17      0.46      0.00
  -15   11   17      0.65      0.00
  -14   11   17     -0.65      0.00
  -13   11   17      0.13      0.00
  -12   11   17      0.00      0.00
  -11   11   17      0.83      0.00
  -10   11   17      0.72      0.00
   -9   11   17      0.80      0.00
   -8   11   17     -0.30      0.00
   -7   11   17      0.15      0.00
   -6   11   17     -1.44      0.00
   -5   11   17      1.10      0.00
   -4   11   17     -0.06      0.00
   -3   11   17     -2.20      0.00
   -2   11   17     -1.44      0.00
   -1   11   17      1.38      0.00
    0   11   17     -0.71      0.00
    1   11   17     -2.14      0.00
    2   11   17     -0.71      0.00
    3   11   17      0.04      0.00
    4   11   17     -0.51      0.00
    5   11   17      0.52      0.00
    6   11   17     -1.08      0.00
    7   11   17     -0.99      0.00
    8   11   17      0.52      0.00
  -15   12   17     -0.11      0.00
  -14   12   17      0.33      0.00
  -13   12   17     -1.26      0.00
  -12   12   17     -0.05      0.00
  -11   12   17      0.82      0.00
  -10   12   17      0.30      0.00
   -9   12   17     -0.65      0.00
   -8   12   17     -1.59      0.00
   -7   12   17      0.84      0.00
   -6   12   17     -1.56      0.00
   -5   12   17     -1.16      0.00
   -4   12   17     -1.88      0.00
   -3   12   17     -0.70      0.00
   -2   12   17     -1.39      0.00
   -1   12   17     -0.65      0.00
    0   12   17     -0.58      0.00
    1   12   17     -1.52      0.00
    2   12   17      0.05      0.00
    3   12   17      1.13      0.00
    4   12   17     -0.32      0.00
    5   12   17     -1.37      0.00
    6   12   17     -1.13      0.00
    7   12   17      0.62      0.00
  -14   13   17      0.43      0.00
  -13   13   17     -0.18      0.00
  -12   13   17     -0.67      0.00
  -11   13   17     -0.44      0.00
  -10   13   17     -0.64      0.00
   -9   13   17     -0.20      0.00
   -8   13   17      0.58      0.00
   -7   13   17     -0.16      0.00
   -6   13   17      1.50      0.00
   -5   13   17     -1.32      0.00
   -4   13   17     -0.03      0.00
   -3   13   17      1.36      0.00
   -2   13   17      1.09      0.00
   -1   13   17     -0.92      0.00
    0   13   17     -0.01      0.00
    1   13   17      1.91      0.00
    2   13   17      1.24      0.00
    3   13   17     -0.01      0.00
    4   13   17     -0.25      0.00
    5   13   17     -0.84      0.00
    6   13   17      1.43      0.00
  -13   14   17      0.56      0.00
  -12   14   17      0.26      0.00
  -11   14   17     -0.77      0.00
  -10   14   17      0.09      0.00
   -9   14   17      0.82      0.00
   -8   14   17      1.82      0.00
   -7   14   17     -0.33      0.00
   -6   14   17      1.16      0.00
   -5   14   17      1.45      0.00
   -4   14   17      1.81      0.00
   -3   14   17      0.85      0.00
   -2   14   17      0.56      0.00
   -1   14   17      0.60      0.00
    0   14   17      0.40      0.00
    1   14   17      1.57      0.00
    2   14   17      0.35      0.00
    3   14   17     -0.40      0.00
    4   14   17      0.39      0.00
    5   14   17      1.75      0.00
  -12   15   17      0.75      0.00
  -11   15   17      0.73      0.00
  -10   15   17      0.84      0.00
   -9   15   17     -0.37      0.00
   -8   15   17     -0.45      0.00
   -7   15   17      0.01      0.00
   -6   15   17     -0.21      0.00
   -5   15   17      0.84      0.00
   -4   15   17     -0.15      0.00
   -3   15   17     -0.68      0.00
   -2   15   17     -0.76      0.00
   -1   15   17      0.36      0.00
    0   15   17     -0.02      0.00
    1   15   17     -1.67      0.00
    2   15   17     -0.27      0.00
    3   15   17     -0.01      0.00
    4   15   17      1.37      0.00
  -10   16   17     -0.19      0.00
   -9   16   17     -0.64      0.00
   -8   16   17     -1.52      0.00
   -7   16   17      0.52      0.00
   -6   16   17     -0.81      0.00
   -5   16   17     -1.35      0.00
   -4   16   17     -1.24      0.00
   -3   16   17     -0.67      0.00
   -2   16   17      0.16      0.00
   -1   16   17     -0.87      0.00
    0   16   17     -0.42      0.00
    1   16   17     -1.44      0.00
    2   16   17      0.06      0.00
   -8   17   17      0.39      0.00
   -7   17   17     -0.03      0.00
   -6   17   17     -0.88      0.00
   -5   17   17     -0.48      0.00
   -4   17   17     -0.02      0.00
   -3   17   17      0.53      0.00
   -2   17   17      0.28      0.00
   -1   17   17     -0.54      0.00
    0   17   17      0.24      0.00
  -18    0   18     -0.67      0.00
  -16    0   18      0.75      0.00
  -14    0   18      0.15      0.00
  -12    0   18     -2.44      0.00
  -10    0   18      1.32      0.00
   -8    0   18     -1.12      0.00
   -6    0   18      1.03      0.00
   -4    0   18      1.63      0.00
   -2    0   18     -2.72      0.00
    0    0   18      2.04      0.00
    2    0   18      0.70      0.00
    4    0   18     -1.56      0.00
    6    0   18      0.76      0.00
    8    0   18     -1.80      0.00
   10    0   18      1.54      0.00
  -19    1   18      0.04      0.00
  -18    1   18     -0.31      0.00
  -17    1   18     -0.06      0.00
  -16    1   18     -0.04      0.00
  -15    1   18     -0.39      0.00
  -14    1   18     -1.37      0.00
  -13    1   18     -0.11      0.00
  -12    1   18     -1.08      0.00
  -11    1   18      0.49      0.00
  -10    1   18      0.77      0.00
   -9    1   18      0.28      0.00
   -8    1   18     -2.72      0.00
   -7    1   18     -0.37      0.00
   -6    1   18      2.52      0.00
   -5    1   18      0.19      0.00
   -4    1   18     -2.12      0.00
   -3    1   18     -0.17      0.00
   -2    1   18      1.01      0.00
   -1    1   18     -0.13      0.00
    0    1   18      0.79      0.00
    1    1   18      0.11      0.00
    2    1   18     -3.70      0.00
    3    1   18      0.48      0.00
    4    1   18      1.81      0.00
    5    1   18      0.25      0.00
    6    1   18     -1.32      0.00
    7    1   18      0.10      0.00
    8    1   18      0.77      0.00
    9    1   18      0.35      0.00
   10    1   18      0.30      0.00
   11    1   18      0.76      0.00
  -19    2   18      0.72      0.00
  -18    2   18      0.24      0.00
  -17    2   18     -1.00      0.00
  -16    2   18     -0.49      0.00
  -15    2   18      0.02      0.00
  -14    2   18     -0.23      0.00
  -13    2   18     -0.11      0.00
  -12    2   18      2.13      0.00
  -11    2   18     -0.40      0.00
  -10    2   18     -0.88      0.00
   -9    2   18     -0.48      0.00
   -8    2   18      0.56      0.00
   -7    2   18     -0.11      0.00
   -6    2   18     -1.01      0.00
   -5    2   18     -0.44      0.00
   -4    2   18     -1.80      0.00
   -3    2   18     -0.40      0.00
   -2    2   18      2.55      0.00
   -1    2   18     -0.56      0.00
    0    2   18     -2.61      0.00
    1    2   18     -0.90      0.00
    2    2   18     -0.14      0.00
    3    2   18     -0.29      0.00
    4    2   18      1.57      0.00
    5    2   18     -0.52      0.00
    6    2   18     -0.42      0.00
    7    2   18      0.81      0.00
    8    2   18      1.33      0.00
    9    2   18      0.56      0.00
   10    2   18     -0.64      0.00
   11    2   18     -0.04      0.00
  -19    3   18     -0.25      0.00
  -18    3   18      0.75      0.00
  -17    3   18     -0.12      0.00
  -16    3   18      0.24      0.00
  -15    3   18      0.99      0.00
  -14    3   18      0.94      0.00
  -13    3   18     -0.03      0.00
  -12    3   18      0.31      0.00
  -11    3   18     -0.81      0.00
  -10    3   18     -0.56      0.00
   -9    3   18     -0.52      0.00
   -8    3   18      3.31      0.00
   -7    3   18      0.25      0.00
   -6    3   18     -2.69      0.00
   -5    3   18     -0.51      0.00
   -4    3   18      1.72      0.00
   -3    3   18      0.27      0.00
   -2    3   18     -1.07      0.00
   -1    3   18      0.18      0.00
    0    3   18     -1.52      0.00
    1    3   18     -0.25      0.00
    2    3   18      3.07      0.00
    3    3   18     -1.08      0.00
    4    3   18     -2.05      0.00
    5    3   18     -0.23      0.00
    6    3   18      1.55      0.00
    7    3   18     -0.42      0.00
    8    3   18     -0.84      0.00
    9    3   18     -0.82      0.00
   10    3   18     -0.56      0.00
  -18    4   18      0.31      0.00
  -17    4   18      1.40      0.00
  -16    4   18     -0.11      0.00
  -15    4   18      0.18      0.00
  -14    4   18      0.38      0.00
  -13    4   18     -0.21      0.00
  -12    4   18     -1.48      0.00
  -11    4   18      0.58      0.00
  -10    4   18      0.55      0.00
   -9    4   18      1.41      0.00
   -8    4   18      0.26      0.00
   -7    4   18      0.67      0.00
   -6    4   18      0.66      0.00
   -5    4   18      0.49      0.00
   -4    4   18      2.07      0.00
   -3    4   18      1.03      0.00
   -2    4   18     -2.20      0.00
   -1    4   18      0.66      0.00
    0    4   18      3.31      0.00
    1    4   18      0.19      0.00
    2    4   18     -0.86      0.00
    3    4   18      0.40      0.00
    4    4   18     -1.59      0.00
    5    4   18      0.87      0.00
    6    4   18     -0.23      0.00
    7    4   18     -1.55      0.00
    8    4   18     -0.65      0.00
    9    4   18     -0.88      0.00
   10    4   18     -0.77      0.00
  -18    5   18     -0.94      0.00
  -17    5   18      0.41      0.00
  -16    5   18     -0.56      0.00
  -15    5   18     -1.25      0.00
  -14    5   18     -0.65      0.00
  -13    5   18      0.61      0.00
  -12    5   18      0.15      0.00
  -11    5   18      0.42      0.00
  -10    5   18      0.55      0.00
   -9    5   18      0.26      0.00
   -8    5   18     -2.96      0.00
   -7    5   18      0.69      0.00
   -6    5   18      2.49      0.00
   -5    5   18      0.68      0.00
   -4    5   18     -1.25      0.00
   -3    5   18      0.14      0.00
   -2    5   18      1.09      0.00
   -1    5   18     -0.06      0.00
    0    5   18      1.42      0.00
    1    5   18     -0.03      0.00
    2    5   18     -2.65      0.00
    3    5   18      0.83      0.00
    4    5   18      2.20      0.00
    5    5   18     -0.69      0.00
    6    5   18     -1.93      0.00
    7    5   18      0.69      0.00
    8    5   18      0.72      0.00
    9    5   18      0.63      0.00
   10    5   18      0.41      0.00
  -18    6   18     -0.45      0.00
  -17    6   18     -1.42      0.00
  -16    6   18      0.47      0.00
  -15    6   18     -0.74      0.00
  -14    6   18     -0.37      0.00
  -13    6   18      0.47      0.00
  -12    6   18      1.14      0.00
  -11    6   18     -0.54      0.00
  -10    6   18     -1.00      0.00
   -9    6   18     -1.98      0.00
   -8    6   18     -0.48      0.00
   -7    6   18     -1.09      0.00
   -6    6   18      0.13      0.00
   -5    6   18     -0.57      0.00
   -4    6   18     -1.73      0.00
   -3    6   18     -1.29      0.00
   -2    6   18      2.20      0.00
   -1    6   18     -0.47      0.00
    0    6   18     -3.04      0.00
    1    6   18      1.31      0.00
    2    6   18      1.10      0.00
    3    6   18     -0.28      0.00
    4    6   18      1.21      0.00
    5    6   18     -0.85      0.00
    6    6   18      0.45      0.00
    7    6   18      1.61      0.00
    8    6   18      0.35      0.00
    9    6   18      0.97      0.00
   10    6   18      0.99      0.00
  -17    7   18     -0.40      0.00
  -16    7   18      0.35      0.00
  -15    7   18      1.40      0.00
  -14    7   18      0.26      0.00
  -13    7   18     -0.65      0.00
  -12    7   18      0.09      0.00
  -11    7   18     -0.18      0.00
  -10    7   18     -0.94      0.00
   -9    7   18     -0.30      0.00
   -8    7   18      1.55      0.00
   -7    7   18     -0.86      0.00
   -6    7   18     -2.06      0.00
   -5    7   18     -0.41      0.00
   -4    7   18      0.92      0.00
   -3    7   18     -0.18      0.00
   -2    7   18     -0.58      0.00
   -1    7   18      0.61      0.00
    0    7   18     -0.10      0.00
    1    7   18      0.58      0.00
    2    7   18      2.72      0.00
    3    7   18     -0.30      0.00
    4    7   18     -2.15      0.00
    5    7   18      1.37      0.00
    6    7   18      1.93      0.00
    7    7   18     -0.61      0.00
    8    7   18     -0.38      0.00
    9    7   18      0.03      0.00
  -17    8   18      1.00      0.00
  -16    8   18     -0.21      0.00
  -15    8   18      0.83      0.00
  -14    8   18      0.45      0.00
  -13    8   18     -0.57      0.00
  -12    8   18     -0.96      0.00
  -11    8   18      0.48      0.00
  -10    8   18      0.94      0.00
   -9    8   18      1.71      0.00
   -8    8   18      0.10      0.00
   -7    8   18      1.00      0.00
   -6    8   18     -0.80      0.00
   -5    8   18      0.59      0.00
   -4    8   18      1.15      0.00
   -3    8   18      1.19      0.00
   -2    8   18     -2.12      0.00
   -1    8   18      0.67      0.00
    0    8   18      2.47      0.00
    1    8   18     -1.31      0.00
    2    8   18     -0.72      0.00
    3    8   18     -0.01      0.00
    4    8   18     -0.59      0.00
    5    8   18      0.53      0.00
    6    8   18     -0.30      0.00
    7    8   18     -0.96      0.00
    8    8   18     -0.13      0.00
    9    8   18     -0.96      0.00
  -16    9   18      0.09      0.00
  -15    9   18     -1.44      0.00
  -14    9   18      0.28      0.00
  -13    9   18      0.10      0.00
  -12    9   18     -0.51      0.00
  -11    9   18      0.17      0.00
  -10    9   18      1.70      0.00
   -9    9   18      0.47      0.00
   -8    9   18     -0.47      0.00
   -7    9   18     -0.36      0.00
   -6    9   18      1.66      0.00
   -5    9   18     -0.22      0.00
   -4    9   18     -0.89      0.00
   -3    9   18     -0.59      0.00
   -2    9   18     -0.32      0.00
   -1    9   18     -1.31      0.00
    0    9   18     -0.35      0.00
    1    9   18     -0.71      0.00
    2    9   18     -2.32      0.00
    3    9   18      0.04      0.00
    4    9   18      1.92      0.00
    5    9   18     -1.19      0.00
    6    9   18     -1.50      0.00
    7    9   18      0.20      0.00
    8    9   18     -0.10      0.00
  -16   10   18     -0.25      0.00
  -15   10   18     -0.29      0.00
  -14   10   18     -0.76      0.00
  -13   10   18      0.73      0.00
  -12   10   18      0.43      0.00
  -11   10   18     -0.21      0.00
  -10   10   18     -0.10      0.00
   -9   10   18     -1.04      0.00
   -8   10   18      0.17      0.00
   -7   10   18     -1.17      0.00
   -6   10   18      0.83      0.00
   -5   10   18     -0.68      0.00
   -4   10   18     -1.41      0.00
   -3   10   18     -1.64      0.00
   -2   10   18      1.18      0.00
   -1   10   18     -0.60      0.00
    0   10   18     -2.24      0.00
    1   10   18      0.16      0.00
    2   10   18      0.83      0.00
    3   10   18      0.63      0.00
    4   10   18      0.18      0.00
    5   10   18     -0.57      0.00
    6   10   18      0.17      0.00
    7   10   18      0.03      0.00
    8   10   18     -0.02      0.00
  -15   11   18      1.17      0.00
  -14   11   18     -0.46      0.00
  -13   11   18      0.04      0.00
  -12   11   18      0.93      0.00
  -11   11   18     -0.29      0.00
  -10   11   18     -1.91      0.00
   -9   11   18     -0.26      0.00
   -8   11   18      0.26      0.00
   -7   11   18      1.72      0.00
   -6   11   18     -1.47      0.00
   -5   11   18      0.54      0.00
   -4   11   18      0.65      0.00
   -3   11   18      1.00      0.00
   -2   11   18      0.94      0.00
   -1   11   18      0.62      0.00
    0   11   18     -0.20      0.00
    1   11   18      0.70      0.00
    2   11   18      1.72      0.00
    3   11   18      0.41      0.00
    4   11   18     -1.43      0.00
    5   11   18      0.91      0.00
    6   11   18      0.84      0.00
    7   11   18      0.44      0.00
  -14   12   18      0.82      0.00
  -13   12   18     -0.45      0.00
  -12   12   18     -0.03      0.00
  -11   12   18      0.13      0.00
  -10   12   18     -0.24      0.00
   -9   12   18      0.72      0.00
   -8   12   18      0.09      0.00
   -7   12   18      1.55      0.00
   -6   12   18     -0.23      0.00
   -5   12   18      0.99      0.00
   -4   12   18      1.95      0.00
   -3   12   18      2.12      0.00
   -2   12   18     -0.50      0.00
   -1   12   18     -0.20      0.00
    0   12   18      1.92      0.00
    1   12   18      0.66      0.00
    2   12   18     -0.76      0.00
    3   12   18     -1.03      0.00
    4   12   18      0.58      0.00
    5   12   18      1.14      0.00
    6   12   18      0.34      0.00
  -13   13   18      0.18      0.00
  -12   13   18     -0.78      0.00
  -11   13   18      0.50      0.00
  -10   13   18      1.15      0.00
   -9   13   18      0.12      0.00
   -8   13   18     -0.49      0.00
   -7   13   18     -1.73      0.00
   -6   13   18      1.18      0.00
   -5   13   18     -0.32      0.00
   -4   13   18     -0.10      0.00
   -3   13   18     -0.99      0.00
   -2   13   18     -1.11      0.00
   -1   13   18      0.47      0.00
    0   13   18     -0.05      0.00
    1   13   18     -0.77      0.00
    2   13   18     -1.73      0.00
    3   13   18     -0.21      0.00
    4   13   18      0.96      0.00
    5   13   18     -0.55      0.00
  -12   14   18      0.20      0.00
  -11   14   18     -0.36      0.00
  -10   14   18     -0.02      0.00
   -9   14   18     -0.93      0.00
   -8   14   18     -0.04      0.00
   -7   14   18     -1.41      0.00
   -6   14   18     -0.28      0.00
   -5   14   18     -1.31      0.00
   -4   14   18     -1.90      0.00
   -3   14   18     -1.46      0.00
   -2   14   18      0.38      0.00
   -1   14   18      0.42      0.00
    0   14   18     -1.61      0.00
    1   14   18     -1.11      0.00
    2   14   18      0.07      0.00
    3   14   18      0.52      0.00
    4   14   18     -1.07      0.00
  -11   15   18     -0.39      0.00
  -10   15   18     -0.38      0.00
   -9   15   18     -0.06      0.00
   -8   15   18      0.65      0.00
   -7   15   18      0.94      0.00
   -6   15   18     -0.58      0.00
   -5   15   18     -0.13      0.00
   -4   15   18      0.11      0.00
   -3   15   18      0.91      0.00
   -2   15   18      0.82      0.00
   -1   15   18     -0.46      0.00
    0   15   18      0.44      0.00
    1   15   18      0.25      0.00
    2   15   18      1.50      0.00
   -8   16   18     -0.13      0.00
   -7   16   18      0.88      0.00
   -6   16   18      0.25      0.00
   -5   16   18      1.64      0.00
   -4   16   18      1.29      0.00
   -3   16   18      0.33      0.00
   -2   16   18     -0.07      0.00
   -1   16   18     -0.10      0.00
    0   16   18      1.44      0.00
  -17    0   19      0.29      0.00
  -15    0   19     -0.61      0.00
  -13    0   19      1.28      0.00
  -11    0   19      1.99      0.00
   -9    0   19     -1.72      0.00
   -7    0   19      1.93      0.00
   -5    0   19     -2.04      0.00
   -3    0   19      0.30      0.00
   -1    0   19      0.79      0.00
    1    0   19     -4.02      0.00
    3    0   19      3.05      0.00
    5    0   19     -0.91      0.00
    7    0   19      1.08      0.00
    9    0   19     -1.71      0.00
  -18    1   19     -0.22      0.00
  -17    1   19      0.40      0.00
  -16    1   19      0.66      0.00
  -15    1   19      0.46      0.00
  -14    1   19      0.03      0.00
  -13    1   19      0.57      0.00
  -12    1   19     -0.04      0.00
  -11    1   19     -1.19      0.00
  -10    1   19     -0.45      0.00
   -9    1   19      0.68      0.00
   -8    1   19      0.19      0.00
   -7    1   19     -0.50      0.00
   -6    1   19     -0.01      0.00
   -5    1   19      0.37      0.00
   -4    1   19      0.03      0.00
   -3    1   19      0.48      0.00
   -2    1   19      0.18      0.00
   -1    1   19     -1.92      0.00
    0    1   19     -0.08      0.00
    1    1   19      2.60      0.00
    2    1   19      0.02      0.00
    3    1   19      1.62      0.00
    4    1   19     -0.56      0.00
    5    1   19     -1.25      0.00
    6    1   19     -0.10      0.00
    7    1   19      1.01      0.00
    8    1   19     -0.57      0.00
    9    1   19     -0.16      0.00
   10    1   19     -0.62      0.00
  -18    2   19      0.57      0.00
  -17    2   19     -0.25      0.00
  -16    2   19      0.25      0.00
  -15    2   19      0.50      0.00
  -14    2   19     -0.36      0.00
  -13    2   19     -0.97      0.00
  -12    2   19      0.06      0.00
  -11    2   19     -2.06      0.00
  -10    2   19      0.34      0.00
   -9    2   19      1.62      0.00
   -8    2   19     -0.13      0.00
   -7    2   19     -1.45      0.00
   -6    2   19      0.33      0.00
   -5    2   19      2.18      0.00
   -4    2   19      1.08      0.00
   -3    2   19     -0.43      0.00
   -2    2   19      0.24      0.00
   -1    2   19     -0.23      0.00
    0    2   19      0.87      0.00
    1    2   19      3.73      0.00
    2    2   19      0.36      0.00
    3    2   19     -3.11      0.00
    4    2   19      0.30      0.00
    5    2   19      0.78      0.00
    6    2   19     -0.53      0.00
    7    2   19     -1.03      0.00
    8    2   19     -0.19      0.00
    9    2   19      1.09      0.00
   10    2   19     -0.30      0.00
  -18    3   19      0.64      0.00
  -17    3   19     -0.76      0.00
  -16    3   19     -1.41      0.00
  -15    3   19     -0.05      0.00
  -14    3   19     -0.01      0.00
  -13    3   19     -0.17      0.00
  -12    3   19      0.17      0.00
  -11    3   19      1.34      0.00
  -10    3   19      0.58      0.00
   -9    3   19     -1.00      0.00
   -8    3   19     -0.04      0.00
   -7    3   19      0.03      0.00
   -6    3   19      0.44      0.00
   -5    3   19      0.71      0.00
   -4    3   19     -0.04      0.00
   -3    3   19     -0.37      0.00
   -2    3   19     -0.43      0.00
   -1    3   19      2.59      0.00
    0    3   19      0.36      0.00
    1    3   19     -2.19      0.00
    2    3   19      0.02      0.00
    3    3   19     -0.26      0.00
    4    3   19      0.97      0.00
    5    3   19      0.74      0.00
    6    3   19      0.32      0.00
    7    3   19     -0.65      0.00
    8    3   19      1.47      0.00
    9    3   19      0.38      0.00
  -18    4   19     -0.83      0.00
  -17    4   19      0.37      0.00
  -16    4   19     -0.49      0.00
  -15    4   19     -0.30      0.00
  -14    4   19      0.94      0.00
  -13    4   19      0.32      0.00
  -12    4   19     -0.10      0.00
  -11    4   19      1.68      0.00
  -10    4   19     -0.69      0.00
   -9    4   19     -1.48      0.00
   -8    4   19     -0.48      0.00
   -7    4   19      0.96      0.00
   -6    4   19     -0.56      0.00
   -5    4   19     -2.27      0.00
   -4    4   19     -1.31      0.00
   -3    4   19      0.48      0.00
   -2    4   19     -0.75      0.00
   -1    4   19     -0.55      0.00
    0    4   19     -0.44      0.00
    1    4   19     -2.95      0.00
    2    4   19     -0.13      0.00
    3    4   19      3.13      0.00
    4    4   19     -0.44      0.00
    5    4   19     -0.51      0.00
    6    4   19      1.07      0.00
    7    4   19      1.14      0.00
    8    4   19      0.47      0.00
    9    4   19     -0.09      0.00
  -18    5   19     -0.61      0.00
  -17    5   19      1.22      0.00
  -16    5   19      1.33      0.00
  -15    5   19     -0.10      0.00
  -14    5   19     -0.31      0.00
  -13    5   19     -0.01      0.00
  -12    5   19     -0.61      0.00
  -11    5   19     -1.42      0.00
  -10    5   19      0.18      0.00
   -9    5   19      0.72      0.00
   -8    5   19     -0.36      0.00
   -7    5   19      0.04      0.00
   -6    5   19     -1.06      0.00
   -5    5   19     -1.33      0.00
   -4    5   19     -0.22      0.00
   -3    5   19      0.16      0.00
   -2    5   19      0.33      0.00
   -1    5   19     -2.74      0.00
    0    5   19     -0.33      0.00
    1    5   19      1.99      0.00
    2    5   19     -0.13      0.00
    3    5   19     -1.06      0.00
    4    5   19      0.06      0.00
    5    5   19      0.01      0.00
    6    5   19     -0.40      0.00
    7    5   19      0.57      0.00
    8    5   19     -1.57      0.00
    9    5   19     -0.40      0.00
  -17    6   19     -0.43      0.00
  -16    6   19      1.04      0.00
  -15    6   19      0.06      0.00
  -14    6   19     -1.32      0.00
  -13    6   19     -0.14      0.00
  -12    6   19      0.07      0.00
  -11    6   19     -0.85      0.00
  -10    6   19      0.75      0.00
   -9    6   19      1.62      0.00
   -8    6   19      0.92      0.00
   -7    6   19     -1.13      0.00
   -6    6   19      0.74      0.00
   -5    6   19      1.74      0.00
   -4    6   19      0.95      0.00
   -3    6   19     -0.54      0.00
   -2    6   19      0.99      0.00
   -1    6   19      0.42      0.00
    0    6   19     -0.73      0.00
    1    6   19      2.11      0.00
    2    6   19     -0.52      0.00
    3    6   19     -2.55      0.00
    4    6   19      0.34      0.00
    5    6   19      0.59      0.00
    6    6   19     -1.04      0.00
    7    6   19     -1.37      0.00
    8    6   19     -0.79      0.00
    9    6   19     -0.18      0.00
  -17    7   19     -0.96      0.00
  -16    7   19     -1.12      0.00
  -15    7   19      0.29      0.00
  -14    7   19      0.46      0.00
  -13    7   19     -0.23      0.00
  -12    7   19      0.94      0.00
  -11    7   19      1.15      0.00
  -10    7   19     -0.34      0.00
   -9    7   19      0.10      0.00
   -8    7   19      0.16      0.00
   -7    7   19      0.47      0.00
   -6    7   19      0.71      0.00
   -5    7   19      1.29      0.00
   -4    7   19      0.37      0.00
   -3    7   19     -0.31      0.00
   -2    7   19     -0.53      0.00
   -1    7   19      1.69      0.00
    0    7   19     -0.33      0.00
    1    7   19     -2.33      0.00
    2    7   19      0.29      0.00
    3    7   19      1.41      0.00
    4    7   19     -1.22      0.00
    5    7   19     -0.27      0.00
    6    7   19      0.32      0.00
    7    7   19     -0.75      0.00
    8    7   19      0.87      0.00
  -16    8   19     -1.20      0.00
  -15    8   19      0.18      0.00
  -14    8   19      1.56      0.00
  -13    8   19      0.24      0.00
  -12    8   19     -0.07      0.00
  -11    8   19      0.70      0.00
  -10    8   19     -0.70      0.00
   -9    8   19     -1.58      0.00
   -8    8   19     -0.70      0.00
   -7    8   19      1.31      0.00
   -6    8   19     -0.42      0.00
   -5    8   19     -1.05      0.00
   -4    8   19     -0.65      0.00
   -3    8   19      0.56      0.00
   -2    8   19     -0.78      0.00
   -1    8   19      0.07      0.00
    0    8   19      0.68      0.00
    1    8   19     -1.60      0.00
    2    8   19      0.75      0.00
    3    8   19      1.62      0.00
    4    8   19     -0.01      0.00
    5    8   19     -0.80      0.00
    6    8   19      0.42      0.00
    7    8   19      1.35      0.00
    8    8   19      1.09      0.00
  -16    9   19      1.00      0.00
  -15    9   19     -0.52      0.00
  -14    9   19     -0.05      0.00
  -13    9   19      0.63      0.00
  -12    9   19     -0.74      0.00
  -11    9   19     -0.95      0.00
  -10    9   19     -0.11      0.00
   -9    9   19     -0.80      0.00
   -8    9   19      0.58      0.00
   -7    9   19     -0.64      0.00
   -6    9   19      0.58      0.00
   -5    9   19     -1.11      0.00
   -4    9   19     -0.13      0.00
   -3    9   19      1.23      0.00
   -2    9   19      1.15      0.00
   -1    9   19     -0.79      0.00
    0    9   19      0.57      0.00
    1    9   19      2.13      0.00
    2    9   19     -0.35      0.00
    3    9   19     -1.26      0.00
    4    9   19      1.10      0.00
    5    9   19      0.02      0.00
    6    9   19      0.14      0.00
    7    9   19      0.96      0.00
  -15   10   19     -0.22      0.00
  -14   10   19     -1.68      0.00
  -13   10   19      0.10      0.00
  -12   10   19      0.07      0.00
  -11   10   19     -1.12      0.00
  -10   10   19      0.56      0.00
   -9   10   19      1.12      0.00
   -8   10   19      0.75      0.00
   -7   10   19     -1.00      0.00
   -6   10   19     -0.03      0.00
   -5   10   19      1.02      0.00
   -4   10   19      1.14      0.00
   -3   10   19      0.07      0.00
   -2   10   19      0.32      0.00
   -1   10   19     -0.05      0.00
    0   10   19      0.27      0.00
    1   10   19      1.12      0.00
    2   10   19     -0.82      0.00
    3   10   19     -1.22      0.00
    4   10   19     -0.25      0.00
    5   10   19      0.67      0.00
    6   10   19      0.37      0.00
    7   10   19     -0.98      0.00
  -14   11   19     -0.45      0.00
  -13   11   19     -1.05      0.00
  -12   11   19      0.57      0.00
  -11   11   19      0.81      0.00
  -10   11   19      0.30      0.00
   -9   11   19      0.94      0.00
   -8   11   19     -1.10      0.00
   -7   11   19      0.35      0.00
   -6   11   19     -1.52      0.00
   -5   11   19      1.13      0.00
   -4   11   19     -0.01      0.00
   -3   11   19     -2.13      0.00
   -2   11   19     -0.86      0.00
   -1   11   19      0.67      0.00
    0   11   19      0.23      0.00
    1   11   19     -1.58      0.00
    2   11   19     -0.34      0.00
    3   11   19      0.82      0.00
    4   11   19     -0.31      0.00
    5   11   19      0.17      0.00
    6   11   19     -1.18      0.00
  -13   12   19     -0.53      0.00
  -12   12   19     -0.30      0.00
  -11   12   19      1.15      0.00
  -10   12   19     -0.41      0.00
   -9   12   19     -0.69      0.00
   -8   12   19     -1.18      0.00
   -7   12   19      0.39      0.00
   -6   12   19     -0.09      0.00
   -5   12   19     -1.33      0.00
   -4   12   19     -1.90      0.00
   -3   12   19     -0.70      0.00
   -2   12   19      0.22      0.00
   -1   12   19      0.18      0.00
    0   12   19     -0.80      0.00
    1   12   19     -0.82      0.00
    2   12   19      0.90      0.00
    3   12   19      0.73      0.00
    4   12   19     -0.04      0.00
    5   12   19     -0.89      0.00
  -12   13   19     -0.58      0.00
  -11   13   19     -0.57      0.00
  -10   13   19     -0.31      0.00
   -9   13   19     -0.44      0.00
   -8   13   19      0.99      0.00
   -7   13   19     -0.06      0.00
   -6   13   19      1.28      0.00
   -5   13   19     -1.05      0.00
   -4   13   19      0.13      0.00
   -3   13   19      2.05      0.00
   -2   13   19      0.04      0.00
   -1   13   19     -0.33      0.00
    0   13   19     -0.85      0.00
    1   13   19      1.81      0.00
    2   13   19      0.84      0.00
    3   13   19     -0.20      0.00
    4   13   19     -0.49      0.00
  -11   14   19     -0.74      0.00
  -10   14   19      0.45      0.00
   -9   14   19      0.18      0.00
   -8   14   19      1.29      0.00
   -7   14   19     -0.07      0.00
   -6   14   19      0.69      0.00
   -5   14   19      1.30      0.00
   -4   14   19      1.79      0.00
   -3   14   19      0.72      0.00
   -2   14   19     -0.48      0.00
   -1   14   19     -0.35      0.00
    0   14   19      1.11      0.00
    1   14   19      0.99      0.00
    2   14   19     -0.23      0.00
   -9   15   19     -0.19      0.00
   -8   15   19     -0.87      0.00
   -7   15   19     -0.06      0.00
   -6   15   19     -0.39      0.00
   -5   15   19      0.50      0.00
   -4   15   19     -0.35      0.00
   -3   15   19     -1.36      0.00
   -2   15   19      0.17      0.00
   -1   15   19      0.01      0.00
    0   15   19      0.71      0.00
   -5   16   19     -0.77      0.00
   -4   16   19     -1.14      0.00
  -18    0   20     -0.76      0.00
  -16    0   20      0.29      0.00
  -14    0   20      0.20      0.00
  -12    0   20     -1.38      0.00
  -10    0   20      0.81      0.00
   -8    0   20     -0.47      0.00
   -6    0   20      0.57      0.00
   -4    0   20      0.86      0.00
   -2    0   20     -0.19      0.00
    0    0   20      3.83      0.00
    2    0   20     -1.19      0.00
    4    0   20     -0.95      0.00
    6    0   20      0.71      0.00
    8    0   20      0.80      0.00
  -18    1   20     -0.72      0.00
  -17    1   20     -0.68      0.00
  -16    1   20     -0.11      0.00
  -15    1   20     -0.02      0.00
  -14    1   20      0.14      0.00
  -13    1   20     -0.02      0.00
  -12    1   20      0.60      0.00
  -11    1   20      0.34      0.00
  -10    1   20      2.22      0.00
   -9    1   20      0.19      0.00
   -8    1   20     -1.13      0.00
   -7    1   20     -0.20      0.00
   -6    1   20      0.53      0.00
   -5    1   20     -0.04      0.00
   -4    1   20     -0.23      0.00
   -3    1   20     -0.27      0.00
   -2    1   20     -0.06      0.00
   -1    1   20      0.17      0.00
    0    1   20      0.71      0.00
    1    1   20     -0.20      0.00
    2    1   20     -4.99      0.00
    3    1   20      0.35      0.00
    4    1   20      2.41      0.00
    5    1   20      0.40      0.00
    6    1   20     -1.34      0.00
    7    1   20      0.58      0.00
    8    1   20     -0.89      0.00
    9    1   20      0.29      0.00
  -18    2   20      0.52      0.00
  -17    2   20     -0.64      0.00
  -16    2   20     -0.10      0.00
  -15    2   20      0.73      0.00
  -14    2   20     -0.31      0.00
  -13    2   20      0.16      0.00
  -12    2   20      1.26      0.00
  -11    2   20     -0.07      0.00
  -10    2   20     -0.50      0.00
   -9    2   20     -0.01      0.00
   -8    2   20      0.08      0.00
   -7    2   20     -0.01      0.00
   -6    2   20     -0.89      0.00
   -5    2   20     -1.37      0.00
   -4    2   20     -0.83      0.00
   -3    2   20     -0.33      0.00
   -2    2   20      0.17      0.00
   -1    2   20     -0.48      0.00
    0    2   20     -3.83      0.00
    1    2   20     -0.59      0.00
    2    2   20      1.30      0.00
    3    2   20      0.34      0.00
    4    2   20      0.75      0.00
    5    2   20     -0.50      0.00
    6    2   20     -0.34      0.00
    7    2   20      0.04      0.00
    8    2   20     -0.46      0.00
    9    2   20     -0.18      0.00
  -17    3   20      1.22      0.00
  -16    3   20     -0.05      0.00
  -15    3   20      0.14      0.00
  -14    3   20     -0.35      0.00
  -13    3   20     -0.28      0.00
  -12    3   20     -0.76      0.00
  -11    3   20     -0.37      0.00
  -10    3   20     -2.16      0.00
   -9    3   20     -0.54      0.00
   -8    3   20      1.52      0.00
   -7    3   20     -0.20      0.00
   -6    3   20     -1.20      0.00
   -5    3   20     -0.04      0.00
   -4    3   20     -0.48      0.00
   -3    3   20      0.64      0.00
   -2    3   20     -0.66      0.00
   -1    3   20     -0.37      0.00
    0    3   20     -0.71      0.00
    1    3   20      0.15      0.00
    2    3   20      3.25      0.00
    3    3   20     -0.63      0.00
    4    3   20     -2.50      0.00
    5    3   20     -0.92      0.00
    6    3   20      1.18      0.00
    7    3   20     -1.51      0.00
    8    3   20      0.24      0.00
  -17    4   20      0.82      0.00
  -16    4   20     -0.37      0.00
  -15    4   20     -1.25      0.00
  -14    4   20      0.69      0.00
  -13    4   20     -0.28      0.00
  -12    4   20     -0.70      0.00
  -11    4   20      0.12      0.00
  -10    4   20      0.25      0.00
   -9    4   20      0.24      0.00
   -8    4   20      0.24      0.00
   -7    4   20      0.53      0.00
   -6    4   20      1.13      0.00
   -5    4   20      1.32      0.00
   -4    4   20      0.94      0.00
   -3    4   20      0.72      0.00
   -2    4   20     -0.10      0.00
   -1    4   20      0.48      0.00
    0    4   20      3.43      0.00
    1    4   20      0.42      0.00
    2    4   20     -1.49      0.00
    3    4   20     -0.52      0.00
    4    4   20     -0.43      0.00
    5    4   20      0.18      0.00
    6    4   20     -0.55      0.00
    7    4   20     -0.16      0.00
    8    4   20     -0.07      0.00
  -17    5   20     -0.79      0.00
  -16    5   20     -0.19      0.00
  -15    5   20     -0.16      0.00
  -14    5   20      0.37      0.00
  -13    5   20      1.40      0.00
  -12    5   20      0.85      0.00
  -11    5   20     -0.12      0.00
  -10    5   20      2.15      0.00
   -9    5   20      0.42      0.00
   -8    5   20     -1.07      0.00
   -7    5   20      1.05      0.00
   -6    5   20      1.58      0.00
   -5    5   20      0.32      0.00
   -4    5   20      0.82      0.00
   -3    5   20     -0.33      0.00
   -2    5   20      1.25      0.00
   -1    5   20      0.13      0.00
    0    5   20      0.60      0.00
    1    5   20      0.45      0.00
    2    5   20     -1.40      0.00
    3    5   20     -0.08      0.00
    4    5   20      2.28      0.00
    5    5   20      0.69      0.00
    6    5   20     -1.40      0.00
    7    5   20      1.65      0.00
    8    5   20      0.39      0.00
  -17    6   20     -0.94      0.00
  -16    6   20      0.82      0.00
  -15    6   20      1.11      0.00
  -14    6   20     -0.71      0.00
  -13    6   20      0.36      0.00
  -12    6   20      0.30      0.00
  -11    6   20      0.08      0.00
  -10    6   20     -0.67      0.00
   -9    6   20     -0.12      0.00
   -8    6   20     -0.11      0.00
   -7    6   20     -0.79      0.00
   -6    6   20     -0.65      0.00
   -5    6   20     -0.64      0.00
   -4    6   20     -0.93      0.00
   -3    6   20     -0.87      0.00
   -2    6   20      0.37      0.00
   -1    6   20      0.02      0.00
    0    6   20     -2.41      0.00
    1    6   20      0.42      0.00
    2    6   20      1.27      0.00
    3    6   20      0.49      0.00
    4    6   20     -0.09      0.00
    5    6   20      0.35      0.00
    6    6   20      1.15      0.00
    7    6   20      0.17      0.00
    8    6   20      0.32      0.00
  -16    7   20      0.22      0.00
  -15    7   20      0.13      0.00
  -14    7   20     -0.42      0.00
  -13    7   20     -2.36      0.00
  -12    7   20     -0.40      0.00
  -11    7   20      0.15      0.00
  -10    7   20     -1.88      0.00
   -9    7   20      0.01      0.00
   -8    7   20      0.11      0.00
   -7    7   20     -0.70      0.00
   -6    7   20     -1.62      0.00
   -5    7   20     -0.35      0.00
   -4    7   20     -0.54      0.00
   -3    7   20     -0.09      0.00
   -2    7   20     -0.80      0.00
   -1    7   20      0.51      0.00
    0    7   20     -0.03      0.00
    1    7   20     -0.81      0.00
    2    7   20      0.75      0.00
    3    7   20      0.91      0.00
    4    7   20     -1.89      0.00
    5    7   20     -0.07      0.00
    6    7   20      1.57      0.00
    7    7   20     -1.05      0.00
  -16    8   20     -0.84      0.00
  -15    8   20     -0.95      0.00
  -14    8   20      0.14      0.00
  -13    8   20     -0.46      0.00
  -12    8   20     -0.70      0.00
  -11    8   20      0.00      0.00
  -10    8   20      0.88      0.00
   -9    8   20     -0.10      0.00
   -8    8   20      0.11      0.00
   -7    8   20      0.05      0.00
   -6    8   20      0.17      0.00
   -5    8   20      0.08      0.00
   -4    8   20      0.79      0.00
   -3    8   20      0.72      0.00
   -2    8   20     -0.99      0.00
   -1    8   20     -0.11      0.00
    0    8   20      1.57      0.00
    1    8   20     -0.55      0.00
    2    8   20     -0.79      0.00
    3    8   20     -0.34      0.00
    4    8   20      0.64      0.00
    5    8   20     -0.46      0.00
    6    8   20     -1.17      0.00
    7    8   20     -0.36      0.00
  -15    9   20     -0.34      0.00
  -14    9   20      0.44      0.00
  -13    9   20      2.04      0.00
  -12    9   20     -0.31      0.00
  -11    9   20      0.06      0.00
  -10    9   20      1.70      0.00
   -9    9   20     -0.30      0.00
   -8    9   20      0.12      0.00
   -7    9   20     -0.68      0.00
   -6    9   20      1.36      0.00
   -5    9   20      0.24      0.00
   -4    9   20     -0.18      0.00
   -3    9   20     -0.24      0.00
   -2    9   20     -0.30      0.00
   -1    9   20     -0.54      0.00
    0    9   20     -0.09      0.00
    1    9   20      0.64      0.00
    2    9   20     -0.57      0.00
    3    9   20     -0.62      0.00
    4    9   20      1.58      0.00
    5    9   20     -0.42      0.00
    6    9   20     -1.30      0.00
  -14   10   20      0.23      0.00
  -13   10   20      0.62      0.00
  -12   10   20      1.13      0.00
  -11   10   20     -0.42      0.00
  -10   10   20     -0.51      0.00
   -9   10   20     -0.20      0.00
   -8   10   20     -0.26      0.00
   -7   10   20      0.53      0.00
   -6   10   20     -0.15      0.00
   -5   10   20      0.07      0.00
   -4   10   20     -1.17      0.00
   -3   10   20     -0.69      0.00
   -2   10   20      1.28      0.00
   -1   10   20     -0.22      0.00
    0   10   20     -1.31      0.00
    1   10   20      0.07      0.00
    2   10   20      0.86      0.00
    3   10   20      0.51      0.00
    4   10   20     -0.61      0.00
    5   10   20      0.05      0.00
  -13   11   20     -1.09      0.00
  -12   11   20      0.73      0.00
  -11   11   20     -0.15      0.00
  -10   11   20     -1.69      0.00
   -9   11   20      0.35      0.00
   -8   11   20      0.15      0.00
   -7   11   20      1.73      0.00
   -6   11   20     -0.91      0.00
   -5   11   20     -0.34      0.00
   -4   11   20      0.83      0.00
   -3   11   20      0.55      0.00
   -2   11   20      1.01      0.00
   -1   11   20     -0.79      0.00
    0   11   20     -0.22      0.00
    1   11   20      0.03      0.00
    2   11   20      0.52      0.00
    3   11   20     -0.08      0.00
    4   11   20     -1.07      0.00
  -12   12   20     -0.99      0.00
  -11   12   20      0.80      0.00
  -10   12   20      0.18      0.00
   -9   12   20      0.64      0.00
   -8   12   20      0.31      0.00
   -7   12   20     -0.08      0.00
   -6   12   20      0.31      0.00
   -5   12   20      0.33      0.00
   -4   12   20      1.68      0.00
   -3   12   20      0.78      0.00
   -2   12   20     -1.47      0.00
   -1   12   20      0.34      0.00
    0   12   20      1.10      0.00
    1   12   20      0.16      0.00
    2   12   20     -0.94      0.00
    3   12   20     -0.67      0.00
  -11   13   20      0.31      0.00
  -10   13   20      1.24      0.00
   -9   13   20     -0.25      0.00
   -8   13   20     -0.15      0.00
   -7   13   20     -1.67      0.00
   -6   13   20      0.38      0.00
   -5   13   20      0.35      0.00
   -4   13   20     -0.82      0.00
   -3   13   20     -0.36      0.00
   -2   13   20     -1.09      0.00
   -1   13   20      1.80      0.00
    0   13   20     -0.21      0.00
    1   13   20     -0.56      0.00
    2   13   20     -0.90      0.00
   -9   14   20     -0.75      0.00
   -8   14   20     -0.12      0.00
   -7   14   20     -0.64      0.00
   -6   14   20     -0.36      0.00
   -5   14   20     -0.91      0.00
   -4   14   20     -1.57      0.00
   -3   14   20     -0.50      0.00
   -2   14   20      1.41      0.00
   -1   14   20     -0.46      0.00
    0   14   20     -0.94      0.00
   -6   15   20      0.00      0.00
   -5   15   20     -0.06      0.00
   -4   15   20      0.50      0.00
   -3   15   20      0.11      0.00
  -17    0   21      0.48      0.00
  -15    0   21     -0.96      0.00
  -13    0   21     -0.96      0.00
  -11    0   21      0.61      0.00
   -9    0   21     -1.62      0.00
   -7    0   21      0.27      0.00
   -5    0   21     -0.12      0.00
   -3    0   21     -1.88      0.00
   -1    0   21     -1.61      0.00
    1    0   21     -1.90      0.00
    3    0   21      3.08      0.00
    5    0   21     -1.79      0.00
    7    0   21     -0.03      0.00
  -17    1   21     -0.08      0.00
  -16    1   21      0.25      0.00
  -15    1   21      0.09      0.00
  -14    1   21     -0.16      0.00
  -13    1   21     -0.73      0.00
  -12    1   21     -0.21      0.00
  -11    1   21     -1.82      0.00
  -10    1   21     -0.31      0.00
   -9    1   21      0.12      0.00
   -8    1   21      0.16      0.00
   -7    1   21     -0.13      0.00
   -6    1   21      0.13      0.00
   -5    1   21      0.58      0.00
   -4    1   21      0.47      0.00
   -3    1   21      0.56      0.00
   -2    1   21     -0.37      0.00
   -1    1   21     -0.89      0.00
    0    1   21      0.16      0.00
    1    1   21      4.69      0.00
    2    1   21      0.13      0.00
    3    1   21     -1.18      0.00
    4    1   21     -0.72      0.00
    5    1   21      0.24      0.00
    6    1   21     -0.08      0.00
    7    1   21      1.89      0.00
    8    1   21     -0.23      0.00
  -17    2   21     -0.54      0.00
  -16    2   21     -0.79      0.00
  -15    2   21      0.82      0.00
  -14    2   21     -0.01      0.00
  -13    2   21      1.01      0.00
  -12    2   21     -0.22      0.00
  -11    2   21     -0.76      0.00
  -10    2   21      0.13      0.00
   -9    2   21      1.74      0.00
   -8    2   21      0.25      0.00
   -7    2   21      0.20      0.00
   -6    2   21      0.77      0.00
   -5    2   21      0.35      0.00
   -4    2   21      0.84      0.00
   -3    2   21      1.59      0.00
   -2    2   21      0.31      0.00
   -1    2   21      1.50      0.00
    0    2   21      0.51      0.00
    1    2   21      1.73      0.00
    2    2   21     -0.41      0.00
    3    2   21     -2.58      0.00
    4    2   21      0.73      0.00
    5    2   21      1.41      0.00
    6    2   21      0.57      0.00
    7    2   21     -0.30      0.00
  -17    3   21     -0.10      0.00
  -16    3   21     -0.56      0.00
  -15    3   21      0.24      0.00
  -14    3   21      0.58      0.00
  -13    3   21      0.62      0.00
  -12    3   21      0.34      0.00
  -11    3   21      1.94      0.00
  -10    3   21      0.64      0.00
   -9    3   21     -0.07      0.00
   -8    3   21      0.35      0.00
   -7    3   21      0.16      0.00
   -6    3   21     -0.02      0.00
   -5    3   21      0.51      0.00
   -4    3   21     -0.95      0.00
   -3    3   21      0.31      0.00
   -2    3   21      0.57      0.00
   -1    3   21      0.92      0.00
    0    3   21     -0.07      0.00
    1    3   21     -3.44      0.00
    2    3   21     -0.22      0.00
    3    3   21      1.88      0.00
    4    3   21      1.65      0.00
    5    3   21     -0.05      0.00
    6    3   21      0.37      0.00
    7    3   21     -0.95      0.00
  -16    4   21      1.03      0.00
  -15    4   21     -0.65      0.00
  -14    4   21      0.30      0.00
  -13    4   21     -1.36      0.00
  -12    4   21      0.04      0.00
  -11    4   21      0.63      0.00
  -10    4   21      0.10      0.00
   -9    4   21     -1.66      0.00
   -8    4   21     -0.95      0.00
   -7    4   21     -0.61      0.00
   -6    4   21     -0.77      0.00
   -5    4   21     -0.71      0.00
   -4    4   21     -0.68      0.00
   -3    4   21     -1.24      0.00
   -2    4   21     -0.77      0.00
   -1    4   21     -1.09      0.00
    0    4   21     -0.40      0.00
    1    4   21     -1.30      0.00
    2    4   21      0.37      0.00
    3    4   21      1.71      0.00
    4    4   21     -0.30      0.00
    5    4   21     -0.48      0.00
    6    4   21     -0.63      0.00
    7    4   21      0.89      0.00
  -16    5   21      0.49      0.00
  -15    5   21     -0.36      0.00
  -14    5   21     -1.51      0.00
  -13    5   21     -0.49      0.00
  -12    5   21     -0.61      0.00
  -11    5   21     -2.01      0.00
  -10    5   21     -0.46      0.00
   -9    5   21     -0.59      0.00
   -8    5   21     -1.18      0.00
   -7    5   21     -0.54      0.00
   -6    5   21     -0.32      0.00
   -5    5   21     -0.91      0.00
   -4    5   21      0.33      0.00
   -3    5   21     -0.93      0.00
   -2    5   21     -0.13      0.00
   -1    5   21     -1.08      0.00
    0    5   21     -0.41      0.00
    1    5   21      1.88      0.00
    2    5   21      0.28      0.00
    3    5   21     -2.30      0.00
    4    5   21     -1.18      0.00
    5    5   21      0.35      0.00
    6    5   21     -0.51      0.00
    7    5   21      0.09      0.00
  -16    6   21     -0.37      0.00
  -15    6   21      0.32      0.00
  -14    6   21     -0.47      0.00
  -13    6   21      1.32      0.00
  -12    6   21      0.11      0.00
  -11    6   21     -0.17      0.00
  -10    6   21     -0.85      0.00
   -9    6   21      1.43      0.00
   -8    6   21      0.85      0.00
   -7    6   21      0.34      0.00
   -6    6   21      0.44      0.00
   -5    6   21      0.72      0.00
   -4    6   21      0.26      0.00
   -3    6   21      0.89      0.00
   -2    6   21      0.97      0.00
   -1    6   21      0.29      0.00
    0    6   21     -0.37      0.00
    1    6   21      0.95      0.00
    2    6   21     -0.08      0.00
    3    6   21     -0.87      0.00
    4    6   21     -0.68      0.00
    5    6   21     -0.08      0.00
    6    6   21      0.57      0.00
  -15    7   21      0.66      0.00
  -14    7   21      2.41      0.00
  -13    7   21      0.20      0.00
  -12    7   21      1.09      0.00
  -11    7   21      1.46      0.00
  -10    7   21      0.27      0.00
   -9    7   21      1.08      0.00
   -8    7   21      0.89      0.00
   -7    7   21      1.01      0.00
   -6    7   21      0.15      0.00
   -5    7   21      0.69      0.00
   -4    7   21      0.54      0.00
   -3    7   21      0.56      0.00
   -2    7   21     -0.35      0.00
   -1    7   21      0.87      0.00
    0    7   21      0.47      0.00
    1    7   21     -1.25      0.00
    2    7   21     -0.32      0.00
    3    7   21      1.94      0.00
    4    7   21     -0.11      0.00
    5    7   21     -0.68      0.00
    6    7   21      0.44      0.00
  -15    8   21      0.30      0.00
  -14    8   21      0.60      0.00
  -13    8   21     -0.36      0.00
  -12    8   21     -0.24      0.00
  -11    8   21      0.35      0.00
  -10    8   21      0.99      0.00
   -9    8   21     -1.30      0.00
   -8    8   21      0.29      0.00
   -7    8   21     -0.15      0.00
   -6    8   21      0.27      0.00
   -5    8   21     -0.66      0.00
   -4    8   21     -0.26      0.00
   -3    8   21     -0.18      0.00
   -2    8   21     -0.81      0.00
   -1    8   21      0.40      0.00
    0    8   21      0.32      0.00
    1    8   21     -0.87      0.00
    2    8   21     -0.30      0.00
    3    8   21      0.13      0.00
    4    8   21      1.04      0.00
    5    8   21      0.00      0.00
  -14    9   21     -2.10      0.00
  -13    9   21      0.19      0.00
  -12    9   21     -0.96      0.00
  -11    9   21     -0.84      0.00
  -10    9   21     -0.12      0.00
   -9    9   21     -0.80      0.00
   -8    9   21      0.18      0.00
   -7    9   21     -0.66      0.00
   -6    9   21      0.07      0.00
   -5    9   21     -0.50      0.00
   -4    9   21     -0.61      0.00
   -3    9   21      0.64      0.00
   -2    9   21      0.42      0.00
   -1    9   21     -0.74      0.00
    0    9   21     -0.19      0.00
    1    9   21      1.02      0.00
    2    9   21      0.01      0.00
    3    9   21     -1.45      0.00
    4    9   21      0.68      0.00
    5    9   21      0.51      0.00
  -13   10   21     -0.49      0.00
  -12   10   21      0.52      0.00
  -11   10   21     -0.79      0.00
  -10   10   21     -0.22      0.00
   -9   10   21      1.08      0.00
   -8   10   21     -0.69      0.00
   -7   10   21      0.12      0.00
   -6   10   21     -1.04      0.00
   -5   10   21      0.91      0.00
   -4   10   21      0.70      0.00
   -3   10   21     -0.31      0.00
   -2   10   21      0.52      0.00
   -1   10   21     -0.42      0.00
    0   10   21      0.57      0.00
    1   10   21      0.64      0.00
    2   10   21      0.10      0.00
    3   10   21     -0.04      0.00
    4   10   21     -0.68      0.00
  -12   11   21      0.50      0.00
  -11   11   21      0.73      0.00
  -10   11   21     -0.12      0.00
   -9   11   21      0.48      0.00
   -8   11   21     -0.98      0.00
   -7   11   21     -0.15      0.00
   -6   11   21     -0.02      0.00
   -5   11   21      0.30      0.00
   -4   11   21      0.36      0.00
   -3   11   21     -1.71      0.00
   -2   11   21      0.44      0.00
   -1   11   21      1.01      0.00
    0   11   21      0.24      0.00
    1   11   21     -0.82      0.00
    2   11   21      0.17      0.00
    3   11   21      1.01      0.00
  -11   12   21      0.62      0.00
  -10   12   21     -0.47      0.00
   -9   12   21     -0.71      0.00
   -8   12   21     -0.05      0.00
   -7   12   21     -0.06      0.00
   -6   12   21      0.96      0.00
   -5   12   21     -1.04      0.00
   -4   12   21     -1.22      0.00
   -3   12   21      0.44      0.00
   -2   12   21     -0.28      0.00
   -1   12   21      0.42      0.00
    0   12   21     -0.99      0.00
    1   12   21     -0.23      0.00
   -9   13   21     -0.46      0.00
   -8   13   21      1.13      0.00
   -7   13   21      0.51      0.00
   -6   13   21      0.07      0.00
   -5   13   21     -0.13      0.00
   -4   13   21     -0.28      0.00
   -3   13   21      1.71      0.00
   -2   13   21     -1.23      0.00
   -1   13   21     -0.84      0.00
    0   13   21     -0.36      0.00
   -6   14   21     -0.02      0.00
   -5   14   21      0.76      0.00
   -4   14   21      1.16      0.00
  -16    0   22      1.06      0.00
  -14    0   22      1.57      0.00
  -12    0   22      0.83      0.00
  -10    0   22      0.95      0.00
   -8    0   22      0.11      0.00
   -6    0   22     -0.09      0.00
   -4    0   22      0.86      0.00
   -2    0   22      1.16      0.00
    0    0   22      2.54      0.00
    2    0   22     -3.32      0.00
    4    0   22      1.44      0.00
    6    0   22     -0.12      0.00
  -16    1   22     -0.10      0.00
  -15    1   22      0.35      0.00
  -14    1   22      0.35      0.00
  -13    1   22      0.00      0.00
  -12    1   22     -0.21      0.00
  -11    1   22      0.29      0.00
  -10    1   22      1.41      0.00
   -9    1   22     -0.02      0.00
   -8    1   22     -0.75      0.00
   -7    1   22     -0.39      0.00
   -6    1   22     -1.37      0.00
   -5    1   22     -0.43      0.00
   -4    1   22      0.26      0.00
   -3    1   22      0.21      0.00
   -2    1   22     -1.28      0.00
   -1    1   22     -0.01      0.00
    0    1   22     -1.94      0.00
    1    1   22     -0.33      0.00
    2    1   22     -0.67      0.00
    3    1   22      0.43      0.00
    4    1   22      1.26      0.00
    5    1   22     -0.21      0.00
    6    1   22     -1.76      0.00
  -16    2   22     -0.77      0.00
  -15    2   22     -0.08      0.00
  -14    2   22     -1.53      0.00
  -13    2   22      0.25      0.00
  -12    2   22     -0.70      0.00
  -11    2   22     -0.19      0.00
  -10    2   22     -1.02      0.00
   -9    2   22     -0.47      0.00
   -8    2   22     -0.63      0.00
   -7    2   22     -0.26      0.00
   -6    2   22     -0.25      0.00
   -5    2   22     -1.11      0.00
   -4    2   22     -0.79      0.00
   -3    2   22     -0.23      0.00
   -2    2   22     -0.75      0.00
   -1    2   22     -0.84      0.00
    0    2   22     -2.18      0.00
    1    2   22      0.51      0.00
    2    2   22      2.67      0.00
    3    2   22     -0.13      0.00
    4    2   22     -1.35      0.00
    5    2   22     -1.52      0.00
    6    2   22      0.43      0.00
  -16    3   22     -0.17      0.00
  -15    3   22     -0.75      0.00
  -14    3   22     -0.33      0.00
  -13    3   22     -0.11      0.00
  -12    3   22      0.20      0.00
  -11    3   22     -0.53      0.00
  -10    3   22     -1.67      0.00
   -9    3   22     -0.62      0.00
   -8    3   22      0.86      0.00
   -7    3   22      0.48      0.00
   -6    3   22      0.57      0.00
   -5    3   22      0.69      0.00
   -4    3   22     -1.34      0.00
   -3    3   22     -0.25      0.00
   -2    3   22      0.90      0.00
   -1    3   22      0.20      0.00
    0    3   22      1.32      0.00
    1    3   22      0.45      0.00
    2    3   22      0.04      0.00
    3    3   22     -1.01      0.00
    4    3   22     -1.61      0.00
    5    3   22      0.20      0.00
    6    3   22      0.92      0.00
  -16    4   22      0.13      0.00
  -15    4   22     -0.21      0.00
  -14    4   22      1.74      0.00
  -13    4   22      0.03      0.00
  -12    4   22      0.80      0.00
  -11    4   22      0.00      0.00
  -10    4   22      1.10      0.00
   -9    4   22      1.03      0.00
   -8    4   22      1.14      0.00
   -7    4   22      0.68      0.00
   -6    4   22      0.59      0.00
   -5    4   22      0.47      0.00
   -4    4   22      0.83      0.00
   -3    4   22      0.69      0.00
   -2    4   22      0.15      0.00
   -1    4   22      0.99      0.00
    0    4   22      1.42      0.00
    1    4   22     -0.27      0.00
    2    4   22     -1.53      0.00
    3    4   22     -0.39      0.00
    4    4   22      0.84      0.00
    5    4   22      1.58      0.00
    6    4   22     -1.06      0.00
  -15    5   22      0.97      0.00
  -14    5   22      0.25      0.00
  -13    5   22      1.00      0.00
  -12    5   22     -0.01      0.00
  -11    5   22      0.52      0.00
  -10    5   22      2.23      0.00
   -9    5   22      1.48      0.00
   -8    5   22     -0.09      0.00
   -7    5   22     -0.07      0.00
   -6    5   22     -0.22      0.00
   -5    5   22     -0.10      0.00
   -4    5   22      1.71      0.00
   -3    5   22      0.18      0.00
   -2    5   22     -0.27      0.00
   -1    5   22     -0.59      0.00
    0    5   22     -0.28      0.00
    1    5   22      0.06      0.00
    2    5   22      0.46      0.00
    3    5   22      0.50      0.00
    4    5   22      1.45      0.00
    5    5   22      0.05      0.00
  -15    6   22      0.20      0.00
  -14    6   22     -1.71      0.00
  -13    6   22     -0.49      0.00
  -12    6   22     -0.77      0.00
  -11    6   22      0.74      0.00
  -10    6   22     -1.14      0.00
   -9    6   22     -0.54      0.00
   -8    6   22     -1.06      0.00
   -7    6   22     -0.69      0.00
   -6    6   22     -0.45      0.00
   -5    6   22      0.39      0.00
   -4    6   22     -0.82      0.00
   -3    6   22     -1.24      0.00
   -2    6   22      0.37      0.00
   -1    6   22     -0.29      0.00
    0    6   22     -0.80      0.00
    1    6   22     -0.16      0.00
    2    6   22      0.63      0.00
    3    6   22      1.08      0.00
    4    6   22     -0.44      0.00
    5    6   22     -0.81      0.00
  -14    7   22     -0.39      0.00
  -13    7   22     -2.08      0.00
  -12    7   22      0.15      0.00
  -11    7   22     -0.72      0.00
  -10    7   22     -2.16      0.00
   -9    7   22     -1.44      0.00
   -8    7   22     -0.75      0.00
   -7    7   22      0.08      0.00
   -6    7   22      0.14      0.00
   -5    7   22     -0.35      0.00
   -4    7   22     -1.11      0.00
   -3    7   22     -0.28      0.00
   -2    7   22      0.00      0.00
   -1    7   22      1.00      0.00
    0    7   22     -0.11      0.00
    1    7   22     -0.33      0.00
    2    7   22     -0.21      0.00
    3    7   22      0.68      0.00
    4    7   22     -0.86      0.00
  -14    8   22      0.79      0.00
  -13    8   22      0.66      0.00
  -12    8   22     -0.20      0.00
  -11    8   22     -0.91      0.00
  -10    8   22      0.86      0.00
   -9    8   22     -0.49      0.00
   -8    8   22      0.98      0.00
   -7    8   22     -0.29      0.00
   -6    8   22      0.46      0.00
   -5    8   22     -0.39      0.00
   -4    8   22      0.64      0.00
   -3    8   22      1.33      0.00
   -2    8   22     -0.99      0.00
   -1    8   22      0.12      0.00
    0    8   22      0.76      0.00
    1    8   22      0.59      0.00
    2    8   22     -0.04      0.00
    3    8   22     -1.03      0.00
    4    8   22      0.59      0.00
  -13    9   22      1.88      0.00
  -12    9   22     -0.44      0.00
  -11    9   22      0.53      0.00
  -10    9   22      1.48      0.00
   -9    9   22      0.65      0.00
   -8    9   22      0.33      0.00
   -7    9   22     -0.17      0.00
   -6    9   22     -0.03      0.00
   -5    9   22      0.54      0.00
   -4    9   22      0.15      0.00
   -3    9   22      0.07      0.00
   -2    9   22     -0.05      0.00
   -1    9   22     -1.00      0.00
    0    9   22      0.09      0.00
    1    9   22      0.21      0.00
    2    9   22     -0.07      0.00
    3    9   22     -0.93      0.00
  -12   10   22      1.05      0.00
  -11   10   22      0.18      0.00
  -10   10   22     -0.45      0.00
   -9   10   22      0.52      0.00
   -8   10   22     -0.72      0.00
   -7   10   22      1.18      0.00
   -6   10   22     -0.45      0.00
   -5   10   22     -0.06      0.00
   -4   10   22     -0.69      0.00
   -3   10   22     -1.02      0.00
   -2   10   22      1.26      0.00
   -1   10   22     -0.79      0.00
    0   10   22     -1.13      0.00
    1   10   22     -0.58      0.00
    2   10   22      0.06      0.00
  -11   11   22      0.08      0.00
  -10   11   22     -1.00      0.00
   -9   11   22      0.15      0.00
   -8   11   22      0.38      0.00
   -7   11   22      0.25      0.00
   -6   11   22      0.07      0.00
   -5   11   22     -0.88      0.00
   -4   11   22      0.70      0.00
   -3   11   22      0.02      0.00
   -2   11   22     -0.09      0.00
   -1   11   22      0.05      0.00
    0   11   22     -0.17      0.00
    1   11   22      0.03      0.00
   -9   12   22      0.10      0.00
   -8   12   22      0.33      0.00
   -7   12   22     -1.01      0.00
   -6   12   22      0.04      0.00
   -5   12   22      0.56      0.00
   -4   12   22      0.83      0.00
   -3   12   22      0.80      0.00
   -2   12   22     -1.26      0.00
   -1   12   22      1.08      0.00
  -15    0   23     -1.04      0.00
  -13    0   23     -2.47      0.00
  -11    0   23      0.53      0.00
   -9    0   23     -0.67      0.00
   -7    0   23      0.06      0.00
   -5    0   23      1.73      0.00
   -3    0   23     -1.47      0.00
   -1    0   23     -0.89      0.00
    1    0   23      1.72      0.00
    3    0   23     -0.51      0.00
    5    0   23     -0.11      0.00
  -15    1   23      0.72      0.00
  -14    1   23      0.16      0.00
  -13    1   23      0.85      0.00
  -12    1   23     -0.32      0.00
  -11    1   23     -0.27      0.00
  -10    1   23      0.04      0.00
   -9    1   23      0.33      0.00
   -8    1   23      0.51      0.00
   -7    1   23      1.58      0.00
   -6    1   23      0.28      0.00
   -5    1   23      0.40      0.00
   -4    1   23      0.33      0.00
   -3    1   23      1.30      0.00
   -2    1   23     -0.24      0.00
   -1    1   23      0.59      0.00
    0    1   23      0.46      0.00
    1    1   23      0.89      0.00
    2    1   23     -0.04      0.00
    3    1   23     -2.12      0.00
    4    1   23      0.13      0.00
    5    1   23      0.74      0.00
  -15    2   23      0.89      0.00
  -14    2   23      0.20      0.00
  -13    2   23      2.31      0.00
  -12    2   23     -0.07      0.00
  -11    2   23     -0.50      0.00
  -10    2   23      0.45      0.00
   -9    2   23      1.18      0.00
   -8    2   23      0.40      0.00
   -7    2   23      0.35      0.00
   -6    2   23      0.53      0.00
   -5    2   23     -1.45      0.00
   -4    2   23      0.52      0.00
   -3    2   23      1.12      0.00
   -2    2   23      1.16      0.00
   -1    2   23      0.24      0.00
    0    2   23     -0.76      0.00
    1    2   23     -1.21      0.00
    2    2   23     -0.42      0.00
    3    2   23      0.65      0.00
    4    2   23      1.45      0.00
    5    2   23      0.02      0.00
  -15    3   23     -0.41      0.00
  -14    3   23     -0.27      0.00
  -13    3   23     -1.12      0.00
  -12    3   23      0.59      0.00
  -11    3   23      0.57      0.00
  -10    3   23      0.33      0.00
   -9    3   23     -0.44      0.00
   -8    3   23     -0.69      0.00
   -7    3   23     -1.34      0.00
   -6    3   23     -0.30      0.00
   -5    3   23      0.79      0.00
   -4    3   23     -0.64      0.00
   -3    3   23     -0.72      0.00
   -2    3   23     -0.09      0.00
   -1    3   23     -0.21      0.00
    0    3   23     -0.82      0.00
    1    3   23     -0.70      0.00
    2    3   23      0.16      0.00
    3    3   23      2.18      0.00
    4    3   23      0.11      0.00
  -15    4   23     -0.86      0.00
  -14    4   23     -0.38      0.00
  -13    4   23     -2.30      0.00
  -12    4   23     -0.11      0.00
  -11    4   23      0.20      0.00
  -10    4   23     -0.73      0.00
   -9    4   23     -1.81      0.00
   -8    4   23     -1.35      0.00
   -7    4   23     -0.70      0.00
   -6    4   23      0.30      0.00
   -5    4   23      0.97      0.00
   -4    4   23     -0.53      0.00
   -3    4   23     -0.80      0.00
   -2    4   23     -1.65      0.00
   -1    4   23      0.81      0.00
    0    4   23      0.85      0.00
    1    4   23      0.31      0.00
    2    4   23      0.57      0.00
    3    4   23     -0.50      0.00
    4    4   23     -1.16      0.00
  -14    5   23     -0.55      0.00
  -13    5   23      1.15      0.00
  -12    5   23     -0.79      0.00
  -11    5   23     -1.19      0.00
  -10    5   23     -1.12      0.00
   -9    5   23     -0.44      0.00
   -8    5   23      0.19      0.00
   -7    5   23      0.94      0.00
   -6    5   23     -0.02      0.00
   -5    5   23     -1.01      0.00
   -4    5   23      0.09      0.00
   -3    5   23      0.19      0.00
   -2    5   23      1.22      0.00
   -1    5   23     -0.59      0.00
    0    5   23      0.34      0.00
    1    5   23      0.41      0.00
    2    5   23      0.19      0.00
    3    5   23     -1.81      0.00
    4    5   23     -0.50      0.00
  -14    6   23      0.67      0.00
  -13    6   23      1.97      0.00
  -12    6   23      0.08      0.00
  -11    6   23      0.08      0.00
  -10    6   23      0.11      0.00
   -9    6   23      1.99      0.00
   -8    6   23      1.40      0.00
   -7    6   23      0.61      0.00
   -6    6   23     -1.07      0.00
   -5    6   23     -0.70      0.00
   -4    6   23      0.64      0.00
   -3    6   23      0.67      0.00
   -2    6   23      1.31      0.00
   -1    6   23     -1.26      0.00
    0    6   23     -0.78      0.00
    1    6   23      0.29      0.00
    2    6   23     -0.55      0.00
    3    6   23      0.16      0.00
  -13    7   23     -0.90      0.00
  -12    7   23      1.24      0.00
  -11    7   23      1.30      0.00
  -10    7   23      1.53      0.00
   -9    7   23      1.21      0.00
   -8    7   23      0.05      0.00
   -7    7   23     -0.56      0.00
   -6    7   23     -0.17      0.00
   -5    7   23      0.44      0.00
   -4    7   23      0.53      0.00
   -3    7   23     -0.08      0.00
   -2    7   23     -1.89      0.00
   -1    7   23      0.87      0.00
    0    7   23     -0.11      0.00
    1    7   23     -0.67      0.00
    2    7   23     -0.90      0.00
    3    7   23      0.97      0.00
  -12    8   23     -0.05      0.00
  -11    8   23      0.30      0.00
  -10    8   23      0.49      0.00
   -9    8   23     -1.85      0.00
   -8    8   23     -0.13      0.00
   -7    8   23     -0.67      0.00
   -6    8   23      0.98      0.00
   -5    8   23      0.16      0.00
   -4    8   23     -0.83      0.00
   -3    8   23     -0.14      0.00
   -2    8   23     -0.92      0.00
   -1    8   23      0.91      0.00
    0    8   23      0.35      0.00
    1    8   23     -0.64      0.00
    2    8   23      0.19      0.00
  -11    9   23     -0.92      0.00
  -10    9   23     -1.13      0.00
   -9    9   23     -0.78      0.00
   -8    9   23     -0.08      0.00
   -7    9   23      0.60      0.00
   -6    9   23      0.04      0.00
   -5    9   23     -0.08      0.00
   -4    9   23     -0.34      0.00
   -3    9   23      0.39      0.00
   -2    9   23      1.74      0.00
   -1    9   23     -0.72      0.00
    0    9   23      0.45      0.00
    1    9   23      0.95      0.00
  -10   10   23     -0.22      0.00
   -9   10   23      1.23      0.00
   -8   10   23     -0.67      0.00
   -7   10   23      0.41      0.00
   -6   10   23     -0.55      0.00
   -5   10   23      0.59      0.00
   -4   10   23      0.86      0.00
   -3   10   23     -0.31      0.00
   -2   10   23      0.90      0.00
   -1   10   23      0.09      0.00
    0   10   23      0.27      0.00
   -8   11   23     -0.18      0.00
   -7   11   23     -0.72      0.00
   -6   11   23      0.65      0.00
   -5   11   23     -0.07      0.00
   -4   11   23     -0.03      0.00
   -3   11   23     -0.73      0.00
   -2   11   23     -0.68      0.00
  -14    0   24      1.62      0.00
  -12    0   24      0.07      0.00
  -10    0   24     -0.12      0.00
   -8    0   24     -0.19      0.00
   -6    0   24     -2.52      0.00
   -4    0   24     -0.11      0.00
   -2    0   24     -0.07      0.00
    0    0   24     -0.26      0.00
    2    0   24      0.17      0.00
  -14    1   24     -0.54      0.00
  -13    1   24      0.14      0.00
  -12    1   24     -2.02      0.00
  -11    1   24     -0.01      0.00
  -10    1   24      0.84      0.00
   -9    1   24     -0.39      0.00
   -8    1   24     -1.30      0.00
   -7    1   24     -0.40      0.00
   -6    1   24     -1.70      0.00
   -5    1   24     -0.51      0.00
   -4    1   24      0.60      0.00
   -3    1   24      0.12      0.00
   -2    1   24     -0.80      0.00
   -1    1   24     -0.51      0.00
    0    1   24      0.19      0.00
    1    1   24      0.08      0.00
    2    1   24      2.12      0.00
    3    1   24     -0.13      0.00
  -14    2   24     -1.50      0.00
  -13    2   24      0.49      0.00
  -12    2   24      0.09      0.00
  -11    2   24     -0.57      0.00
  -10    2   24     -0.31      0.00
   -9    2   24     -0.34      0.00
   -8    2   24     -0.24      0.00
   -7    2   24      0.10      0.00
   -6    2   24      2.03      0.00
   -5    2   24     -0.85      0.00
   -4    2   24      0.05      0.00
   -3    2   24     -0.68      0.00
   -2    2   24      0.87      0.00
   -1    2   24      0.28      0.00
    0    2   24      0.15      0.00
    1    2   24      1.08      0.00
    2    2   24     -0.38      0.00
    3    2   24     -0.63      0.00
  -14    3   24      0.86      0.00
  -13    3   24     -0.19      0.00
  -12    3   24      1.88      0.00
  -11    3   24     -0.07      0.00
  -10    3   24     -0.74      0.00
   -9    3   24      0.47      0.00
   -8    3   24      1.58      0.00
   -7    3   24      0.64      0.00
   -6    3   24      0.73      0.00
   -5    3   24      0.65      0.00
   -4    3   24     -1.15      0.00
   -3    3   24      0.41      0.00
   -2    3   24      0.53      0.00
   -1    3   24      1.31      0.00
    0    3   24     -0.27      0.00
    1    3   24     -0.36      0.00
    2    3   24     -1.47      0.00
    3    3   24     -0.10      0.00
  -13    4   24     -0.16      0.00
  -12    4   24     -0.05      0.00
  -11    4   24      0.79      0.00
  -10    4   24      1.10      0.00
   -9    4   24      1.37      0.00
   -8    4   24      0.73      0.00
   -7    4   24     -0.61      0.00
   -6    4   24     -1.49      0.00
   -5    4   24      0.31      0.00
   -4    4   24      0.28      0.00
   -3    4   24      1.09      0.00
   -2    4   24     -1.89      0.00
   -1    4   24     -0.67      0.00
    0    4   24      0.03      0.00
    1    4   24     -0.98      0.00
    2    4   24      0.34      0.00
  -13    5   24      0.55      0.00
  -12    5   24     -1.23      0.00
  -11    5   24      0.48      0.00
  -10    5   24      1.35      0.00
   -9    5   24      0.06      0.00
   -8    5   24     -1.13      0.00
   -7    5   24     -0.52      0.00
   -6    5   24     -0.48      0.00
   -5    5   24      0.25      0.00
   -4    5   24      1.11      0.00
   -3    5   24     -1.40      0.00
   -2    5   24      0.02      0.00
   -1    5   24     -1.45      0.00
    0    5   24      0.58      0.00
    1    5   24      0.39      0.00
    2    5   24      0.61      0.00
  -12    6   24     -0.04      0.00
  -11    6   24     -0.25      0.00
  -10    6   24     -1.69      0.00
   -9    6   24     -1.47      0.00
   -8    6   24     -0.95      0.00
   -7    6   24      1.05      0.00
   -6    6   24      1.37      0.00
   -5    6   24      0.34      0.00
   -4    6   24     -0.54      0.00
   -3    6   24     -1.30      0.00
   -2    6   24      1.94      0.00
   -1    6   24      1.32      0.00
    0    6   24     -0.13      0.00
    1    6   24      0.40      0.00
  -11    7   24     -1.05      0.00
  -10    7   24     -1.71      0.00
   -9    7   24     -0.41      0.00
   -8    7   24      0.53      0.00
   -7    7   24      0.70      0.00
   -6    7   24      0.74      0.00
   -5    7   24     -0.57      0.00
   -4    7   24     -0.59      0.00
   -3    7   24      1.63      0.00
   -2    7   24     -0.28      0.00
   -1    7   24      1.41      0.00
    0    7   24     -0.29      0.00
    1    7   24      0.12      0.00
  -10    8   24      1.66      0.00
   -9    8   24      0.49      0.00
   -8    8   24      1.08      0.00
   -7    8   24     -1.11      0.00
   -6    8   24     -0.73      0.00
   -5    8   24     -0.31      0.00
   -4    8   24      0.48      0.00
   -3    8   24      1.20      0.00
   -2    8   24     -1.48      0.00
   -1    8   24     -1.27      0.00
    0    8   24      0.37      0.00
   -9    9   24      0.40      0.00
   -8    9   24     -0.68      0.00
   -7    9   24     -0.40      0.00
   -6    9   24     -0.73      0.00
   -5    9   24      0.15      0.00
   -4    9   24     -0.07      0.00
   -3    9   24     -1.37      0.00
   -2    9   24      0.22      0.00
  -11    0   25      1.41      0.00
   -9    0   25     -0.11      0.00
   -7    0   25      1.85      0.00
   -5    0   25      2.26      0.00
   -3    0   25     -0.22      0.00
   -1    0   25     -0.23      0.00
    1    0   25     -0.34      0.00
  -12    1   25     -0.23      0.00
  -11    1   25     -0.29      0.00
  -10    1   25      0.34      0.00
   -9    1   25      0.35      0.00
   -8    1   25      0.44      0.00
   -7    1   25      1.76      0.00
   -6    1   25      0.32      0.00
   -5    1   25     -1.21      0.00
   -4    1   25      0.37      0.00
   -3    1   25      0.29      0.00
   -2    1   25      0.19      0.00
   -1    1   25     -0.67      0.00
    0    1   25     -0.08      0.00
    1    1   25     -1.61      0.00
  -12    2   25      0.43      0.00
  -11    2   25     -1.17      0.00
  -10    2   25      0.06      0.00
   -9    2   25      0.45      0.00
   -8    2   25     -0.14      0.00
   -7    2   25     -1.39      0.00
   -6    2   25      0.44      0.00
   -5    2   25     -1.78      0.00
   -4    2   25      0.20      0.00
   -3    2   25     -0.41      0.00
   -2    2   25      0.31      0.00
   -1    2   25     -0.15      0.00
    0    2   25     -1.51      0.00
    1    2   25      0.54      0.00
  -12    3   25      0.38      0.00
  -11    3   25      0.37      0.00
  -10    3   25     -0.56      0.00
   -9    3   25     -1.01      0.00
   -8    3   25     -0.83      0.00
   -7    3   25     -1.31      0.00
   -6    3   25      0.00      0.00
   -5    3   25      1.62      0.00
   -4    3   25     -1.14      0.00
   -3    3   25     -0.21      0.00
   -2    3   25     -0.96      0.00
   -1    3   25      0.98      0.00
    0    3   25      0.46      0.00
    1    3   25      0.58      0.00
  -11    4   25      0.48      0.00
  -10    4   25     -0.65      0.00
   -9    4   25     -0.99      0.00
   -8    4   25     -0.03      0.00
   -7    4   25      0.98      0.00
   -6    4   25      0.41      0.00
   -5    4   25      1.05      0.00
   -4    4   25     -0.24      0.00
   -3    4   25      1.02      0.00
   -2    4   25      0.11      0.00
   -1    4   25      0.71      0.00
    0    4   25      1.59      0.00
  -11    5   25     -0.90      0.00
  -10    5   25      0.16      0.00
   -9    5   25      0.81      0.00
   -8    5   25      0.85      0.00
   -7    5   25      0.98      0.00
   -6    5   25     -0.96      0.00
   -5    5   25     -1.22      0.00
   -4    5   25      1.36      0.00
   -3    5   25      0.17      0.00
   -2    5   25      1.78      0.00
   -1    5   25     -1.52      0.00
    0    5   25     -0.87      0.00
  -10    6   25      0.68      0.00
   -9    6   25      1.47      0.00
   -8    6   25     -0.11      0.00
   -7    6   25     -1.05      0.00
   -6    6   25     -1.29      0.00
   -5    6   25     -0.81      0.00
   -4    6   25      0.54      0.00
   -3    6   25     -0.79      0.00
   -2    6   25     -0.97      0.00
   -1    6   25     -0.94      0.00
   -9    7   25     -0.35      0.00
   -8    7   25     -0.78      0.00
   -7    7   25     -0.85      0.00
   -6    7   25      0.73      0.00
   -5    7   25      0.44      0.00
   -4    7   25     -0.90      0.00
   -3    7   25     -0.13      0.00
  -10    0   26      0.16      0.00
   -8    0   26     -0.93      0.00
   -6    0   26     -2.59      0.00
   -4    0   26      0.28      0.00
   -2    0   26      0.40      0.00
  -10    1   26      0.75      0.00
   -9    1   26     -0.16      0.00
   -8    1   26     -1.03      0.00
   -7    1   26     -0.25      0.00
   -6    1   26      0.41      0.00
   -5    1   26     -0.51      0.00
   -4    1   26      0.83      0.00
   -3    1   26      0.07      0.00
   -2    1   26      0.23      0.00
  -10    2   26     -0.38      0.00
   -9    2   26      0.19      0.00
   -8    2   26      0.72      0.00
   -7    2   26      0.13      0.00
   -6    2   26      1.93      0.00
   -5    2   26     -0.24      0.00
   -4    2   26      0.00      0.00
   -3    2   26     -0.04      0.00
   -2    2   26      0.25      0.00
   -9    3   26      0.32      0.00
   -8    3   26      1.19      0.00
   -7    3   26     -0.05      0.00
   -6    3   26     -0.62      0.00
   -5    3   26      0.92      0.00
   -4    3   26     -0.71      0.00
   -3    3   26      0.48      0.00
   -8    4   26     -0.59      0.00
   -7    4   26     -0.74      0.00
   -6    4   26     -1.19      0.00
   -5    4   26      0.08      0.00
   -4    4   26     -0.24      0.00
   -3    4   26     -0.47      0.00
   -6    5   26      0.36      0.00
   -5    5   26     -0.38      0.00
    2    0    0     -9.74      0.00
    1    1    0     13.88      0.00
    2    1    0    -38.63      0.00
   21    1    0      0.36      0.00
    0    2    0   -151.05      0.00
    1    2    0     13.15      0.00
   21    2    0     -1.09      0.00
   21    3    0     -0.64      0.00
    0    4    0     81.63      0.00
   21    4    0      1.03      0.00
   21    5    0      0.07      0.00
    0    6    0    -35.04      0.00
   20    6    0      0.54      0.00
   21    6    0     -0.51      0.00
   20    7    0     -0.80      0.00
   20    8    0      0.08      0.00
   20    9    0     -0.03      0.00
   19   10    0      0.06      0.00
   19   11    0     -0.06      0.00
   18   12    0     -0.17      0.00
   19   12    0     -0.25      0.00
   18   13    0     -0.09      0.00
   17   14    0      0.84      0.00
   16   15    0      1.03      0.00
   17   15    0     -0.03      0.00
   15   16    0      0.28      0.00
   16   16    0     -0.11      0.00
   14   17    0     -0.54      0.00
   15   17    0      0.25      0.00
   13   18    0      0.40      0.00
   14   18    0     -0.36      0.00
   12   19    0     -0.10      0.00
   13   19    0      0.37      0.00
   11   20    0     -0.75      0.00
   12   20    0     -0.74      0.00
    9   21    0      0.01      0.00
   10   21    0      0.19      0.00
    6   22    0     -0.27      0.00
    7   22    0     -0.23      0.00
    8   22    0      0.56      0.00
    9   22    0     -0.08      0.00
  -21    0    1     -0.73      0.00
   -1    0    1   -123.75      0.00
    1    0    1    -61.05      0.00
   21    0    1     -0.78      0.00
  -21    1    1      1.67      0.00
   -2    1    1     -7.76      0.00
   -1    1    1    -35.16      0.00
    0    1    1    -13.65      0.00
    1    1    1    102.00      0.00
   21    1    1     -1.84      0.00
  -21    2    1      0.75      0.00
   -1    2    1     98.51      0.00
    0    2    1     11.02      0.00
    1    2    1     47.08      0.00
   21    2    1      0.95      0.00
  -21    3    1     -1.71      0.00
   21    3    1      1.75      0.00
  -21    4    1     -0.58      0.00
   21    4    1     -0.86      0.00
  -21    5    1      0.78      0.00
   20    5    1     -0.44      0.00
   21    5    1     -1.06      0.00
  -21    6    1      0.37      0.00
   20    6    1      0.81      0.00
  -21    7    1      0.39      0.00
  -20    7    1      0.32      0.00
   20    7    1     -0.19      0.00
  -20    8    1      1.00      0.00
   20    8    1     -0.35      0.00
  -20    9    1      0.14      0.00
   19    9    1     -0.18      0.00
   20    9    1     -0.16      0.00
  -20   10    1     -0.60      0.00
  -19   10    1      0.22      0.00
   19   10    1     -0.14      0.00
  -19   11    1     -0.54      0.00
   18   11    1      0.09      0.00
   19   11    1      0.08      0.00
  -19   12    1     -0.19      0.00
  -18   12    1      0.10      0.00
   18   12    1      1.01      0.00
  -18   13    1     -0.25      0.00
   17   13    1      0.57      0.00
   18   13    1      0.08      0.00
  -18   14    1      0.27      0.00
  -17   14    1      0.17      0.00
   17   14    1     -0.04      0.00
  -17   15    1      0.34      0.00
  -16   15    1      0.18      0.00
   16   15    1     -0.53      0.00
  -16   16    1     -0.02      0.00
  -15   16    1     -0.55      0.00
   15   16    1      0.21      0.00
   16   16    1      0.13      0.00
  -15   17    1     -0.45      0.00
   14   17    1     -0.07      0.00
   15   17    1      1.19      0.00
  -14   18    1      0.33      0.00
  -13   18    1     -0.45      0.00
   13   18    1     -0.12      0.00
   14   18    1     -0.22      0.00
  -13   19    1      0.02      0.00
  -12   19    1     -0.14      0.00
   12   19    1     -0.21      0.00
   13   19    1     -0.21      0.00
  -12   20    1     -0.23      0.00
  -11   20    1      1.23      0.00
   10   20    1      0.58      0.00
   11   20    1      0.70      0.00
   12   20    1     -0.17      0.00
  -11   21    1     -0.36      0.00
  -10   21    1      0.65      0.00
   -9   21    1      0.45      0.00
    8   21    1     -0.16      0.00
    9   21    1     -0.42      0.00
   10   21    1      0.16      0.00
   -9   22    1     -0.57      0.00
   -8   22    1      0.14      0.00
   -7   22    1     -0.01      0.00
   -6   22    1      0.65      0.00
    6   22    1      0.08      0.00
    7   22    1     -0.34      0.00
    8   22    1      0.37      0.00
   -4    0    2      2.40      0.00
   -2    0    2     15.34      0.00
    0    0    2    109.54      0.00
   -2    1    2     16.31      0.00
   -1    1    2      5.56      0.00
    0    1    2    -89.37      0.00
    1    1    2      8.88      0.00
   21    1    2     -0.28      0.00
  -21    2    2      0.29      0.00
   -1    2    2    -28.55      0.00
    0    2    2    -87.33      0.00
   21    2    2     -0.68      0.00
  -21    3    2     -1.44      0.00
   20    3    2     -2.61      0.00
   21    3    2      0.66      0.00
  -21    4    2     -0.45      0.00
   20    4    2      0.00      0.00
   21    4    2      0.67      0.00
  -21    5    2      0.82      0.00
   20    5    2      2.28      0.00
  -21    6    2      0.75      0.00
   20    6    2     -0.04      0.00
  -21    7    2      0.04      0.00
   20    7    2     -1.05      0.00
  -21    8    2     -0.77      0.00
  -20    8    2      0.95      0.00
   19    8    2      0.02      0.00
   20    8    2      0.10      0.00
  -20    9    2     -0.37      0.00
   19    9    2      0.88      0.00
  -20   10    2     -0.79      0.00
  -19   10    2      0.83      0.00
   19   10    2      0.32      0.00
  -19   11    2     -0.37      0.00
   18   11    2      0.16      0.00
   19   11    2     -1.02      0.00
  -19   12    2     -0.82      0.00
  -18   12    2     -0.10      0.00
   18   12    2     -0.61      0.00
  -18   13    2     -0.51      0.00
   17   13    2     -0.34      0.00
  -18   14    2     -0.16      0.00
  -17   14    2     -0.67      0.00
   16   14    2      0.39      0.00
   17   14    2      1.27      0.00
  -17   15    2     -0.62      0.00
  -16   15    2     -0.47      0.00
   16   15    2      0.70      0.00
  -16   16    2      0.23      0.00
   15   16    2      0.12      0.00
  -15   17    2      0.22      0.00
   14   17    2     -1.06      0.00
   15   17    2     -0.52      0.00
  -15   18    2     -0.29      0.00
  -14   18    2      0.12      0.00
   13   18    2      0.43      0.00
   14   18    2      0.13      0.00
  -13   19    2      0.27      0.00
  -12   19    2     -0.38      0.00
   11   19    2     -0.14      0.00
   12   19    2     -0.04      0.00
   13   19    2      0.90      0.00
  -12   20    2     -1.00      0.00
  -11   20    2      0.26      0.00
   10   20    2     -0.36      0.00
   11   20    2      0.07      0.00
  -11   21    2     -0.78      0.00
  -10   21    2      0.07      0.00
   -9   21    2      0.65      0.00
    8   21    2      0.42      0.00
    9   21    2      0.06      0.00
   10   21    2     -0.16      0.00
   -9   22    2     -0.30      0.00
   -8   22    2      0.41      0.00
   -7   22    2     -0.67      0.00
   -6   22    2     -0.88      0.00
    5   22    2      0.24      0.00
    6   22    2      0.17      0.00
    7   22    2     -0.52      0.00
    8   22    2     -0.37      0.00
   -3    0    3     22.23      0.00
    1    0    3     14.80      0.00
   21    0    3     -1.73      0.00
   -1    1    3     29.33      0.00
   20    1    3      0.20      0.00
   21    1    3     -1.86      0.00
   -1    2    3     50.98      0.00
    1    2    3    -16.41      0.00
   20    2    3      0.78      0.00
   21    2    3      1.37      0.00
   20    3    3     -0.58      0.00
  -21    4    3     -0.66      0.00
   20    4    3     -0.70      0.00
  -21    5    3      0.31      0.00
   20    5    3      0.89      0.00
  -21    6    3      1.30      0.00
   20    6    3      0.24      0.00
  -21    7    3      0.49      0.00
   19    7    3      0.35      0.00
   20    7    3     -0.69      0.00
  -21    8    3     -1.29      0.00
  -20    8    3      0.62      0.00
   19    8    3     -0.14      0.00
  -20    9    3     -0.94      0.00
   19    9    3      0.27      0.00
  -20   10    3     -0.87      0.00
   18   10    3     -0.84      0.00
   19   10    3      0.14      0.00
  -20   11    3      0.45      0.00
  -19   11    3     -0.93      0.00
   18   11    3      0.99      0.00
  -19   12    3     -0.16      0.00
   17   12    3      0.62      0.00
   18   12    3      1.14      0.00
  -19   13    3      0.64      0.00
  -18   13    3     -0.95      0.00
   17   13    3      0.47      0.00
  -18   14    3      0.01      0.00
  -17   14    3     -0.16      0.00
   16   14    3     -0.74      0.00
   17   14    3     -0.18      0.00
  -17   15    3      0.44      0.00
   15   15    3     -0.66      0.00
   16   15    3     -0.54      0.00
  -16   16    3     -0.46      0.00
   14   16    3      0.28      0.00
   15   16    3      0.77      0.00
  -16   17    3     -0.21      0.00
  -15   17    3      0.25      0.00
   13   17    3      0.66      0.00
   14   17    3      0.13      0.00
  -15   18    3     -0.03      0.00
  -14   18    3     -0.12      0.00
   12   18    3      0.18      0.00
   13   18    3     -0.48      0.00
  -14   19    3     -0.30      0.00
  -13   19    3      0.42      0.00
  -12   19    3     -0.14      0.00
   11   19    3      0.38      0.00
   12   19    3     -1.25      0.00
  -12   20    3      0.23      0.00
  -11   20    3      1.02      0.00
   10   20    3     -0.09      0.00
   11   20    3      0.40      0.00
  -11   21    3     -0.72      0.00
  -10   21    3      0.20      0.00
   -9   21    3      0.38      0.00
    8   21    3      0.20      0.00
    9   21    3      0.45      0.00
   10   21    3     -0.30      0.00
   -9   22    3     -0.57      0.00
   -8   22    3      1.06      0.00
   -7   22    3      0.80      0.00
   -6   22    3      0.18      0.00
    5   22    3     -0.04      0.00
    6   22    3      0.34      0.00
    7   22    3      0.72      0.00
    8   22    3     -0.17      0.00
    0    0    4     13.90      0.00
   20    0    4      1.16      0.00
   -2    1    4     -0.67      0.00
   20    1    4      2.62      0.00
   -2    2    4     10.04      0.00
   20    2    4     -1.04      0.00
   20    3    4     -2.14      0.00
   20    4    4      0.69      0.00
  -21    5    4      1.18      0.00
   20    5    4      1.18      0.00
  -21    6    4      0.15      0.00
   19    6    4      0.10      0.00
   20    6    4     -0.44      0.00
  -21    7    4     -1.02      0.00
   19    7    4      0.41      0.00
  -21    8    4     -0.18      0.00
   19    8    4     -0.02      0.00
  -21    9    4      0.79      0.00
  -20    9    4     -0.71      0.00
   18    9    4     -0.97      0.00
   19    9    4      0.48      0.00
  -20   10    4     -0.83      0.00
   18   10    4      0.11      0.00
  -20   11    4      0.42      0.00
  -19   11    4     -0.89      0.00
   17   11    4     -0.17      0.00
   18   11    4      0.38      0.00
  -19   12    4     -0.72      0.00
   17   12    4     -0.84      0.00
  -19   13    4      0.73      0.00
  -18   13    4     -0.32      0.00
   16   13    4     -0.57      0.00
   17   13    4      0.11      0.00
  -18   14    4      0.24      0.00
  -17   14    4     -0.82      0.00
   16   14    4      0.31      0.00
  -17   15    4     -0.38      0.00
   15   15    4      0.31      0.00
   16   15    4      0.27      0.00
  -17   16    4      0.48      0.00
  -16   16    4     -0.01      0.00
   14   16    4     -0.75      0.00
   15   16    4      0.08      0.00
  -16   17    4      0.06      0.00
  -15   17    4     -0.58      0.00
   13   17    4     -0.64      0.00
   14   17    4     -0.31      0.00
  -15   18    4     -0.18      0.00
  -14   18    4      0.39      0.00
   12   18    4      0.11      0.00
   13   18    4      0.70      0.00
  -14   19    4     -0.10      0.00
  -13   19    4     -0.17      0.00
  -12   19    4     -0.73      0.00
   11   19    4      0.92      0.00
   12   19    4     -0.28      0.00
  -12   20    4     -0.48      0.00
  -11   20    4     -0.09      0.00
    9   20    4      0.31      0.00
   10   20    4     -0.43      0.00
   11   20    4      0.45      0.00
  -11   21    4     -0.25      0.00
  -10   21    4     -0.12      0.00
   -9   21    4     -0.03      0.00
    7   21    4     -0.62      0.00
    8   21    4     -0.65      0.00
    9   21    4      0.45      0.00
   -9   22    4     -0.92      0.00
   -8   22    4      0.06      0.00
   -7   22    4     -0.24      0.00
   -6   22    4     -0.53      0.00
    4   22    4      0.05      0.00
    5   22    4     -0.24      0.00
    6   22    4     -0.57      0.00
    7   22    4      0.54      0.00
   20    1    5      0.17      0.00
   20    2    5      0.15      0.00
   20    3    5     -0.53      0.00
   19    4    5     -0.02      0.00
   20    4    5      0.25      0.00
  -21    5    5      0.24      0.00
   19    5    5     -0.59      0.00
  -21    6    5      1.45      0.00
   19    6    5     -0.16      0.00
  -21    7    5     -0.03      0.00
   19    7    5     -0.53      0.00
  -21    8    5     -1.43      0.00
   18    8    5      0.22      0.00
   19    8    5      0.06      0.00
  -21    9    5     -0.21      0.00
  -20    9    5     -1.06      0.00
   18    9    5     -0.68      0.00
  -20   10    5     -0.30      0.00
   18   10    5     -0.14      0.00
  -20   11    5      0.78      0.00
  -19   11    5     -0.98      0.00
   17   11    5     -0.86      0.00
   18   11    5      0.85      0.00
  -19   12    5     -0.02      0.00
   17   12    5      0.41      0.00
  -19   13    5      0.85      0.00
  -18   13    5     -0.57      0.00
   16   13    5      0.47      0.00
  -18   14    5      0.31      0.00
   15   14    5     -0.23      0.00
   16   14    5      0.10      0.00
  -17   15    5      0.54      0.00
   14   15    5      0.13      0.00
   15   15    5     -0.35      0.00
  -17   16    5      0.00      0.00
  -16   16    5     -0.19      0.00
   14   16    5     -0.19      0.00
  -16   17    5      0.63      0.00
  -15   17    5      0.08      0.00
   13   17    5      0.15      0.00
  -15   18    5     -0.50      0.00
  -14   18    5     -0.53      0.00
   12   18    5     -0.30      0.00
   13   18    5     -0.49      0.00
  -14   19    5     -0.09      0.00
  -13   19    5      0.49      0.00
  -12   19    5      0.29      0.00
   10   19    5     -0.52      0.00
   11   19    5      0.41      0.00
  -12   20    5      0.38      0.00
  -11   20    5      0.64      0.00
    9   20    5      0.89      0.00
   10   20    5     -0.58      0.00
  -11   21    5     -0.19      0.00
  -10   21    5      0.50      0.00
   -9   21    5      0.19      0.00
    7   21    5      0.25      0.00
    8   21    5     -0.26      0.00
    9   21    5      0.05      0.00
   -9   22    5     -0.72      0.00
   -8   22    5      0.41      0.00
   -7   22    5      0.83      0.00
   -6   22    5      0.77      0.00
    3   22    5     -0.47      0.00
    4   22    5      0.63      0.00
    5   22    5      0.05      0.00
    6   22    5     -0.71      0.00
    7   22    5      0.91      0.00
   20    0    6      1.64      0.00
   19    1    6     -0.25      0.00
   20    1    6      1.02      0.00
   19    2    6     -0.48      0.00
   19    3    6      0.55      0.00
   19    4    6      0.02      0.00
  -21    5    6      0.83      0.00
   19    5    6     -0.54      0.00
  -21    6    6     -0.19      0.00
   19    6    6      0.58      0.00
  -21    7    6     -0.92      0.00
   18    7    6      1.34      0.00
   19    7    6      0.24      0.00
  -21    8    6      0.29      0.00
   18    8    6     -0.57      0.00
  -21    9    6      0.83      0.00
  -20    9    6     -0.63      0.00
   18    9    6     -1.30      0.00
  -20   10    6     -0.62      0.00
   17   10    6      0.24      0.00
   18   10    6      0.46      0.00
  -20   11    6      0.87      0.00
  -19   11    6     -0.90      0.00
   17   11    6      0.20      0.00
  -19   12    6     -0.17      0.00
   16   12    6     -0.38      0.00
   17   12    6     -0.10      0.00
  -19   13    6      0.45      0.00
  -18   13    6      0.11      0.00
   16   13    6     -0.62      0.00
  -18   14    6      0.07      0.00
   15   14    6     -0.67      0.00
  -17   15    6      0.34      0.00
   14   15    6      0.60      0.00
   15   15    6      0.42      0.00
  -17   16    6      0.18      0.00
  -16   16    6     -0.71      0.00
   13   16    6     -0.16      0.00
   14   16    6     -0.10      0.00
  -16   17    6     -0.18      0.00
  -15   17    6     -0.79      0.00
   12   17    6     -0.34      0.00
   13   17    6     -0.24      0.00
  -15   18    6      0.15      0.00
  -14   18    6     -0.12      0.00
   11   18    6     -0.17      0.00
   12   18    6     -0.03      0.00
  -14   19    6     -0.41      0.00
  -13   19    6     -0.67      0.00
  -12   19    6      0.18      0.00
   10   19    6     -0.24      0.00
   11   19    6      1.39      0.00
  -12   20    6     -0.26      0.00
  -11   20    6      0.06      0.00
    8   20    6     -0.91      0.00
    9   20    6      0.47      0.00
   10   20    6      0.28      0.00
  -11   21    6     -0.21      0.00
  -10   21    6      0.16      0.00
   -9   21    6     -0.62      0.00
    6   21    6      0.26      0.00
    7   21    6      0.12      0.00
    8   21    6     -0.53      0.00
   -9   22    6     -0.17      0.00
   -8   22    6     -0.28      0.00
   -7   22    6     -0.37      0.00
   -6   22    6     -0.46      0.00
   -5   22    6     -1.41      0.00
    2   22    6      0.69      0.00
    3   22    6     -0.93      0.00
    4   22    6      0.20      0.00
    5   22    6      0.59      0.00
    6   22    6     -1.17      0.00
   19    0    7     -0.36      0.00
   19    1    7     -0.68      0.00
   19    2    7      0.07      0.00
   19    3    7      0.56      0.00
   19    4    7      0.51      0.00
   18    5    7      0.24      0.00
   19    5    7     -0.14      0.00
  -21    6    7      0.77      0.00
   18    6    7      0.10      0.00
  -21    7    7     -0.20      0.00
   18    7    7      0.00      0.00
  -21    8    7     -0.75      0.00
   18    8    7      0.30      0.00
  -21    9    7      0.00      0.00
  -20    9    7     -1.42      0.00
   17    9    7      1.25      0.00
   18    9    7     -0.26      0.00
  -20   10    7     -0.02      0.00
   17   10    7     -0.59      0.00
  -20   11    7      1.08      0.00
  -19   11    7     -0.63      0.00
   16   11    7     -1.25      0.00
   17   11    7     -0.90      0.00
  -19   12    7      0.71      0.00
   16   12    7     -0.29      0.00
  -19   13    7      0.47      0.00
  -18   13    7      0.15      0.00
   15   13    7      0.70      0.00
   16   13    7      0.92      0.00
  -18   14    7      0.10      0.00
  -17   14    7      0.33      0.00
   14   14    7      0.17      0.00
   15   14    7     -0.14      0.00
  -17   15    7      0.14      0.00
   14   15    7     -0.18      0.00
  -17   16    7      0.03      0.00
  -16   16    7      0.28      0.00
   13   16    7      0.44      0.00
  -16   17    7      0.76      0.00
  -15   17    7     -0.75      0.00
   12   17    7      1.42      0.00
   13   17    7     -0.05      0.00
  -15   18    7     -0.49      0.00
  -14   18    7     -0.13      0.00
   10   18    7      0.22      0.00
   11   18    7      0.46      0.00
   12   18    7     -0.51      0.00
  -14   19    7      0.23      0.00
  -13   19    7     -0.25      0.00
  -12   19    7      0.32      0.00
    9   19    7      0.18      0.00
   10   19    7     -0.76      0.00
  -12   20    7      0.08      0.00
  -11   20    7      1.42      0.00
  -10   20    7      0.31      0.00
    7   20    7     -0.05      0.00
    8   20    7      0.10      0.00
    9   20    7      0.50      0.00
  -11   21    7     -0.12      0.00
  -10   21    7      0.68      0.00
   -9   21    7     -0.77      0.00
   -8   21    7     -0.59      0.00
    5   21    7     -0.37      0.00
    6   21    7     -0.44      0.00
    7   21    7      0.90      0.00
   -8   22    7      0.11      0.00
   -7   22    7      0.43      0.00
   -6   22    7      1.18      0.00
   -5   22    7      0.78      0.00
   -4   22    7     -0.26      0.00
    0   22    7      0.41      0.00
    1   22    7     -0.02      0.00
    2   22    7      0.52      0.00
    3   22    7      0.02      0.00
    4   22    7     -0.43      0.00
    5   22    7      0.98      0.00
   18    0    8     -0.73      0.00
   18    1    8     -0.48      0.00
   19    1    8     -0.30      0.00
   18    2    8      0.70      0.00
   19    2    8     -0.48      0.00
   18    3    8      0.40      0.00
   19    3    8      0.62      0.00
   18    4    8     -0.88      0.00
  -21    5    8      0.61      0.00
   18    5    8     -0.35      0.00
  -21    6    8      0.06      0.00
   18    6    8      1.08      0.00
  -21    7    8     -1.01      0.00
   17    7    8      0.45      0.00
   18    7    8      0.32      0.00
  -21    8    8      0.22      0.00
   17    8    8     -0.59      0.00
  -21    9    8      1.22      0.00
  -20    9    8     -0.26      0.00
   17    9    8     -0.43      0.00
  -20   10    8      0.08      0.00
   16   10    8      0.17      0.00
   17   10    8      0.57      0.00
  -20   11    8      0.55      0.00
  -19   11    8     -0.68      0.00
   16   11    8      0.75      0.00
  -19   12    8      0.18      0.00
   15   12    8     -0.10      0.00
   16   12    8     -0.06      0.00
  -19   13    8     -0.10      0.00
  -18   13    8      0.41      0.00
   15   13    8     -0.92      0.00
  -18   14    8     -0.62      0.00
  -17   14    8     -0.01      0.00
   14   14    8      0.42      0.00
  -17   15    8      0.19      0.00
   13   15    8      0.50      0.00
   14   15    8      0.77      0.00
  -17   16    8     -0.07      0.00
  -16   16    8     -1.05      0.00
   12   16    8     -0.70      0.00
   13   16    8      0.07      0.00
  -16   17    8      0.54      0.00
  -15   17    8     -0.50      0.00
   11   17    8     -1.71      0.00
   12   17    8     -0.44      0.00
  -15   18    8      0.03      0.00
  -14   18    8     -0.74      0.00
  -13   18    8     -0.64      0.00
   10   18    8      0.05      0.00
   11   18    8      0.35      0.00
  -13   19    8     -0.64      0.00
  -12   19    8      0.32      0.00
    8   19    8     -0.32      0.00
    9   19    8      0.05      0.00
   10   19    8      0.43      0.00
  -12   20    8     -1.06      0.00
  -11   20    8     -0.15      0.00
  -10   20    8     -0.48      0.00
    7   20    8     -0.54      0.00
    8   20    8     -0.96      0.00
  -10   21    8      1.19      0.00
   -9   21    8      0.21      0.00
   -8   21    8     -0.74      0.00
    4   21    8      0.28      0.00
    5   21    8      0.86      0.00
    6   21    8     -1.04      0.00
    7   21    8     -0.25      0.00
   -8   22    8     -0.44      0.00
   -7   22    8     -0.77      0.00
   -6   22    8      0.18      0.00
   -5   22    8      0.01      0.00
   -4   22    8     -0.74      0.00
   -3   22    8      0.32      0.00
   -2   22    8      0.30      0.00
   -1   22    8     -0.68      0.00
    0   22    8     -0.79      0.00
    1   22    8     -0.13      0.00
    2   22    8     -0.56      0.00
    3   22    8      0.46      0.00
    4   22    8     -0.85      0.00
   18    1    9      0.58      0.00
   18    2    9      1.15      0.00
   18    3    9     -1.12      0.00
   18    4    9     -1.24      0.00
  -21    5    9     -0.20      0.00
   17    5    9      0.17      0.00
   18    5    9      0.76      0.00
  -21    6    9     -0.02      0.00
   17    6    9     -0.47      0.00
   18    6    9      0.61      0.00
  -21    7    9      0.07      0.00
   17    7    9     -0.30      0.00
  -21    8    9     -0.11      0.00
   17    8    9      0.71      0.00
  -21    9    9     -0.30      0.00
  -20    9    9     -1.34      0.00
   16    9    9      1.16      0.00
   17    9    9      0.54      0.00
  -20   10    9      0.61      0.00
   16   10    9     -0.75      0.00
  -20   11    9      0.76      0.00
  -19   11    9      0.18      0.00
   15   11    9     -0.07      0.00
   16   11    9     -0.92      0.00
  -19   12    9      0.22      0.00
   15   12    9     -0.24      0.00
  -19   13    9     -0.24      0.00
  -18   13    9      0.31      0.00
   14   13    9      0.05      0.00
   15   13    9      0.56      0.00
  -18   14    9     -0.07      0.00
  -17   14    9      0.42      0.00
   13   14    9     -1.32      0.00
   14   14    9     -0.30      0.00
  -17   15    9     -0.15      0.00
  -16   15    9     -0.41      0.00
   12   15    9     -1.30      0.00
   13   15    9     -0.63      0.00
  -16   16    9     -0.01      0.00
   11   16    9      0.68      0.00
   12   16    9      0.75      0.00
  -15   17    9     -0.93      0.00
  -14   17    9     -0.27      0.00
   10   17    9      0.77      0.00
   11   17    9      0.75      0.00
  -14   18    9      0.57      0.00
  -13   18    9     -0.32      0.00
    9   18    9     -0.80      0.00
   10   18    9      0.12      0.00
  -13   19    9     -0.59      0.00
  -12   19    9      0.33      0.00
    8   19    9      0.26      0.00
    9   19    9      0.03      0.00
  -12   20    9     -0.01      0.00
  -11   20    9      1.11      0.00
  -10   20    9      0.24      0.00
    6   20    9      0.18      0.00
    7   20    9      0.60      0.00
    8   20    9      0.57      0.00
  -10   21    9      0.13      0.00
   -9   21    9     -0.09      0.00
   -8   21    9     -0.52      0.00
   -7   21    9      0.91      0.00
    3   21    9     -0.06      0.00
    4   21    9     -0.73      0.00
    5   21    9      0.91      0.00
    6   21    9      0.13      0.00
   -7   22    9     -0.78      0.00
   -6   22    9     -0.26      0.00
   -5   22    9      0.60      0.00
   -4   22    9     -0.31      0.00
   -3   22    9     -0.07      0.00
   -2   22    9      0.30      0.00
   -1   22    9      0.76      0.00
    0   22    9      0.36      0.00
    1   22    9      1.05      0.00
    2   22    9     -0.57      0.00
    3   22    9      0.94      0.00
   18    0   10     -1.26      0.00
   17    1   10     -0.52      0.00
   18    1   10      0.52      0.00
   17    2   10     -1.36      0.00
   18    2   10      1.11      0.00
   17    3   10      1.06      0.00
   18    3   10     -0.40      0.00
   17    4   10      1.38      0.00
  -21    5   10      0.26      0.00
   17    5   10     -0.83      0.00
  -21    6   10     -0.01      0.00
   17    6   10     -0.30      0.00
  -21    7   10     -0.70      0.00
   16    7   10     -0.07      0.00
   17    7   10      0.27      0.00
  -21    8   10      0.22      0.00
  -20    8   10      0.22      0.00
   16    8   10      0.10      0.00
  -21    9   10      0.81      0.00
  -20    9   10     -0.17      0.00
   16    9   10     -0.74      0.00
  -20   10   10      0.03      0.00
   15   10   10      0.99      0.00
   16   10   10      0.15      0.00
  -20   11   10      0.04      0.00
  -19   11   10     -0.14      0.00
   15   11   10      0.51      0.00
  -19   12   10      0.00      0.00
   14   12   10      0.10      0.00
   15   12   10     -0.80      0.00
  -19   13   10     -0.25      0.00
  -18   13   10     -0.72      0.00
   13   13   10      0.69      0.00
   14   13   10     -0.34      0.00
  -18   14   10     -0.93      0.00
  -17   14   10     -0.16      0.00
   13   14   10      0.96      0.00
  -17   15   10      0.05      0.00
  -16   15   10     -1.01      0.00
   12   15   10      0.54      0.00
   13   15   10     -0.07      0.00
  -16   16   10     -0.13      0.00
  -15   16   10      0.01      0.00
   11   16   10     -0.80      0.00
   12   16   10     -1.19      0.00
  -15   17   10     -0.15      0.00
  -14   17   10     -0.57      0.00
   10   17   10     -0.43      0.00
   11   17   10     -1.06      0.00
  -14   18   10     -0.35      0.00
  -13   18   10     -1.05      0.00
    8   18   10      0.58      0.00
    9   18   10     -0.44      0.00
   10   18   10      0.77      0.00
  -13   19   10     -0.21      0.00
  -12   19   10     -0.51      0.00
  -11   19   10     -0.24      0.00
    7   19   10      0.05      0.00
    8   19   10     -0.48      0.00
  -11   20   10     -0.06      0.00
  -10   20   10      0.61      0.00
   -9   20   10      0.09      0.00
    5   20   10      0.36      0.00
    6   20   10      0.04      0.00
    7   20   10     -0.78      0.00
   -9   21   10      0.30      0.00
   -8   21   10     -0.83      0.00
   -7   21   10     -0.33      0.00
   -6   21   10      0.55      0.00
   -5   21   10      0.41      0.00
    1   21   10     -0.96      0.00
    2   21   10     -0.37      0.00
    3   21   10      0.21      0.00
    4   21   10     -0.66      0.00
    5   21   10      0.07      0.00
   -7   22   10      0.11      0.00
   -6   22   10      0.35      0.00
   -5   22   10      0.59      0.00
   -4   22   10     -0.57      0.00
   -3   22   10     -0.17      0.00
   -2   22   10     -0.34      0.00
   -1   22   10     -0.40      0.00
    0   22   10     -0.99      0.00
    1   22   10      0.30      0.00
    2   22   10     -1.00      0.00
   17    0   11      1.18      0.00
   17    1   11     -0.58      0.00
   17    2   11     -0.86      0.00
   17    3   11      0.39      0.00
  -21    4   11      0.01      0.00
   17    4   11      0.42      0.00
  -21    5   11     -0.19      0.00
   16    5   11      0.95      0.00
   17    5   11     -0.28      0.00
  -21    6   11     -0.22      0.00
   16    6   11     -0.19      0.00
  -21    7   11      0.02      0.00
   16    7   11     -0.55      0.00
  -21    8   11     -0.07      0.00
  -20    8   11     -0.26      0.00
   15    8   11     -0.69      0.00
   16    8   11      0.79      0.00
  -20    9   11     -0.67      0.00
   15    9   11      0.18      0.00
  -20   10   11      0.25      0.00
  -19   10   11     -0.06      0.00
   15   10   11      0.65      0.00
  -20   11   11      0.35      0.00
  -19   11   11     -0.16      0.00
   14   11   11      0.55      0.00
   15   11   11     -0.81      0.00
  -19   12   11     -0.28      0.00
  -18   12   11      0.38      0.00
   13   12   11      0.38      0.00
   14   12   11      1.17      0.00
  -18   13   11      0.25      0.00
   13   13   11     -0.17      0.00
  -18   14   11     -0.06      0.00
  -17   14   11     -0.20      0.00
   12   14   11     -1.05      0.00
   13   14   11     -0.57      0.00
  -17   15   11     -0.30      0.00
  -16   15   11     -0.09      0.00
   11   15   11     -0.23      0.00
   12   15   11     -0.19      0.00
  -16   16   11     -0.16      0.00
  -15   16   11     -0.46      0.00
   10   16   11      0.23      0.00
   11   16   11      1.04      0.00
  -15   17   11     -0.19      0.00
  -14   17   11     -0.15      0.00
    9   17   11      0.18      0.00
   10   17   11      0.50      0.00
  -14   18   11      0.92      0.00
  -13   18   11     -0.83      0.00
  -12   18   11      0.54      0.00
    8   18   11      0.19      0.00
    9   18   11     -1.03      0.00
  -13   19   11      0.02      0.00
  -12   19   11      0.31      0.00
  -11   19   11      1.13      0.00
    6   19   11     -0.41      0.00
    7   19   11      0.26      0.00
    8   19   11      0.11      0.00
  -11   20   11      0.40      0.00
  -10   20   11      0.12      0.00
   -9   20   11     -0.15      0.00
   -8   20   11     -0.45      0.00
    3   20   11     -0.04      0.00
    4   20   11     -0.14      0.00
    5   20   11     -0.25      0.00
    6   20   11      0.27      0.00
   -9   21   11      0.46      0.00
   -8   21   11     -0.18      0.00
   -7   21   11     -0.49      0.00
   -6   21   11     -0.58      0.00
   -5   21   11     -0.19      0.00
   -4   21   11     -0.04      0.00
   -3   21   11      0.37      0.00
   -2   21   11     -0.23      0.00
   -1   21   11      0.04      0.00
    0   21   11      0.62      0.00
    1   21   11      0.49      0.00
    2   21   11      0.33      0.00
    3   21   11      0.68      0.00
    4   21   11     -0.08      0.00
   -5   22   11      0.52      0.00
   -4   22   11      0.42      0.00
   -3   22   11      0.30      0.00
   -2   22   11     -0.05      0.00
   -1   22   11      0.46      0.00
    0   22   11      0.24      0.00
   16    0   12     -0.85      0.00
   16    1   12      1.15      0.00
   17    1   12     -0.37      0.00
   16    2   12      0.51      0.00
   17    2   12     -0.06      0.00
  -21    3   12      0.94      0.00
   16    3   12     -0.79      0.00
  -21    4   12     -0.37      0.00
   16    4   12      0.08      0.00
  -21    5   12     -0.32      0.00
   16    5   12      0.31      0.00
  -21    6   12      0.06      0.00
   15    6   12     -0.06      0.00
   16    6   12     -0.19      0.00
  -21    7   12     -0.31      0.00
   15    7   12      0.20      0.00
   16    7   12      0.24      0.00
  -21    8   12     -0.08      0.00
  -20    8   12     -0.41      0.00
   15    8   12     -0.59      0.00
  -20    9   12     -0.23      0.00
   14    9   12      0.27      0.00
   15    9   12      0.15      0.00
  -20   10   12      0.28      0.00
  -19   10   12     -0.06      0.00
   14   10   12     -1.04      0.00
  -19   11   12     -0.16      0.00
   13   11   12     -1.02      0.00
   14   11   12      0.36      0.00
  -19   12   12      0.00      0.00
  -18   12   12      0.06      0.00
   13   12   12     -0.82      0.00
  -18   13   12     -1.05      0.00
  -17   13   12     -0.04      0.00
   12   13   12      0.37      0.00
   13   13   12      0.70      0.00
  -17   14   12      0.08      0.00
   11   14   12      0.21      0.00
   12   14   12      1.13      0.00
  -17   15   12     -0.04      0.00
  -16   15   12     -0.90      0.00
   10   15   12     -0.32      0.00
   11   15   12      0.50      0.00
  -16   16   12      0.31      0.00
  -15   16   12      0.49      0.00
    9   16   12     -0.20      0.00
   10   16   12     -0.84      0.00
  -15   17   12      0.25      0.00
  -14   17   12      0.17      0.00
  -13   17   12     -0.19      0.00
    8   17   12     -0.57      0.00
    9   17   12      0.07      0.00
  -14   18   12      0.21      0.00
  -13   18   12     -0.72      0.00
  -12   18   12      0.72      0.00
    7   18   12      0.10      0.00
    8   18   12      0.50      0.00
  -12   19   12     -0.70      0.00
  -11   19   12     -0.35      0.00
  -10   19   12     -0.17      0.00
    5   19   12      0.25      0.00
    6   19   12      0.34      0.00
    7   19   12      0.35      0.00
  -10   20   12     -0.02      0.00
   -9   20   12     -0.02      0.00
   -8   20   12     -0.31      0.00
   -7   20   12     -0.23      0.00
    2   20   12      0.37      0.00
    3   20   12     -0.67      0.00
    4   20   12     -0.04      0.00
    5   20   12      0.13      0.00
   -8   21   12      0.30      0.00
   -7   21   12      0.27      0.00
   -6   21   12      0.42      0.00
   -5   21   12      1.04      0.00
   -4   21   12     -0.44      0.00
   -3   21   12     -0.54      0.00
   -2   21   12     -0.47      0.00
   -1   21   12      0.13      0.00
    0   21   12     -0.04      0.00
    1   21   12     -0.73      0.00
    2   21   12     -0.77      0.00
    3   21   12     -0.08      0.00
  -21    0   13      0.52      0.00
  -21    1   13     -0.96      0.00
   16    1   13      0.35      0.00
  -21    2   13     -0.59      0.00
   16    2   13      0.08      0.00
  -21    3   13      0.39      0.00
   15    3   13      0.66      0.00
   16    3   13     -0.67      0.00
  -21    4   13      0.83      0.00
   15    4   13     -0.03      0.00
   16    4   13     -0.10      0.00
  -21    5   13      0.10      0.00
   15    5   13     -0.16      0.00
   16    5   13      0.40      0.00
  -21    6   13     -0.86      0.00
   15    6   13      0.61      0.00
  -21    7   13     -0.20      0.00
  -20    7   13      0.11      0.00
   14    7   13      0.53      0.00
   15    7   13     -0.30      0.00
  -20    8   13     -0.30      0.00
   14    8   13      0.32      0.00
   15    8   13     -0.40      0.00
  -20    9   13     -0.26      0.00
   14    9   13     -0.77      0.00
  -20   10   13      0.24      0.00
  -19   10   13      0.00      0.00
   13   10   13      0.93      0.00
   14   10   13     -0.88      0.00
  -19   11   13      0.01      0.00
  -18   11   13     -0.32      0.00
   13   11   13      0.13      0.00
  -19   12   13     -0.14      0.00
  -18   12   13      0.42      0.00
   12   12   13      0.09      0.00
   13   12   13     -0.66      0.00
  -18   13   13      0.29      0.00
  -17   13   13     -0.16      0.00
   11   13   13     -0.23      0.00
   12   13   13     -0.14      0.00
  -17   14   13     -0.16      0.00
  -16   14   13      0.29      0.00
   10   14   13      0.84      0.00
   11   14   13     -0.70      0.00
  -16   15   13      0.32      0.00
  -15   15   13      0.85      0.00
    9   15   13      0.20      0.00
   10   15   13     -0.13      0.00
   11   15   13      0.13      0.00
  -15   16   13     -0.45      0.00
  -14   16   13     -0.94      0.00
    8   16   13      1.05      0.00
    9   16   13      1.05      0.00
   10   16   13     -0.14      0.00
  -14   17   13      0.23      0.00
  -13   17   13     -0.15      0.00
    7   17   13      1.08      0.00
    8   17   13      0.26      0.00
    9   17   13     -0.22      0.00
  -13   18   13     -0.04      0.00
  -12   18   13      0.14      0.00
  -11   18   13     -0.67      0.00
    5   18   13      0.47      0.00
    6   18   13      0.11      0.00
    7   18   13      0.23      0.00
  -12   19   13      0.54      0.00
  -11   19   13      0.56      0.00
  -10   19   13      0.64      0.00
   -9   19   13      0.14      0.00
    3   19   13     -0.49      0.00
    4   19   13      0.12      0.00
    5   19   13     -0.52      0.00
    6   19   13     -0.63      0.00
  -10   20   13      0.34      0.00
   -9   20   13      0.19      0.00
   -8   20   13     -0.60      0.00
   -7   20   13     -0.14      0.00
   -6   20   13      0.63      0.00
   -5   20   13      0.05      0.00
   -4   20   13      0.03      0.00
   -3   20   13      0.09      0.00
   -2   20   13      0.96      0.00
   -1   20   13      0.07      0.00
    0   20   13      0.47      0.00
    1   20   13     -1.04      0.00
    2   20   13      1.22      0.00
    3   20   13      0.19      0.00
    4   20   13      0.22      0.00
   -7   21   13     -0.30      0.00
   -6   21   13     -1.03      0.00
   -5   21   13      0.03      0.00
   -4   21   13      0.26      0.00
   -3   21   13      0.73      0.00
   -2   21   13     -0.29      0.00
   -1   21   13     -0.23      0.00
    0   21   13      0.62      0.00
    1   21   13      0.32      0.00
  -21    1   14     -0.05      0.00
   15    1   14     -0.15      0.00
  -21    2   14      1.09      0.00
   15    2   14     -0.36      0.00
  -21    3   14      0.08      0.00
   15    3   14      0.28      0.00
  -21    4   14     -0.80      0.00
   15    4   14      0.50      0.00
  -21    5   14     -0.16      0.00
   14    5   14     -0.32      0.00
   15    5   14     -0.05      0.00
  -21    6   14      0.06      0.00
  -20    6   14      0.67      0.00
   14    6   14     -0.74      0.00
   15    6   14     -0.28      0.00
  -21    7   14      0.15      0.00
  -20    7   14     -0.75      0.00
   14    7   14      0.29      0.00
  -20    8   14     -0.53      0.00
   13    8   14      0.03      0.00
   14    8   14      0.91      0.00
  -20    9   14      0.56      0.00
  -19    9   14     -0.67      0.00
   13    9   14      0.52      0.00
   14    9   14     -0.27      0.00
  -19   10   14     -0.16      0.00
   12   10   14     -0.55      0.00
   13   10   14      0.36      0.00
  -19   11   14      0.49      0.00
  -18   11   14      0.15      0.00
   12   11   14     -0.40      0.00
   13   11   14     -0.43      0.00
  -18   12   14     -0.01      0.00
   11   12   14      0.51      0.00
   12   12   14     -0.05      0.00
  -18   13   14     -0.39      0.00
  -17   13   14      0.10      0.00
   10   13   14      0.30      0.00
   11   13   14     -0.80      0.00
  -17   14   14      0.30      0.00
  -16   14   14     -0.94      0.00
   10   14   14      0.21      0.00
   11   14   14     -0.13      0.00
  -16   15   14     -0.43      0.00
  -15   15   14      0.26      0.00
    9   15   14     -0.63      0.00
   10   15   14     -0.16      0.00
  -15   16   14      0.63      0.00
  -14   16   14      0.66      0.00
    7   16   14     -1.38      0.00
    8   16   14     -0.97      0.00
    9   16   14      0.39      0.00
  -14   17   14      0.45      0.00
  -13   17   14     -0.20      0.00
  -12   17   14     -0.35      0.00
    6   17   14     -0.99      0.00
    7   17   14     -1.25      0.00
    8   17   14     -0.27      0.00
  -13   18   14      0.06      0.00
  -12   18   14      0.61      0.00
  -11   18   14      0.24      0.00
  -10   18   14      0.49      0.00
    4   18   14      0.43      0.00
    5   18   14     -0.21      0.00
    6   18   14     -0.49      0.00
  -11   19   14     -0.59      0.00
  -10   19   14     -0.52      0.00
   -9   19   14     -1.37      0.00
   -8   19   14      0.27      0.00
   -7   19   14     -0.30      0.00
    1   19   14      0.68      0.00
    2   19   14      0.86      0.00
    3   19   14     -0.20      0.00
    4   19   14      0.42      0.00
    5   19   14      0.13      0.00
   -9   20   14      0.19      0.00
   -8   20   14      0.29      0.00
   -7   20   14     -0.05      0.00
   -6   20   14     -0.63      0.00
   -5   20   14      0.10      0.00
   -4   20   14      0.19      0.00
   -3   20   14     -1.03      0.00
   -2   20   14     -0.60      0.00
   -1   20   14     -0.18      0.00
    0   20   14      1.09      0.00
    1   20   14     -1.05      0.00
    2   20   14      0.33      0.00
   -4   21   14     -0.25      0.00
   -3   21   14     -0.04      0.00
   -2   21   14     -0.13      0.00
  -21    0   15      0.54      0.00
   15    0   15     -0.01      0.00
  -21    1   15     -1.76      0.00
   14    1   15     -0.25      0.00
   15    1   15     -0.19      0.00
  -21    2   15     -0.73      0.00
   14    2   15      0.39      0.00
   15    2   15      0.02      0.00
  -21    3   15      1.18      0.00
   14    3   15      0.49      0.00
   15    3   15     -0.38      0.00
  -21    4   15      1.08      0.00
   14    4   15     -0.51      0.00
  -21    5   15     -0.84      0.00
  -20    5   15     -0.22      0.00
   14    5   15     -0.57      0.00
  -21    6   15     -0.99      0.00
  -20    6   15      0.14      0.00
   13    6   15      0.54      0.00
   14    6   15      0.35      0.00
  -20    7   15     -0.41      0.00
   13    7   15     -0.18      0.00
   14    7   15      0.75      0.00
  -20    8   15     -0.06      0.00
  -19    8   15     -0.57      0.00
   13    8   15     -0.93      0.00
  -20    9   15      0.35      0.00
  -19    9   15     -0.58      0.00
   12    9   15      0.49      0.00
   13    9   15     -0.19      0.00
  -19   10   15      0.58      0.00
  -18   10   15     -1.10      0.00
   12   10   15      0.38      0.00
  -19   11   15     -0.01      0.00
  -18   11   15     -0.61      0.00
   11   11   15      0.41      0.00
   12   11   15     -0.18      0.00
  -18   12   15      0.98      0.00
  -17   12   15     -0.31      0.00
   10   12   15     -0.83      0.00
   11   12   15      0.14      0.00
  -17   13   15     -0.26      0.00
  -16   13   15     -0.12      0.00
   10   13   15      0.80      0.00
   11   13   15     -0.32      0.00
  -16   14   15      0.16      0.00
  -15   14   15      0.84      0.00
    9   14   15     -0.69      0.00
   10   14   15      0.58      0.00
  -16   15   15      0.06      0.00
  -15   15   15      0.13      0.00
  -14   15   15     -0.74      0.00
    8   15   15      0.43      0.00
    9   15   15      0.19      0.00
  -15   16   15     -0.61      0.00
  -14   16   15      0.17      0.00
  -13   16   15      0.05      0.00
    6   16   15      0.38      0.00
    7   16   15      0.18      0.00
    8   16   15      0.53      0.00
  -13   17   15      0.46      0.00
  -12   17   15     -0.63      0.00
  -11   17   15     -0.63      0.00
    5   17   15      0.30      0.00
    6   17   15      1.37      0.00
    7   17   15      0.64      0.00
  -12   18   15      0.07      0.00
  -11   18   15     -1.02      0.00
  -10   18   15     -0.54      0.00
   -9   18   15      0.32      0.00
    2   18   15     -1.47      0.00
    3   18   15     -0.88      0.00
    4   18   15     -0.31      0.00
    5   18   15      0.22      0.00
  -10   19   15      0.89      0.00
   -9   19   15      0.28      0.00
   -8   19   15      0.41      0.00
   -7   19   15     -0.32      0.00
   -6   19   15      1.31      0.00
   -5   19   15      1.02      0.00
   -4   19   15      0.50      0.00
   -3   19   15     -0.47      0.00
   -2   19   15      0.57      0.00
   -1   19   15      1.51      0.00
    0   19   15     -0.61      0.00
    1   19   15     -0.45      0.00
    2   19   15     -0.01      0.00
    3   19   15     -0.69      0.00
   -7   20   15      0.35      0.00
   -6   20   15      0.35      0.00
   -5   20   15      0.21      0.00
   -4   20   15      0.02      0.00
   -3   20   15      0.17      0.00
   -2   20   15      0.46      0.00
   -1   20   15     -0.48      0.00
    0   20   15      0.51      0.00
   14    0   16      0.16      0.00
  -21    1   16      0.37      0.00
   13    1   16      0.46      0.00
   14    1   16      0.06      0.00
  -21    2   16      0.32      0.00
   13    2   16     -0.20      0.00
   14    2   16     -0.18      0.00
  -21    3   16     -0.57      0.00
  -20    3   16     -0.87      0.00
   13    3   16     -0.76      0.00
   14    3   16      0.60      0.00
  -21    4   16     -0.13      0.00
  -20    4   16      0.52      0.00
   13    4   16      0.02      0.00
   14    4   16      0.39      0.00
  -21    5   16     -0.01      0.00
  -20    5   16      1.01      0.00
   13    5   16      0.39      0.00
  -20    6   16     -0.35      0.00
   13    6   16      0.07      0.00
  -20    7   16     -1.15      0.00
  -19    7   16      0.58      0.00
   12    7   16     -0.27      0.00
   13    7   16     -0.21      0.00
  -20    8   16      0.55      0.00
  -19    8   16     -0.22      0.00
   12    8   16      0.35      0.00
  -19    9   16     -0.76      0.00
   11    9   16     -1.15      0.00
   12    9   16      0.71      0.00
  -19   10   16      0.52      0.00
  -18   10   16     -0.52      0.00
   11   10   16     -0.58      0.00
   12   10   16     -0.38      0.00
  -18   11   16     -0.06      0.00
  -17   11   16     -0.66      0.00
   10   11   16     -0.43      0.00
   11   11   16      0.64      0.00
  -18   12   16      0.05      0.00
  -17   12   16     -0.86      0.00
    9   12   16      0.63      0.00
   10   12   16      0.31      0.00
  -17   13   16      0.52      0.00
  -16   13   16     -0.04      0.00
    9   13   16      0.23      0.00
   10   13   16      0.42      0.00
  -16   14   16     -0.62      0.00
  -15   14   16      0.02      0.00
    8   14   16      1.06      0.00
    9   14   16     -0.63      0.00
  -15   15   16      0.53      0.00
  -14   15   16     -0.23      0.00
    6   15   16      0.07      0.00
    7   15   16      0.86      0.00
    8   15   16      0.11      0.00
  -14   16   16      0.34      0.00
  -13   16   16     -0.53      0.00
  -12   16   16     -1.20      0.00
    5   16   16      0.59      0.00
    6   16   16      0.69      0.00
    7   16   16     -1.18      0.00
  -13   17   16      0.49      0.00
  -12   17   16      0.06      0.00
  -11   17   16      0.60      0.00
  -10   17   16      0.92      0.00
    3   17   16      1.56      0.00
    4   17   16      0.21      0.00
    5   17   16     -0.12      0.00
  -11   18   16     -0.11      0.00
  -10   18   16      0.10      0.00
   -9   18   16     -0.60      0.00
   -8   18   16      0.00      0.00
   -7   18   16     -0.17      0.00
    0   18   16     -1.90      0.00
    1   18   16      0.76      0.00
    2   18   16      0.24      0.00
    3   18   16      0.75      0.00
    4   18   16      0.39      0.00
   -9   19   16     -0.91      0.00
   -8   19   16      0.20      0.00
   -7   19   16     -0.21      0.00
   -6   19   16     -0.90      0.00
   -5   19   16     -1.31      0.00
   -4   19   16      0.20      0.00
   -3   19   16     -0.26      0.00
   -2   19   16     -0.48      0.00
   -1   19   16      0.18      0.00
    0   19   16     -0.42      0.00
    1   19   16      0.23      0.00
  -21    0   17     -0.13      0.00
   13    0   17     -0.14      0.00
  -21    1   17     -1.30      0.00
  -20    1   17      0.12      0.00
   13    1   17     -0.80      0.00
  -21    2   17      0.00      0.00
  -20    2   17     -0.10      0.00
   13    2   17      0.27      0.00
  -21    3   17      1.00      0.00
  -20    3   17     -0.18      0.00
   12    3   17      0.76      0.00
   13    3   17      0.27      0.00
  -20    4   17     -0.03      0.00
   12    4   17      0.11      0.00
   13    4   17     -0.72      0.00
  -20    5   17      0.19      0.00
   12    5   17      0.21      0.00
   13    5   17      0.25      0.00
  -20    6   17      0.05      0.00
  -19    6   17      0.76      0.00
   12    6   17     -0.21      0.00
  -20    7   17     -0.26      0.00
  -19    7   17      0.26      0.00
   11    7   17      0.42      0.00
   12    7   17     -0.83      0.00
  -19    8   17     -0.78      0.00
   11    8   17      0.27      0.00
   12    8   17     -0.09      0.00
  -19    9   17     -0.23      0.00
  -18    9   17      0.03      0.00
   10    9   17      0.92      0.00
   11    9   17     -0.65      0.00
  -18   10   17     -0.91      0.00
  -17   10   17      0.60      0.00
   10   10   17      0.13      0.00
   11   10   17      0.25      0.00
  -18   11   17      0.34      0.00
  -17   11   17      0.32      0.00
    9   11   17      0.40      0.00
   10   11   17     -0.37      0.00
  -17   12   17     -0.50      0.00
  -16   12   17     -0.21      0.00
    8   12   17     -0.17      0.00
    9   12   17     -0.26      0.00
  -16   13   17     -0.07      0.00
  -15   13   17     -0.23      0.00
    7   13   17      0.42      0.00
    8   13   17     -0.41      0.00
    9   13   17     -0.59      0.00
  -15   14   17      0.10      0.00
  -14   14   17     -0.38      0.00
    6   14   17      0.49      0.00
    7   14   17     -0.23      0.00
    8   14   17     -0.12      0.00
  -14   15   17     -0.16      0.00
  -13   15   17      0.20      0.00
    5   15   17      0.62      0.00
    6   15   17     -1.35      0.00
    7   15   17     -0.26      0.00
  -13   16   17      0.18      0.00
  -12   16   17     -0.32      0.00
  -11   16   17      0.63      0.00
    3   16   17      0.55      0.00
    4   16   17     -0.47      0.00
    5   16   17     -0.99      0.00
    6   16   17      0.51      0.00
  -12   17   17     -0.48      0.00
  -11   17   17     -0.83      0.00
  -10   17   17     -0.76      0.00
   -9   17   17      0.24      0.00
    1   17   17      0.99      0.00
    2   17   17     -0.84      0.00
    3   17   17      0.12      0.00
    4   17   17     -1.04      0.00
  -10   18   17      0.07      0.00
   -9   18   17      0.43      0.00
   -8   18   17      0.81      0.00
   -7   18   17     -0.41      0.00
   -6   18   17      0.50      0.00
   -5   18   17      0.67      0.00
   -4   18   17      0.76      0.00
   -3   18   17      0.20      0.00
   -2   18   17     -0.33      0.00
   -1   18   17      1.01      0.00
    0   18   17     -0.23      0.00
    1   18   17      0.79      0.00
    2   18   17     -0.44      0.00
   -7   19   17      0.15      0.00
   -6   19   17      0.99      0.00
   -5   19   17      0.54      0.00
   -4   19   17      0.16      0.00
   -3   19   17     -0.50      0.00
   -2   19   17      0.00      0.00
   -1   19   17      0.61      0.00
  -20    0   18      0.64      0.00
   12    0   18     -0.22      0.00
  -20    1   18      0.12      0.00
   12    1   18      1.22      0.00
  -20    2   18     -0.62      0.00
   12    2   18      0.05      0.00
  -20    3   18     -0.01      0.00
   11    3   18     -1.07      0.00
   12    3   18     -1.39      0.00
  -20    4   18      0.49      0.00
  -19    4   18     -0.45      0.00
   11    4   18     -0.39      0.00
   12    4   18      0.47      0.00
  -20    5   18      0.13      0.00
  -19    5   18      0.28      0.00
   11    5   18     -0.11      0.00
   12    5   18      1.14      0.00
  -20    6   18     -0.51      0.00
  -19    6   18     -0.14      0.00
   11    6   18      0.47      0.00
  -19    7   18      0.08      0.00
  -18    7   18      0.37      0.00
   10    7   18     -0.12      0.00
   11    7   18      1.03      0.00
  -19    8   18      0.02      0.00
  -18    8   18      0.59      0.00
   10    8   18     -0.10      0.00
   11    8   18     -0.14      0.00
  -18    9   18      0.24      0.00
  -17    9   18      0.41      0.00
    9    9   18     -0.22      0.00
   10    9   18      0.03      0.00
  -18   10   18     -0.54      0.00
  -17   10   18     -0.37      0.00
    9   10   18      0.52      0.00
   10   10   18     -0.62      0.00
  -17   11   18     -0.52      0.00
  -16   11   18     -0.10      0.00
    8   11   18      0.10      0.00
    9   11   18     -0.29      0.00
  -16   12   18      0.30      0.00
  -15   12   18     -0.08      0.00
    7   12   18      0.24      0.00
    8   12   18     -0.24      0.00
  -16   13   18     -0.10      0.00
  -15   13   18     -0.80      0.00
  -14   13   18      0.45      0.00
    6   13   18     -0.19      0.00
    7   13   18     -0.86      0.00
    8   13   18      0.29      0.00
  -15   14   18      0.19      0.00
  -14   14   18     -0.64      0.00
  -13   14   18     -0.06      0.00
    5   14   18     -1.14      0.00
    6   14   18     -0.90      0.00
    7   14   18      0.54      0.00
  -14   15   18     -0.44      0.00
  -13   15   18     -0.34      0.00
  -12   15   18     -0.07      0.00
    3   15   18     -0.87      0.00
    4   15   18     -0.61      0.00
    5   15   18      0.28      0.00
    6   15   18      0.11      0.00
  -12   16   18     -0.46      0.00
  -11   16   18      0.23      0.00
  -10   16   18      0.28      0.00
   -9   16   18      1.02      0.00
    1   16   18      0.83      0.00
    2   16   18     -0.01      0.00
    3   16   18      0.18      0.00
    4   16   18      0.56      0.00
  -11   17   18      0.02      0.00
  -10   17   18      0.13      0.00
   -9   17   18      0.04      0.00
   -8   17   18     -0.43      0.00
   -7   17   18     -0.31      0.00
   -6   17   18      0.42      0.00
   -5   17   18      0.46      0.00
   -4   17   18     -0.39      0.00
   -3   17   18     -0.49      0.00
   -2   17   18     -0.24      0.00
   -1   17   18      0.00      0.00
    0   17   18     -0.14      0.00
    1   17   18      0.46      0.00
    2   17   18     -0.82      0.00
   -8   18   18     -0.25      0.00
   -7   18   18     -0.28      0.00
   -6   18   18      0.04      0.00
   -5   18   18     -1.35      0.00
   -4   18   18     -0.39      0.00
   -3   18   18      0.05      0.00
   -2   18   18     -0.13      0.00
   -1   18   18      0.20      0.00
    0   18   18     -1.01      0.00
  -19    0   19      0.22      0.00
   11    0   19     -0.07      0.00
  -20    1   19      0.14      0.00
  -19    1   19      0.64      0.00
   11    1   19     -0.51      0.00
  -20    2   19     -0.65      0.00
  -19    2   19      0.01      0.00
   11    2   19     -0.02      0.00
  -20    3   19     -0.13      0.00
  -19    3   19     -0.71      0.00
   10    3   19      0.94      0.00
   11    3   19      1.45      0.00
  -20    4   19      0.48      0.00
  -19    4   19     -0.22      0.00
   10    4   19      0.82      0.00
   11    4   19     -0.02      0.00
  -19    5   19      0.48      0.00
   10    5   19     -0.15      0.00
   11    5   19     -1.75      0.00
  -19    6   19      0.19      0.00
  -18    6   19      0.82      0.00
   10    6   19     -1.01      0.00
   11    6   19      0.22      0.00
  -19    7   19      0.07      0.00
  -18    7   19      0.12      0.00
    9    7   19      0.20      0.00
   10    7   19     -0.47      0.00
  -18    8   19     -0.36      0.00
  -17    8   19     -0.05      0.00
    9    8   19     -0.27      0.00
   10    8   19      0.80      0.00
  -18    9   19     -0.02      0.00
  -17    9   19      0.30      0.00
    8    9   19     -0.23      0.00
    9    9   19      0.25      0.00
  -17   10   19      0.58      0.00
  -16   10   19      0.62      0.00
    8   10   19     -0.78      0.00
    9   10   19      0.65      0.00
  -17   11   19     -0.04      0.00
  -16   11   19     -0.67      0.00
  -15   11   19      0.36      0.00
    7   11   19     -0.70      0.00
    8   11   19      0.28      0.00
  -16   12   19     -0.08      0.00
  -15   12   19      0.10      0.00
  -14   12   19      1.15      0.00
    6   12   19     -0.64      0.00
    7   12   19      0.38      0.00
  -15   13   19     -0.14      0.00
  -14   13   19      0.65      0.00
  -13   13   19      0.89      0.00
    5   13   19     -0.18      0.00
    6   13   19      1.74      0.00
  -14   14   19     -0.40      0.00
  -13   14   19      0.53      0.00
  -12   14   19      0.56      0.00
    3   14   19     -0.10      0.00
    4   14   19      0.50      0.00
    5   14   19      1.22      0.00
  -13   15   19     -0.17      0.00
  -12   15   19      0.31      0.00
  -11   15   19      0.46      0.00
  -10   15   19      0.21      0.00
    1   15   19     -1.77      0.00
    2   15   19     -0.13      0.00
    3   15   19     -0.04      0.00
    4   15   19      0.76      0.00
  -11   16   19      0.27      0.00
  -10   16   19     -0.37      0.00
   -9   16   19     -0.01      0.00
   -8   16   19     -0.91      0.00
   -7   16   19      0.01      0.00
   -6   16   19     -1.25      0.00
   -3   16   19     -0.42      0.00
   -2   16   19      0.38      0.00
   -1   16   19     -0.08      0.00
    0   16   19     -0.99      0.00
    1   16   19     -0.86      0.00
    2   16   19     -0.57      0.00
    3   16   19      0.14      0.00
   -9   17   19      0.31      0.00
   -8   17   19      0.73      0.00
   -7   17   19     -0.03      0.00
   -6   17   19     -0.21      0.00
   -5   17   19     -0.24      0.00
   -4   17   19      0.38      0.00
   -3   17   19      0.69      0.00
   -2   17   19      0.01      0.00
   -1   17   19     -0.17      0.00
    0   17   19     -0.49      0.00
   10    0   20      0.70      0.00
  -19    1   20      0.28      0.00
   10    1   20     -0.52      0.00
  -19    2   20      0.08      0.00
   10    2   20     -0.37      0.00
  -19    3   20     -0.67      0.00
  -18    3   20      0.94      0.00
    9    3   20     -0.44      0.00
   10    3   20     -0.61      0.00
  -19    4   20      0.08      0.00
  -18    4   20     -0.27      0.00
    9    4   20     -0.16      0.00
   10    4   20     -0.01      0.00
  -19    5   20      0.45      0.00
  -18    5   20     -1.00      0.00
    9    5   20      0.18      0.00
   10    5   20      1.15      0.00
  -19    6   20     -0.29      0.00
  -18    6   20      0.10      0.00
    9    6   20      0.71      0.00
   10    6   20      0.01      0.00
  -18    7   20      0.44      0.00
  -17    7   20      0.45      0.00
    8    7   20     -0.55      0.00
    9    7   20     -0.13      0.00
  -18    8   20      0.31      0.00
  -17    8   20      0.74      0.00
    8    8   20     -0.30      0.00
    9    8   20     -1.07      0.00
  -17    9   20     -0.36      0.00
  -16    9   20      0.01      0.00
    7    9   20      0.21      0.00
    8    9   20     -0.09      0.00
  -17   10   20     -0.18      0.00
  -16   10   20      0.41      0.00
  -15   10   20      1.14      0.00
    6   10   20      0.85      0.00
    7   10   20      0.53      0.00
    8   10   20      0.17      0.00
  -16   11   20      0.05      0.00
  -15   11   20      0.60      0.00
  -14   11   20     -0.08      0.00
    5   11   20      1.00      0.00
    6   11   20      0.70      0.00
    7   11   20      0.37      0.00
  -15   12   20     -0.95      0.00
  -14   12   20     -0.08      0.00
  -13   12   20     -0.45      0.00
    4   12   20      0.63      0.00
    5   12   20      0.47      0.00
    6   12   20     -0.13      0.00
  -14   13   20     -0.24      0.00
  -13   13   20      0.36      0.00
  -12   13   20     -0.52      0.00
    3   13   20      0.55      0.00
    4   13   20      0.46      0.00
    5   13   20     -1.15      0.00
  -13   14   20      0.04      0.00
  -12   14   20      0.57      0.00
  -11   14   20     -0.82      0.00
  -10   14   20      0.06      0.00
    1   14   20     -0.64      0.00
    2   14   20      0.55      0.00
    3   14   20      0.24      0.00
    4   14   20     -0.79      0.00
  -11   15   20     -0.28      0.00
  -10   15   20     -0.43      0.00
   -9   15   20      0.43      0.00
   -8   15   20     -0.01      0.00
   -7   15   20      1.02      0.00
   -2   15   20      0.72      0.00
   -1   15   20     -1.29      0.00
    0   15   20      0.65      0.00
    1   15   20      0.29      0.00
    2   15   20      0.91      0.00
  -10   16   20     -0.09      0.00
   -9   16   20      0.56      0.00
   -8   16   20      0.15      0.00
   -7   16   20      0.83      0.00
   -6   16   20      0.23      0.00
   -5   16   20      1.27      0.00
   -4   16   20      0.83      0.00
   -3   16   20      0.09      0.00
   -2   16   20     -0.71      0.00
   -1   16   20      0.47      0.00
    0   16   20      0.81      0.00
    1   16   20      1.09      0.00
   -6   17   20      0.20      0.00
   -5   17   20     -0.21      0.00
   -4   17   20     -0.16      0.00
   -3   17   20     -0.10      0.00
  -19    0   21      0.37      0.00
    9    0   21     -0.46      0.00
  -19    1   21      0.61      0.00
  -18    1   21      0.35      0.00
    9    1   21      1.30      0.00
  -19    2   21     -0.18      0.00
  -18    2   21      0.75      0.00
    8    2   21      0.76      0.00
    9    2   21      0.21      0.00
  -19    3   21     -0.64      0.00
  -18    3   21     -0.47      0.00
    8    3   21      0.39      0.00
    9    3   21     -0.27      0.00
  -18    4   21     -0.78      0.00
  -17    4   21      0.80      0.00
    8    4   21     -0.74      0.00
    9    4   21     -0.02      0.00
  -18    5   21      0.11      0.00
  -17    5   21      0.58      0.00
    8    5   21     -0.28      0.00
    9    5   21     -0.41      0.00
  -18    6   21      0.50      0.00
  -17    6   21     -0.97      0.00
    7    6   21     -1.19      0.00
    8    6   21      0.13      0.00
  -17    7   21     -0.62      0.00
  -16    7   21     -0.36      0.00
    7    7   21      0.28      0.00
    8    7   21      0.40      0.00
  -17    8   21      0.58      0.00
  -16    8   21     -0.03      0.00
    6    8   21     -0.23      0.00
    7    8   21      1.20      0.00
    8    8   21      0.65      0.00
  -16    9   21      0.34      0.00
  -15    9   21     -0.98      0.00
    6    9   21     -0.09      0.00
    7    9   21      0.11      0.00
  -16   10   21     -0.34      0.00
  -15   10   21     -0.65      0.00
  -14   10   21     -0.94      0.00
    5   10   21      0.02      0.00
    6   10   21     -0.34      0.00
  -15   11   21      0.60      0.00
  -14   11   21      0.96      0.00
  -13   11   21     -0.56      0.00
    4   11   21     -0.60      0.00
    5   11   21     -0.19      0.00
    6   11   21     -0.59      0.00
  -14   12   21      0.99      0.00
  -13   12   21      0.57      0.00
  -12   12   21     -0.86      0.00
    2   12   21      0.47      0.00
    3   12   21      0.03      0.00
    4   12   21      0.06      0.00
    5   12   21     -0.15      0.00
  -13   13   21      0.54      0.00
  -12   13   21     -0.38      0.00
  -11   13   21     -0.76      0.00
  -10   13   21      0.15      0.00
    1   13   21      1.14      0.00
    2   13   21     -0.08      0.00
    3   13   21     -0.49      0.00
    4   13   21      0.23      0.00
  -12   14   21      0.86      0.00
  -11   14   21     -0.22      0.00
  -10   14   21      0.62      0.00
   -9   14   21      0.23      0.00
   -8   14   21      0.57      0.00
   -7   14   21      0.17      0.00
   -3   14   21     -0.35      0.00
   -2   14   21      0.18      0.00
   -1   14   21     -0.45      0.00
    0   14   21      1.05      0.00
    1   14   21      0.05      0.00
    2   14   21     -0.27      0.00
  -10   15   21     -0.19      0.00
   -9   15   21      0.33      0.00
   -8   15   21     -0.96      0.00
   -7   15   21     -0.40      0.00
   -6   15   21     -0.29      0.00
   -5   15   21      0.09      0.00
   -4   15   21      0.19      0.00
   -3   15   21     -0.98      0.00
   -2   15   21      0.94      0.00
   -1   15   21      0.33      0.00
    0   15   21      0.28      0.00
   -7   16   21     -0.42      0.00
   -6   16   21     -0.84      0.00
   -5   16   21     -0.31      0.00
   -4   16   21     -0.62      0.00
   -3   16   21      0.19      0.00
  -18    0   22     -0.80      0.00
    8    0   22     -0.35      0.00
  -18    1   22     -0.04      0.00
  -17    1   22     -0.48      0.00
    7    1   22      0.05      0.00
    8    1   22     -1.69      0.00
  -18    2   22      0.71      0.00
  -17    2   22      0.30      0.00
    7    2   22     -0.37      0.00
    8    2   22      0.52      0.00
  -18    3   22      0.20      0.00
  -17    3   22      0.85      0.00
    7    3   22      0.02      0.00
    8    3   22      0.68      0.00
  -18    4   22     -0.67      0.00
  -17    4   22     -0.32      0.00
    7    4   22      0.31      0.00
    8    4   22     -0.47      0.00
  -17    5   22     -0.48      0.00
  -16    5   22      0.14      0.00
    6    5   22     -0.42      0.00
    7    5   22     -0.22      0.00
    8    5   22      0.15      0.00
  -17    6   22     -0.14      0.00
  -16    6   22      0.44      0.00
    6    6   22      1.29      0.00
    7    6   22     -0.19      0.00
  -17    7   22      0.11      0.00
  -16    7   22     -0.32      0.00
  -15    7   22     -1.19      0.00
    5    7   22     -0.17      0.00
    6    7   22      0.27      0.00
    7    7   22     -0.05      0.00
  -16    8   22     -0.67      0.00
  -15    8   22     -0.11      0.00
    5    8   22     -0.03      0.00
    6    8   22     -1.12      0.00
  -16    9   22      0.57      0.00
  -15    9   22      0.97      0.00
  -14    9   22      0.65      0.00
    4    9   22      0.49      0.00
    5    9   22      0.15      0.00
    6    9   22     -0.25      0.00
  -15   10   22      0.47      0.00
  -14   10   22      0.18      0.00
  -13   10   22     -0.46      0.00
    3   10   22      0.56      0.00
    4   10   22     -0.53      0.00
    5   10   22      0.62      0.00
  -14   11   22     -0.47      0.00
  -13   11   22     -0.91      0.00
  -12   11   22      0.38      0.00
    2   11   22      0.00      0.00
    3   11   22      0.43      0.00
    4   11   22     -0.28      0.00
  -13   12   22      0.26      0.00
  -12   12   22     -0.80      0.00
  -11   12   22      0.58      0.00
  -10   12   22      0.33      0.00
    0   12   22      1.05      0.00
    1   12   22      0.05      0.00
    2   12   22     -0.24      0.00
    3   12   22     -0.23      0.00
  -12   13   22      0.00      0.00
  -11   13   22     -0.23      0.00
  -10   13   22      0.70      0.00
   -9   13   22     -0.48      0.00
   -8   13   22     -0.32      0.00
   -7   13   22     -0.55      0.00
   -6   13   22     -0.23      0.00
   -5   13   22      0.95      0.00
   -4   13   22     -0.74      0.00
   -3   13   22      0.27      0.00
   -2   13   22      0.27      0.00
   -1   13   22      0.82      0.00
    0   13   22     -0.18      0.00
    1   13   22     -0.14      0.00
    2   13   22     -0.02      0.00
  -10   14   22     -0.25      0.00
   -9   14   22     -0.27      0.00
   -8   14   22     -0.29      0.00
   -7   14   22      0.23      0.00
   -6   14   22      0.28      0.00
   -5   14   22     -0.78      0.00
   -4   14   22     -0.73      0.00
   -3   14   22     -0.60      0.00
   -2   14   22      1.05      0.00
   -1   14   22     -0.80      0.00
    0   14   22     -0.54      0.00
   -7   15   22      0.69      0.00
   -6   15   22      0.26      0.00
   -5   15   22     -0.46      0.00
   -4   15   22      0.18      0.00
   -3   15   22     -0.43      0.00
  -17    0   23     -0.45      0.00
    7    0   23      0.64      0.00
  -17    1   23     -0.32      0.00
  -16    1   23     -0.26      0.00
    6    1   23      0.47      0.00
    7    1   23      1.32      0.00
  -17    2   23      0.27      0.00
  -16    2   23     -0.05      0.00
    6    2   23     -0.05      0.00
    7    2   23     -0.90      0.00
  -17    3   23      0.40      0.00
  -16    3   23      0.41      0.00
    5    3   23     -0.01      0.00
    6    3   23     -1.11      0.00
    7    3   23     -0.49      0.00
  -17    4   23      0.21      0.00
  -16    4   23      0.25      0.00
    5    4   23      0.32      0.00
    6    4   23      0.30      0.00
    7    4   23      1.07      0.00
  -17    5   23     -0.10      0.00
  -16    5   23     -0.22      0.00
  -15    5   23      0.19      0.00
    5    5   23     -0.16      0.00
    6    5   23      1.22      0.00
  -16    6   23      0.01      0.00
  -15    6   23      0.86      0.00
    4    6   23     -0.10      0.00
    5    6   23     -0.45      0.00
    6    6   23     -0.09      0.00
  -16    7   23      0.11      0.00
  -15    7   23      0.28      0.00
  -14    7   23      1.62      0.00
    4    7   23      0.36      0.00
    5    7   23     -0.06      0.00
  -15    8   23     -0.44      0.00
  -14    8   23     -0.75      0.00
  -13    8   23     -0.64      0.00
    3    8   23     -0.29      0.00
    4    8   23      0.86      0.00
    5    8   23      0.25      0.00
  -14    9   23     -1.50      0.00
  -13    9   23      0.50      0.00
  -12    9   23     -0.96      0.00
    2    9   23      0.87      0.00
    3    9   23     -0.41      0.00
    4    9   23     -0.18      0.00
  -14   10   23      0.28      0.00
  -13   10   23     -0.46      0.00
  -12   10   23      0.21      0.00
  -11   10   23     -0.69      0.00
    1   10   23      0.61      0.00
    2   10   23      0.05      0.00
    3   10   23      0.33      0.00
  -13   11   23     -0.18      0.00
  -12   11   23      0.13      0.00
  -11   11   23      0.61      0.00
  -10   11   23      0.30      0.00
   -9   11   23      0.24      0.00
   -1   11   23      0.77      0.00
    0   11   23     -0.45      0.00
    1   11   23     -0.77      0.00
    2   11   23     -0.36      0.00
  -11   12   23      0.29      0.00
  -10   12   23     -0.17      0.00
   -9   12   23     -0.54      0.00
   -8   12   23      0.42      0.00
   -7   12   23      0.19      0.00
   -6   12   23      0.13      0.00
   -5   12   23     -0.76      0.00
   -4   12   23     -1.02      0.00
   -3   12   23      0.33      0.00
   -2   12   23     -0.78      0.00
   -1   12   23     -0.60      0.00
    0   12   23     -0.32      0.00
    1   12   23     -0.28      0.00
  -10   13   23      0.13      0.00
   -9   13   23     -0.25      0.00
   -8   13   23      0.56      0.00
   -7   13   23      0.57      0.00
   -6   13   23     -0.80      0.00
   -5   13   23     -0.11      0.00
   -4   13   23     -0.05      0.00
   -3   13   23      0.58      0.00
   -2   13   23     -0.38      0.00
   -1   13   23     -0.62      0.00
   -6   14   23      0.18      0.00
   -5   14   23      0.39      0.00
   -4   14   23      0.97      0.00
  -16    0   24      0.70      0.00
    4    0   24      0.36      0.00
    6    0   24     -0.25      0.00
  -16    1   24     -0.87      0.00
  -15    1   24     -0.06      0.00
    4    1   24      0.10      0.00
    5    1   24     -0.68      0.00
    6    1   24     -0.21      0.00
  -16    2   24     -0.51      0.00
  -15    2   24     -0.57      0.00
    4    2   24     -0.49      0.00
    5    2   24     -0.25      0.00
    6    2   24      0.52      0.00
  -16    3   24      0.48      0.00
  -15    3   24      0.19      0.00
    4    3   24     -0.78      0.00
    5    3   24      1.34      0.00
  -16    4   24      0.26      0.00
  -15    4   24      0.53      0.00
  -14    4   24      1.59      0.00
    3    4   24      0.06      0.00
    4    4   24      0.37      0.00
    5    4   24      0.00      0.00
  -16    5   24     -0.30      0.00
  -15    5   24      0.04      0.00
  -14    5   24     -1.06      0.00
    3    5   24      0.39      0.00
    4    5   24      0.95      0.00
    5    5   24     -1.07      0.00
  -15    6   24     -0.47      0.00
  -14    6   24     -1.54      0.00
  -13    6   24     -0.51      0.00
    2    6   24      0.01      0.00
    3    6   24      1.01      0.00
    4    6   24     -0.12      0.00
  -15    7   24     -0.46      0.00
  -14    7   24      0.68      0.00
  -13    7   24     -1.19      0.00
  -12    7   24      0.54      0.00
    2    7   24      0.28      0.00
    3    7   24     -0.09      0.00
    4    7   24     -0.54      0.00
  -14    8   24      0.73      0.00
  -13    8   24      0.76      0.00
  -12    8   24     -0.53      0.00
  -11    8   24     -0.10      0.00
    1    8   24      0.15      0.00
    2    8   24      0.01      0.00
    3    8   24     -1.20      0.00
  -13    9   24      0.97      0.00
  -12    9   24     -0.09      0.00
  -11    9   24      1.01      0.00
  -10    9   24      1.24      0.00
   -1    9   24     -1.53      0.00
    0    9   24     -0.36      0.00
    1    9   24     -0.43      0.00
    2    9   24     -0.55      0.00
  -12   10   24      0.91      0.00
  -11   10   24     -0.09      0.00
  -10   10   24     -1.00      0.00
   -9   10   24     -0.05      0.00
   -8   10   24     -0.65      0.00
   -7   10   24      0.75      0.00
   -6   10   24     -0.04      0.00
   -5   10   24     -0.13      0.00
   -4   10   24     -0.51      0.00
   -3   10   24     -0.79      0.00
   -2   10   24      0.64      0.00
   -1   10   24      0.34      0.00
    0   10   24     -0.75      0.00
    1   10   24     -0.31      0.00
  -11   11   24     -0.41      0.00
  -10   11   24     -0.68      0.00
   -9   11   24      0.02      0.00
   -8   11   24      0.72      0.00
   -7   11   24     -0.15      0.00
   -6   11   24      0.42      0.00
   -5   11   24     -0.02      0.00
   -4   11   24      0.70      0.00
   -3   11   24      0.82      0.00
   -2   11   24     -0.25      0.00
   -1   11   24      0.94      0.00
    0   11   24      0.55      0.00
   -9   12   24      0.14      0.00
   -8   12   24      0.09      0.00
   -7   12   24     -0.29      0.00
   -6   12   24      0.04      0.00
   -5   12   24      0.71      0.00
   -4   12   24      0.68      0.00
   -3   12   24      0.46      0.00
   -2   12   24     -0.02      0.00
  -15    0   25     -0.16      0.00
  -13    0   25     -1.27      0.00
    3    0   25     -0.60      0.00
  -15    1   25      0.51      0.00
  -14    1   25      0.11      0.00
  -13    1   25      2.13      0.00
    2    1   25      0.04      0.00
    3    1   25     -0.12      0.00
    4    1   25      0.49      0.00
  -15    2   25      0.03      0.00
  -14    2   25     -0.38      0.00
  -13    2   25      0.96      0.00
    2    2   25      0.18      0.00
    3    2   25      0.71      0.00
    4    2   25      0.46      0.00
  -15    3   25     -0.59      0.00
  -14    3   25     -0.39      0.00
  -13    3   25     -2.31      0.00
    2    3   25      0.15      0.00
    3    3   25      0.58      0.00
    4    3   25     -0.61      0.00
  -15    4   25     -0.10      0.00
  -14    4   25      0.16      0.00
  -13    4   25     -0.72      0.00
  -12    4   25     -0.71      0.00
    1    4   25     -0.57      0.00
    2    4   25      0.13      0.00
    3    4   25     -0.43      0.00
  -14    5   25      0.14      0.00
  -13    5   25      1.98      0.00
  -12    5   25     -0.38      0.00
    1    5   25      0.31      0.00
    2    5   25     -0.16      0.00
    3    5   25     -0.73      0.00
  -14    6   25      0.45      0.00
  -13    6   25      0.56      0.00
  -12    6   25      0.54      0.00
  -11    6   25      0.32      0.00
    0    6   25     -1.10      0.00
    1    6   25      0.23      0.00
    2    6   25     -0.72      0.00
    3    6   25     -0.08      0.00
  -13    7   25     -1.13      0.00
  -12    7   25      0.62      0.00
  -11    7   25      1.12      0.00
  -10    7   25      0.35      0.00
   -2    7   25     -2.00      0.00
   -1    7   25      1.29      0.00
    0    7   25      0.59      0.00
    1    7   25     -0.93      0.00
    2    7   25     -0.30      0.00
  -12    8   25     -0.39      0.00
  -11    8   25     -0.55      0.00
  -10    8   25     -0.37      0.00
   -9    8   25     -1.59      0.00
   -8    8   25      0.56      0.00
   -7    8   25      0.75      0.00
   -6    8   25      1.24      0.00
   -5    8   25      0.45      0.00
   -4    8   25     -0.64      0.00
   -3    8   25      0.57      0.00
   -2    8   25      1.13      0.00
   -1    8   25      0.71      0.00
    0    8   25      0.55      0.00
    1    8   25     -0.13      0.00
  -11    9   25     -0.83      0.00
  -10    9   25     -0.49      0.00
   -9    9   25      0.46      0.00
   -8    9   25      0.39      0.00
   -7    9   25      0.86      0.00
   -6    9   25      0.01      0.00
   -5    9   25      0.17      0.00
   -4    9   25      0.55      0.00
   -3    9   25      0.18      0.00
   -2    9   25      1.87      0.00
   -1    9   25     -0.44      0.00
    0    9   25      0.10      0.00
  -10   10   25      0.48      0.00
   -9   10   25      0.93      0.00
   -8   10   25     -0.53      0.00
   -7   10   25     -0.38      0.00
   -6   10   25     -0.46      0.00
   -5   10   25      0.23      0.00
   -4   10   25      0.29      0.00
   -3   10   25     -0.35      0.00
   -2   10   25     -0.43      0.00
   -1   10   25      0.08      0.00
   -8   11   25     -0.23      0.00
   -7   11   25     -0.65      0.00
   -6   11   25     -0.05      0.00
   -5   11   25     -0.54      0.00
   -4   11   25     -0.40      0.00
  -14    0   26      0.95      0.00
  -12    0   26     -1.13      0.00
    0    0   26      0.32      0.00
    2    0   26      0.73      0.00
  -14    1   26     -0.69      0.00
  -13    1   26      0.32      0.00
  -12    1   26     -1.32      0.00
  -11    1   26     -0.30      0.00
   -1    1   26     -0.06      0.00
    0    1   26      0.66      0.00
    1    1   26      0.23      0.00
    2    1   26     -0.08      0.00
  -14    2   26     -0.64      0.00
  -13    2   26      0.10      0.00
  -12    2   26      1.13      0.00
  -11    2   26     -0.24      0.00
   -1    2   26      0.85      0.00
    0    2   26     -0.48      0.00
    1    2   26      0.11      0.00
    2    2   26     -0.74      0.00
  -14    3   26      0.95      0.00
  -13    3   26     -0.48      0.00
  -12    3   26      1.12      0.00
  -11    3   26      0.66      0.00
  -10    3   26     -0.13      0.00
   -2    3   26     -0.68      0.00
   -1    3   26     -0.03      0.00
    0    3   26     -0.01      0.00
    1    3   26     -0.65      0.00
    2    3   26      0.12      0.00
  -13    4   26      0.10      0.00
  -12    4   26     -0.86      0.00
  -11    4   26      0.42      0.00
  -10    4   26      0.86      0.00
   -9    4   26      0.27      0.00
   -2    4   26     -1.04      0.00
   -1    4   26     -1.08      0.00
    0    4   26      0.57      0.00
    1    4   26      0.03      0.00
  -13    5   26      0.27      0.00
  -12    5   26     -0.53      0.00
  -11    5   26     -0.48      0.00
  -10    5   26      0.05      0.00
   -9    5   26     -0.46      0.00
   -8    5   26     -0.92      0.00
   -7    5   26      0.76      0.00
   -4    5   26      0.28      0.00
   -3    5   26     -1.40      0.00
   -2    5   26      1.18      0.00
   -1    5   26      0.47      0.00
    0    5   26     -0.17      0.00
    1    5   26      0.56      0.00
  -12    6   26      0.35      0.00
  -11    6   26     -0.11      0.00
  -10    6   26     -1.40      0.00
   -9    6   26     -0.41      0.00
   -8    6   26      0.62      0.00
   -7    6   26      1.28      0.00
   -6    6   26      1.27      0.00
   -5    6   26     -0.05      0.00
   -4    6   26      0.14      0.00
   -3    6   26      0.81      0.00
   -2    6   26      1.17      0.00
   -1    6   26      1.26      0.00
    0    6   26     -0.27      0.00
  -11    7   26      0.00      0.00
  -10    7   26     -0.03      0.00
   -9    7   26      0.38      0.00
   -8    7   26      0.49      0.00
   -7    7   26     -0.53      0.00
   -6    7   26     -0.02      0.00
   -5    7   26     -0.06      0.00
   -4    7   26     -0.03      0.00
   -3    7   26      1.55      0.00
   -2    7   26     -1.07      0.00
   -1    7   26     -0.48      0.00
    0    7   26      0.24      0.00
  -10    8   26      1.46      0.00
   -9    8   26      0.06      0.00
   -8    8   26     -0.48      0.00
   -7    8   26     -1.28      0.00
   -6    8   26     -1.02      0.00
   -5    8   26     -0.05      0.00
   -4    8   26     -0.13      0.00
   -3    8   26     -0.54      0.00
   -2    8   26     -0.95      0.00
   -8    9   26     -0.45      0.00
   -7    9   26      0.05      0.00
   -6    9   26     -0.24      0.00
   -5    9   26     -0.03      0.00
   -4    9   26     -0.10      0.00
    0    0    0      0.00      0.00
# SQUEEZE RESULTS (Version = 120716)
# Note: Data are Listed for all Voids in the P1 Unit Cell
# i.e. Centre of Gravity, Solvent Accessible Volume,
# Recovered number of Electrons in the Void and
# Details about the Squeezed Material
loop_
  _platon_squeeze_void_nr
  _platon_squeeze_void_average_x
  _platon_squeeze_void_average_y
  _platon_squeeze_void_average_z
  _platon_squeeze_void_volume
  _platon_squeeze_void_count_electrons
  _platon_squeeze_void_content
   1  0.079  0.235  0.558       214        38 ' '
   2 -0.079  0.765  0.442       214        38 ' '
   3  0.421  0.735  0.942       214        38 ' '
   4  0.579  0.265  0.058       214        38 ' '
# Missing Reflections Below sin(th)/lambda = 0.25
loop_
  _platon_missing_refln_index_h
  _platon_missing_refln_index_k
  _platon_missing_refln_index_l
  _platon_missing_refln_theta
    2    0    0     2.431
    1    1    0     1.638
    2    1    0     2.668
    0    2    0     2.198
    1    2    0     2.511
    0    4    0     4.398
    0    6    0     6.606
   -1    0    1     1.332
    1    0    1     1.761
   -2    1    1     2.598
   -1    1    1     1.726
    0    1    1     1.472
    1    1    1     2.076
   -1    2    1     2.570
    0    2    1     2.406
    1    2    1     2.817
   -4    0    2     4.712
   -2    0    2     2.664
    0    0    2     1.960
   -2    1    2     2.882
   -1    1    2     2.280
    0    1    2     2.247
    1    1    2     2.803
   -1    2    2     2.971
    0    2    2     2.945
   -3    0    3     3.998
    1    0    3     3.482
   -1    1    3     3.057
   -1    2    3     3.602
    1    2    3     4.119
    0    0    4     3.923
   -2    1    4     4.147
   -2    2    4     4.564
_platon_squeeze_void_probe_radius                  1.20
_platon_squeeze_details
)
TITL feoetppsbcl6_a.res in P-1 New: P21/n
CELL   17.4501   18.5354   21.6356     90.00    106.17     90.00
SPGR P21/n
# Solvent Accessible Volume =       854
# Electrons Found in S.A.V. =       153
# Note: Atoms in Void as Cxxx and Qxxx all others
C101 0.201 0.253 0.494 !       5.52 eA-3
C102 0.868 0.763 0.405 !       2.24 eA-3
C103 0.536 0.702 0.910 !       2.04 eA-3
C104 0.517 0.277 0.138 !       1.89 eA-3
Q105 0.658 0.234 0.867 !       1.85 eA-3
C106 0.688 0.239 0.054 !       1.85 eA-3
C107 0.486 0.314 0.062 !       1.68 eA-3
C108 0.964 0.767 0.478 !       1.58 eA-3
Q109 0.280 0.766 0.495 !       1.43 eA-3
Q110 0.850 1.000 0.339 !       1.32 eA-3
C111 0.874 0.671 0.457 !       1.27 eA-3
C112 0.030 0.842 0.486 !       1.21 eA-3
Q113 0.188 0.283 0.889 !       1.20 eA-3
Q114 0.455 0.234 0.543 !       0.91 eA-3
C115 0.075 0.266 0.518 !       0.84 eA-3
Q116 0.197 0.298 0.800 !       0.82 eA-3
Q117 0.474 0.747 0.156 !       0.73 eA-3
Q118 0.686 0.264 0.429 !       0.70 eA-3
Q119 0.698 0.364 0.415 !       0.67 eA-3
Q120 0.676 0.263 0.289 !       0.67 eA-3
Q121 0.832 0.280 0.443 !       0.67 eA-3
Q122 0.566 0.450 0.976 !       0.65 eA-3
Q123 0.009 0.549 0.096 !       0.62 eA-3
Q124 0.641 0.231 0.821 !       0.60 eA-3
Q125 0.861 0.750 0.213 !       0.59 eA-3
Q126 0.868 0.188 0.144 !       0.58 eA-3
Q127 0.076 0.281 0.881 !       0.53 eA-3
Q128 0.781 0.240 0.077 !       0.53 eA-3
Q129 0.371 0.514 0.993 !       0.53 eA-3
Q130 0.522 0.997 0.636 !       0.51 eA-3
Q131 0.326 0.248 0.553 !       0.51 eA-3
Q132 0.143 0.660 0.856 !       0.50 eA-3
Q133 0.593 0.036 0.661 !       0.50 eA-3
)
;
_shelx_fab_checksum              24553
loop_
_space_group_symop_operation_xyz
'x, y, z'
'-x+1/2, y+1/2, -z+1/2'
'-x, -y, -z'
'x-1/2, -y-1/2, z-1/2'
loop_
_atom_site_label
_atom_site_type_symbol
_atom_site_fract_x
_atom_site_fract_y
_atom_site_fract_z
_atom_site_U_iso_or_equiv
_atom_site_adp_type
_atom_site_occupancy
_atom_site_site_symmetry_order
_atom_site_calc_flag
_atom_site_refinement_flags_posn
_atom_site_refinement_flags_adp
Fe1 Fe 0.14323(3) 0.26714(3) 0.31997(3) 0.0188(2) Uani 1 1 d . .
Sb1 Sb 0.69877(2) 0.25886(2) 0.39899(2) 0.0428(2) Uani 1 1 d . .
Cl1 Cl 0.11304(8) 0.26930(6) 0.21346(5) 0.0329(3) Uani 1 1 d . .
Cl2 Cl 0.72020(12) 0.28010(16) 0.50976(8) 0.0821(7) Uani 1 1 d . .
Cl3 Cl 0.69393(10) 0.38471(8) 0.38137(9) 0.0596(4) Uani 1 1 d . .
Cl4 Cl 0.83862(13) 0.26127(10) 0.41305(14) 0.0744(6) Uani 1 1 d . .
Cl5 Cl 0.70342(15) 0.13336(12) 0.41454(17) 0.1077(10) Uani 1 1 d . .
Cl6 Cl 0.55882(10) 0.25822(10) 0.38338(9) 0.0564(4) Uani 1 1 d . .
Cl7 Cl 0.67703(18) 0.24325(12) 0.28696(10) 0.0888(8) Uani 1 1 d . .
Cl8 Cl 0.54640(14) 0.14358(14) 0.53922(11) 0.0938(7) Uani 1 1 d . .
Cl9 Cl 0.42349(13) 0.25369(11) 0.50099(12) 0.0727(6) Uani 1 1 d . .
N1 N 0.15290(19) 0.16008(17) 0.34203(16) 0.0193(6) Uani 1 1 d . U
N2 N 0.2643(2) 0.26916(17) 0.34518(17) 0.0196(7) Uani 1 1 d . .
N3 N 0.14912(19) 0.37258(17) 0.34986(16) 0.0198(7) Uani 1 1 d . .
N4 N 0.0325(2) 0.26475(18) 0.33344(19) 0.0225(8) Uani 1 1 d . .
C1 C 0.0955(3) 0.1192(2) 0.3581(2) 0.0259(7) Uani 1 1 d . U
C2 C 0.2219(2) 0.1219(2) 0.36239(18) 0.0199(6) Uani 1 1 d . U
C3 C 0.2899(3) 0.1411(2) 0.3415(2) 0.0265(6) Uani 1 1 d . U
C4 C 0.3014(2) 0.2119(2) 0.32323(19) 0.0214(6) Uani 1 1 d . U
C5 C 0.3009(2) 0.3296(2) 0.3322(2) 0.0241(7) Uani 1 1 d . U
C6 C 0.2897(2) 0.3966(2) 0.3615(2) 0.0260(6) Uani 1 1 d . U
C7 C 0.2190(2) 0.4094(2) 0.37823(19) 0.0224(7) Uani 1 1 d . U
C8 C 0.0905(2) 0.4070(2) 0.36828(19) 0.0223(7) Uani 1 1 d . U
C9 C 0.0080(2) 0.3921(2) 0.3381(2) 0.0252(7) Uani 1 1 d . U
C10 C -0.0168(2) 0.3239(2) 0.31364(19) 0.0217(7) Uani 1 1 d . U
C11 C -0.0132(2) 0.2053(3) 0.3110(2) 0.0274(7) Uani 1 1 d . U
C12 C 0.0136(3) 0.1354(3) 0.3322(2) 0.0339(8) Uani 1 1 d . U
C13 C 0.1322(3) 0.0579(2) 0.3963(3) 0.0331(8) Uani 1 1 d . U
C14 C 0.2112(2) 0.0595(2) 0.39942(19) 0.0235(7) Uani 1 1 d . U
C15 C 0.3551(2) 0.2398(2) 0.2893(2) 0.0225(7) Uani 1 1 d . U
C16 C 0.3550(2) 0.3129(2) 0.2946(2) 0.0241(7) Uani 1 1 d . U
C17 C 0.2030(2) 0.4633(2) 0.4220(2) 0.0239(7) Uani 1 1 d . U
C18 C 0.1229(2) 0.4617(2) 0.41562(19) 0.0238(7) Uani 1 1 d . U
C19 C -0.0923(2) 0.3009(2) 0.2703(2) 0.0251(7) Uani 1 1 d . U
C20 C -0.0899(2) 0.2272(2) 0.2681(2) 0.0266(8) Uani 1 1 d . U
C21 C 0.0938(3) 0.0083(3) 0.4339(3) 0.0480(10) Uani 1 1 d . U
H21A H 0.0386 -0.0027 0.4081 0.058 Uiso 1 1 calc R U
H21B H 0.1238 -0.0377 0.4421 0.058 Uiso 1 1 calc R U
C22 C 0.0919(5) 0.0410(5) 0.4966(4) 0.0777(16) Uani 1 1 d . U
H22A H 0.0666 0.0074 0.5198 0.117 Uiso 1 1 calc R U
H22B H 0.1466 0.0511 0.5225 0.117 Uiso 1 1 calc R U
H22C H 0.0614 0.0861 0.4886 0.117 Uiso 1 1 calc R U
C23 C 0.2750(3) 0.0108(2) 0.4398(2) 0.0311(9) Uani 1 1 d . U
H23A H 0.2497 -0.0325 0.4525 0.037 Uiso 1 1 calc R U
H23B H 0.3105 -0.0054 0.4139 0.037 Uiso 1 1 calc R U
C24 C 0.3234(5) 0.0485(4) 0.4988(3) 0.083(3) Uani 1 1 d . U
H24A H 0.3643 0.0156 0.5240 0.125 Uiso 1 1 calc R U
H24B H 0.3493 0.0909 0.4864 0.125 Uiso 1 1 calc R U
H24C H 0.2886 0.0639 0.5249 0.125 Uiso 1 1 calc R U
C25 C 0.3946(3) 0.1979(3) 0.2465(2) 0.0304(8) Uani 1 1 d . U
H25A H 0.4264 0.1580 0.2715 0.036 Uiso 1 1 calc R U
H25B H 0.4314 0.2301 0.2321 0.036 Uiso 1 1 calc R U
C26 C 0.3326(4) 0.1668(3) 0.1875(3) 0.0485(13) Uani 1 1 d . U
H26A H 0.3600 0.1401 0.1608 0.073 Uiso 1 1 calc R U
H26B H 0.2966 0.1343 0.2017 0.073 Uiso 1 1 calc R U
H26C H 0.3017 0.2063 0.1623 0.073 Uiso 1 1 calc R U
C27 C 0.3944(3) 0.3652(3) 0.2597(2) 0.0356(9) Uani 1 1 d . U
H27A H 0.4457 0.3447 0.2568 0.043 Uiso 1 1 calc R U
H27B H 0.4058 0.4108 0.2843 0.043 Uiso 1 1 calc R U
C28 C 0.3408(4) 0.3808(4) 0.1917(3) 0.0675(19) Uani 1 1 d . U
H28A H 0.3677 0.4148 0.1701 0.101 Uiso 1 1 calc R U
H28B H 0.3301 0.3357 0.1671 0.101 Uiso 1 1 calc R U
H28C H 0.2903 0.4017 0.1945 0.101 Uiso 1 1 calc R U
C29 C 0.2633(3) 0.5026(2) 0.4755(2) 0.0281(8) Uani 1 1 d . U
H29A H 0.2364 0.5414 0.4930 0.034 Uiso 1 1 calc R U
H29B H 0.3047 0.5249 0.4584 0.034 Uiso 1 1 calc R U
C30 C 0.3017(3) 0.4499(3) 0.5284(2) 0.0338(10) Uani 1 1 d . U
H30A H 0.3406 0.4753 0.5630 0.051 Uiso 1 1 calc R U
H30B H 0.2605 0.4283 0.5456 0.051 Uiso 1 1 calc R U
H30C H 0.3287 0.4118 0.5111 0.051 Uiso 1 1 calc R U
C31 C 0.0804(3) 0.5006(3) 0.4582(2) 0.0306(8) Uani 1 1 d . U
H31A H 0.1098 0.4913 0.5037 0.037 Uiso 1 1 calc R U
H31B H 0.0265 0.4795 0.4507 0.037 Uiso 1 1 calc R U
C32 C 0.0718(3) 0.5823(3) 0.4482(3) 0.0406(11) Uani 1 1 d . U
H32A H 0.0438 0.6025 0.4776 0.061 Uiso 1 1 calc R U
H32B H 0.1248 0.6042 0.4568 0.061 Uiso 1 1 calc R U
H32C H 0.0413 0.5924 0.4036 0.061 Uiso 1 1 calc R U
C33 C -0.1587(3) 0.3459(3) 0.2303(2) 0.0345(9) Uani 1 1 d . U
H33A H -0.2084 0.3170 0.2193 0.041 Uiso 1 1 calc R U
H33B H -0.1671 0.3877 0.2561 0.041 Uiso 1 1 calc R U
C34 C -0.1441(4) 0.3728(6) 0.1697(4) 0.100(4) Uani 1 1 d . U
H34A H -0.1897 0.4018 0.1459 0.149 Uiso 1 1 calc R U
H34B H -0.0957 0.4026 0.1802 0.149 Uiso 1 1 calc R U
H34C H -0.1371 0.3317 0.1433 0.149 Uiso 1 1 calc R U
C35 C -0.1503(3) 0.1802(3) 0.2234(3) 0.0456(12) Uani 1 1 d . U
H35A H -0.1994 0.2084 0.2044 0.055 Uiso 1 1 calc R U
H35B H -0.1642 0.1394 0.2477 0.055 Uiso 1 1 calc R U
C36 C -0.1179(4) 0.1516(5) 0.1704(4) 0.083(3) Uani 1 1 d . U
H36A H -0.1581 0.1210 0.1415 0.125 Uiso 1 1 calc R U
H36B H -0.1048 0.1920 0.1460 0.125 Uiso 1 1 calc R U
H36C H -0.0697 0.1231 0.1892 0.125 Uiso 1 1 calc R U
C37 C -0.04385(19) 0.07425(17) 0.32291(19) 0.0421(7) Uani 1 1 d G U
C38 C -0.03214(18) 0.0146(2) 0.28764(19) 0.0477(8) Uani 1 1 d G U
H38A H 0.0128 0.0128 0.2710 0.057 Uiso 1 1 calc R U
C39 C -0.0862(2) -0.04225(17) 0.27671(19) 0.0546(9) Uani 1 1 d G U
H39A H -0.0782 -0.0830 0.2526 0.066 Uiso 1 1 calc R U
C40 C -0.1519(2) -0.03952(19) 0.3010(2) 0.0593(9) Uani 1 1 d G U
H40A H -0.1888 -0.0784 0.2936 0.071 Uiso 1 1 calc R U
C41 C -0.16360(19) 0.0201(2) 0.3363(2) 0.0557(9) Uani 1 1 d G U
H41A H -0.2085 0.0220 0.3530 0.067 Uiso 1 1 calc R U
C42 C -0.1096(2) 0.07698(18) 0.34725(19) 0.0500(8) Uani 1 1 d G U
H42A H -0.1176 0.1177 0.3714 0.060 Uiso 1 1 calc R U
C43 C 0.34723(16) 0.08433(15) 0.33772(16) 0.0324(7) Uani 1 1 d G U
C44 C 0.42802(17) 0.09059(16) 0.36939(16) 0.0414(8) Uani 1 1 d G U
H44A H 0.4477 0.1331 0.3930 0.050 Uiso 1 1 calc R U
C45 C 0.47996(14) 0.0347(2) 0.36646(18) 0.0500(8) Uani 1 1 d G U
H45A H 0.5352 0.0389 0.3881 0.060 Uiso 1 1 calc R U
C46 C 0.45112(19) -0.02751(17) 0.3319(2) 0.0546(9) Uani 1 1 d G U
H46A H 0.4866 -0.0657 0.3299 0.066 Uiso 1 1 calc R U
C47 C 0.3703(2) -0.03377(15) 0.30019(18) 0.0507(8) Uani 1 1 d G U
H47A H 0.3506 -0.0763 0.2765 0.061 Uiso 1 1 calc R U
C48 C 0.31839(14) 0.02215(18) 0.30312(16) 0.0410(8) Uani 1 1 d G U
H48A H 0.2632 0.0179 0.2815 0.049 Uiso 1 1 calc R U
C49 C 0.35406(13) 0.45113(13) 0.37420(14) 0.0286(6) Uani 1 1 d G U
C50 C 0.33762(13) 0.52199(15) 0.35375(15) 0.0326(7) Uani 1 1 d G U
H50A H 0.2847 0.5357 0.3315 0.039 Uiso 1 1 calc R U
C51 C 0.39865(17) 0.57273(12) 0.36584(16) 0.0384(7) Uani 1 1 d G U
H51A H 0.3874 0.6212 0.3519 0.046 Uiso 1 1 calc R U
C52 C 0.47613(15) 0.55261(14) 0.39837(16) 0.0391(7) Uani 1 1 d G U
H52A H 0.5178 0.5873 0.4066 0.047 Uiso 1 1 calc R U
C53 C 0.49258(12) 0.48176(16) 0.41881(15) 0.0375(7) Uani 1 1 d G U
H53A H 0.5455 0.4680 0.4410 0.045 Uiso 1 1 calc R U
C54 C 0.43154(16) 0.43102(12) 0.40672(15) 0.0318(7) Uani 1 1 d G U
H54A H 0.4428 0.3826 0.4207 0.038 Uiso 1 1 calc R U
C55 C -0.04797(15) 0.45399(13) 0.33006(15) 0.0263(6) Uani 1 1 d G U
C56 C -0.11437(16) 0.45215(13) 0.35361(15) 0.0322(7) Uani 1 1 d G U
H56A H -0.1240 0.4111 0.3767 0.039 Uiso 1 1 calc R U
C57 C -0.16669(15) 0.51030(16) 0.34336(16) 0.0367(7) Uani 1 1 d G U
H57A H -0.2121 0.5090 0.3595 0.044 Uiso 1 1 calc R U
C58 C -0.15262(16) 0.57031(14) 0.30956(16) 0.0377(7) Uani 1 1 d G U
H58A H -0.1884 0.6101 0.3026 0.045 Uiso 1 1 calc R U
C59 C -0.08622(18) 0.57215(13) 0.28601(15) 0.0364(7) Uani 1 1 d G U
H59A H -0.0766 0.6132 0.2629 0.044 Uiso 1 1 calc R U
C60 C -0.03390(14) 0.51399(16) 0.29626(15) 0.0323(7) Uani 1 1 d G U
H60A H 0.0115 0.5152 0.2802 0.039 Uiso 1 1 calc R U
C61 C 0.5252(5) 0.2349(4) 0.5389(4) 0.069(2) Uani 1 1 d . .
H61A H 0.5588 0.2612 0.5163 0.083 Uiso 1 1 calc R U
H61B H 0.5390 0.2526 0.5839 0.083 Uiso 1 1 calc R U
loop_
_atom_site_aniso_label
_atom_site_aniso_U_11
_atom_site_aniso_U_22
_atom_site_aniso_U_33
_atom_site_aniso_U_23
_atom_site_aniso_U_13
_atom_site_aniso_U_12
Fe1 0.0178(4) 0.0155(4) 0.0216(4) -0.0008(2) 0.0029(3) -0.00056(19)
Sb1 0.0489(3) 0.0427(3) 0.0406(3) -0.00465(14) 0.0189(2) -0.01337(15)
Cl1 0.0469(7) 0.0258(6) 0.0215(6) -0.0001(4) 0.0024(5) 0.0000(4)
Cl2 0.0579(10) 0.151(2) 0.0343(8) 0.0003(10) 0.0070(7) -0.0286(12)
Cl3 0.0692(10) 0.0386(8) 0.0716(10) -0.0178(7) 0.0203(8) -0.0146(7)
Cl4 0.0597(11) 0.0678(12) 0.1102(17) 0.0067(10) 0.0479(12) -0.0046(8)
Cl5 0.0989(16) 0.0520(11) 0.192(3) 0.0368(15) 0.0734(18) -0.0034(10)
Cl6 0.0448(9) 0.0712(11) 0.0487(9) -0.0003(7) 0.0054(7) -0.0176(7)
Cl7 0.143(2) 0.0827(13) 0.0597(11) -0.0459(10) 0.0601(13) -0.0688(14)
Cl8 0.0951(15) 0.0923(16) 0.0772(13) 0.0247(12) -0.0040(11) 0.0124(12)
Cl9 0.0704(13) 0.0649(11) 0.0862(15) 0.0078(9) 0.0273(11) -0.0026(8)
N1 0.0235(15) 0.0118(14) 0.0206(16) -0.0016(12) 0.0031(12) 0.0030(11)
N2 0.0157(15) 0.0146(15) 0.0231(17) -0.0001(12) -0.0036(13) -0.0001(11)
N3 0.0208(15) 0.0151(15) 0.0211(16) -0.0029(12) 0.0017(12) -0.0006(12)
N4 0.0186(17) 0.0191(17) 0.032(2) -0.0002(14) 0.0100(15) 0.0000(12)
C1 0.0317(10) 0.0167(16) 0.033(2) -0.0014(12) 0.0147(14) 0.0057(9)
C2 0.0253(15) 0.0148(15) 0.0157(17) -0.0012(11) -0.0009(12) -0.0021(10)
C3 0.0298(13) 0.0283(11) 0.0193(18) 0.0002(12) 0.0032(13) -0.0069(11)
C4 0.0156(16) 0.0264(11) 0.0203(18) -0.0037(14) 0.0022(12) -0.0048(11)
C5 0.0195(17) 0.0251(14) 0.0261(19) 0.0026(13) 0.0036(12) 0.0021(11)
C6 0.0273(11) 0.0248(12) 0.0230(19) 0.0019(12) 0.0022(12) 0.0034(11)
C7 0.0237(13) 0.0156(17) 0.0235(18) -0.0007(12) -0.0009(13) 0.0013(11)
C8 0.0256(11) 0.0151(16) 0.0234(18) -0.0006(11) 0.0022(13) 0.0006(10)
C9 0.0246(11) 0.0261(11) 0.0227(19) -0.0019(11) 0.0032(12) -0.0008(9)
C10 0.0162(14) 0.0258(12) 0.0225(18) -0.0009(14) 0.0042(11) -0.0005(10)
C11 0.0125(14) 0.0343(12) 0.035(2) -0.0064(16) 0.0057(12) 0.0030(10)
C12 0.0316(12) 0.0370(12) 0.032(2) -0.0012(13) 0.0078(14) 0.0078(9)
C13 0.0268(12) 0.0097(16) 0.058(2) 0.0041(14) 0.0033(15) -0.0077(11)
C14 0.0305(12) 0.0179(17) 0.0216(18) 0.0024(12) 0.0064(12) 0.0019(12)
C15 0.0167(18) 0.0247(11) 0.0250(18) -0.0002(12) 0.0038(13) -0.0022(12)
C16 0.0217(17) 0.0247(11) 0.0249(18) 0.0009(12) 0.0045(13) -0.0024(13)
C17 0.0278(11) 0.0142(17) 0.0267(16) -0.0016(12) 0.0026(10) 0.0003(12)
C18 0.0288(11) 0.0189(16) 0.0214(17) -0.0026(12) 0.0032(12) 0.0000(12)
C19 0.0145(14) 0.0313(12) 0.0281(19) -0.0060(13) 0.0037(11) 0.0016(10)
C20 0.0113(15) 0.0307(12) 0.036(2) -0.0081(14) 0.0042(12) -0.0013(10)
C21 0.046(2) 0.035(3) 0.069(3) 0.0181(16) 0.026(2) -0.001(2)
C22 0.0816(19) 0.0821(19) 0.0740(17) 0.0009(10) 0.0294(11) -0.0041(10)
C23 0.0348(16) 0.026(2) 0.031(2) 0.0112(14) 0.0062(16) 0.0048(15)
C24 0.109(6) 0.060(4) 0.044(3) 0.010(3) -0.039(3) 0.005(4)
C25 0.032(2) 0.0294(18) 0.035(2) 0.0029(15) 0.0174(14) 0.0024(17)
C26 0.066(3) 0.051(3) 0.033(2) -0.013(2) 0.021(2) -0.011(3)
C27 0.046(3) 0.0258(17) 0.042(2) -0.0012(18) 0.0233(17) -0.0068(19)
C28 0.080(4) 0.065(4) 0.058(3) 0.040(3) 0.020(3) 0.002(4)
C29 0.0294(15) 0.0211(19) 0.0306(19) -0.0070(12) 0.0028(14) -0.0008(15)
C30 0.029(2) 0.034(2) 0.033(2) -0.0016(17) -0.0020(15) -0.0011(18)
C31 0.0335(19) 0.0289(18) 0.029(2) -0.0073(15) 0.0077(16) 0.0014(17)
C32 0.049(3) 0.0299(18) 0.043(3) -0.0065(19) 0.013(2) 0.012(2)
C33 0.0256(18) 0.0378(19) 0.032(2) -0.0020(18) -0.0051(14) 0.0041(16)
C34 0.059(4) 0.156(10) 0.084(5) 0.079(6) 0.020(4) 0.020(5)
C35 0.023(2) 0.044(2) 0.060(3) -0.022(2) -0.0041(16) -0.0051(18)
C36 0.068(4) 0.101(6) 0.070(4) -0.056(4) -0.001(3) 0.008(4)
C37 0.0390(10) 0.0404(10) 0.0453(12) 0.0010(8) 0.0093(8) 0.0013(8)
C38 0.0477(11) 0.0431(11) 0.0493(12) -0.0032(8) 0.0084(9) 0.0014(8)
C39 0.0534(12) 0.0492(11) 0.0581(13) -0.0037(9) 0.0101(9) -0.0032(8)
C40 0.0574(12) 0.0568(12) 0.0628(13) 0.0004(9) 0.0149(9) -0.0045(9)
C41 0.0518(11) 0.0559(12) 0.0601(13) 0.0029(9) 0.0168(9) -0.0052(8)
C42 0.0464(11) 0.0519(11) 0.0539(13) 0.0035(9) 0.0175(9) -0.0013(8)
C43 0.0349(8) 0.0320(9) 0.0320(11) 0.0048(8) 0.0122(8) -0.0013(7)
C44 0.0367(9) 0.0438(10) 0.0428(12) 0.0049(9) 0.0096(8) 0.0005(7)
C45 0.0457(10) 0.0526(11) 0.0521(13) 0.0039(9) 0.0143(8) 0.0071(7)
C46 0.0546(10) 0.0536(11) 0.0573(13) -0.0002(9) 0.0185(9) 0.0079(8)
C47 0.0551(10) 0.0466(11) 0.0521(13) -0.0042(9) 0.0179(8) 0.0059(8)
C48 0.0459(10) 0.0373(10) 0.0405(12) -0.0027(8) 0.0133(8) -0.0006(7)
C49 0.0295(8) 0.0287(8) 0.0278(11) -0.0006(8) 0.0082(8) 0.0002(7)
C50 0.0343(9) 0.0296(9) 0.0325(11) 0.0016(9) 0.0071(8) -0.0009(7)
C51 0.0390(10) 0.0345(9) 0.0402(12) 0.0019(9) 0.0087(8) -0.0042(7)
C52 0.0374(9) 0.0377(9) 0.0408(12) 0.0005(9) 0.0086(8) -0.0055(8)
C53 0.0338(9) 0.0378(10) 0.0396(12) 0.0001(9) 0.0080(8) -0.0033(7)
C54 0.0296(9) 0.0314(9) 0.0335(11) -0.0004(9) 0.0072(8) 0.0007(7)
C55 0.0255(9) 0.0268(9) 0.0252(11) -0.0015(7) 0.0045(8) -0.0004(7)
C56 0.0304(10) 0.0340(10) 0.0331(11) -0.0008(8) 0.0103(8) 0.0011(7)
C57 0.0341(10) 0.0375(11) 0.0394(12) -0.0014(8) 0.0118(9) 0.0041(7)
C58 0.0364(10) 0.0357(10) 0.0398(12) -0.0009(8) 0.0087(9) 0.0037(8)
C59 0.0363(10) 0.0329(10) 0.0386(12) 0.0035(8) 0.0080(8) 0.0027(8)
C60 0.0321(10) 0.0307(10) 0.0330(11) 0.0036(8) 0.0072(8) 0.0006(7)
C61 0.074(5) 0.084(6) 0.042(4) 0.003(3) 0.003(3) -0.018(4)
loop_
_atom_type_symbol
_atom_type_description
_atom_type_scat_dispersion_real
_atom_type_scat_dispersion_imag
_atom_type_scat_source
C C 0.0033 0.0016 'International Tables Vol C Tables 4.2.6.8 and 6.1.1.4'
H H 0.0000 0.0000 'International Tables Vol C Tables 4.2.6.8 and 6.1.1.4'
Cl Cl 0.1484 0.1585 'International Tables Vol C Tables 4.2.6.8 and 6.1.1.4'
Fe Fe 0.3463 0.8444 'International Tables Vol C Tables 4.2.6.8 and 6.1.1.4'
N N 0.0061 0.0033 'International Tables Vol C Tables 4.2.6.8 and 6.1.1.4'
Sb Sb -0.5866 1.5461 'International Tables Vol C Tables 4.2.6.8 and 6.1.1.4'
loop_
_geom_angle_atom_site_label_1
_geom_angle_atom_site_label_2
_geom_angle_atom_site_label_3
_geom_angle
N2 Fe1 N4 157.13(16)
N2 Fe1 N1 86.73(13)
N4 Fe1 N1 88.01(13)
N2 Fe1 N3 86.60(13)
N4 Fe1 N3 86.66(13)
N1 Fe1 N3 149.35(14)
N2 Fe1 Cl1 101.96(11)
N4 Fe1 Cl1 100.91(12)
N1 Fe1 Cl1 103.97(10)
N3 Fe1 Cl1 106.68(10)
Cl5 Sb1 Cl2 91.74(11)
Cl5 Sb1 Cl3 178.97(9)
Cl2 Sb1 Cl3 89.28(8)
Cl5 Sb1 Cl7 90.86(10)
Cl2 Sb1 Cl7 177.40(9)
Cl3 Sb1 Cl7 88.12(7)
Cl5 Sb1 Cl6 90.49(7)
Cl2 Sb1 Cl6 90.63(7)
Cl3 Sb1 Cl6 89.59(6)
Cl7 Sb1 Cl6 89.35(8)
Cl5 Sb1 Cl4 90.40(7)
Cl2 Sb1 Cl4 90.01(8)
Cl3 Sb1 Cl4 89.51(6)
Cl7 Sb1 Cl4 89.97(10)
Cl6 Sb1 Cl4 178.88(7)
C2 N1 C1 105.8(3)
C2 N1 Fe1 126.2(3)
C1 N1 Fe1 125.2(3)
C5 N2 C4 105.5(3)
C5 N2 Fe1 118.3(3)
C4 N2 Fe1 116.3(2)
C8 N3 C7 106.4(3)
C8 N3 Fe1 124.4(3)
C7 N3 Fe1 124.8(3)
C11 N4 C10 106.1(4)
C11 N4 Fe1 116.8(3)
C10 N4 Fe1 118.1(3)
N1 C1 C12 120.6(4)
N1 C1 C13 109.8(4)
C12 C1 C13 129.2(4)
N1 C2 C3 120.4(4)
N1 C2 C14 110.9(3)
C3 C2 C14 128.4(4)
C4 C3 C2 121.3(4)
C4 C3 C43 120.1(4)
C2 C3 C43 118.5(4)
C3 C4 N2 120.0(4)
C3 C4 C15 130.2(4)
N2 C4 C15 109.3(4)
N2 C5 C6 119.5(4)
N2 C5 C16 111.1(4)
C6 C5 C16 129.0(4)
C7 C6 C5 120.1(4)
C7 C6 C49 121.0(4)
C5 C6 C49 118.9(3)
N3 C7 C6 122.2(4)
N3 C7 C17 108.8(3)
C6 C7 C17 128.9(4)
N3 C8 C9 121.4(4)
N3 C8 C18 111.2(3)
C9 C8 C18 127.3(4)
C10 C9 C8 121.0(4)
C10 C9 C55 122.1(3)
C8 C9 C55 116.7(3)
C9 C10 N4 120.0(4)
C9 C10 C19 129.9(4)
N4 C10 C19 109.9(4)
N4 C11 C12 121.2(4)
N4 C11 C20 110.1(4)
C12 C11 C20 128.7(4)
C1 C12 C11 122.1(4)
C1 C12 C37 117.4(4)
C11 C12 C37 120.4(4)
C14 C13 C1 107.0(4)
C14 C13 C21 125.8(4)
C1 C13 C21 126.7(4)
C13 C14 C2 106.0(4)
C13 C14 C23 126.1(4)
C2 C14 C23 127.6(4)
C16 C15 C4 107.4(4)
C16 C15 C25 125.0(4)
C4 C15 C25 126.9(4)
C15 C16 C5 106.2(4)
C15 C16 C27 126.0(4)
C5 C16 C27 127.3(4)
C18 C17 C7 107.2(3)
C18 C17 C29 124.1(4)
C7 C17 C29 127.4(4)
C17 C18 C8 106.0(4)
C17 C18 C31 126.0(4)
C8 C18 C31 127.3(4)
C20 C19 C10 106.5(3)
C20 C19 C33 124.4(4)
C10 C19 C33 129.0(4)
C19 C20 C11 106.7(4)
C19 C20 C35 125.5(4)
C11 C20 C35 127.4(4)
C22 C21 C13 111.6(5)
C22 C21 H21A 109.3
C13 C21 H21A 109.3
C22 C21 H21B 109.3
C13 C21 H21B 109.3
H21A C21 H21B 108.0
C21 C22 H22A 109.5
C21 C22 H22B 109.5
H22A C22 H22B 109.5
C21 C22 H22C 109.5
H22A C22 H22C 109.5
H22B C22 H22C 109.5
C24 C23 C14 111.4(4)
C24 C23 H23A 109.3
C14 C23 H23A 109.3
C24 C23 H23B 109.3
C14 C23 H23B 109.3
H23A C23 H23B 108.0
C23 C24 H24A 109.5
C23 C24 H24B 109.5
H24A C24 H24B 109.5
C23 C24 H24C 109.5
H24A C24 H24C 109.5
H24B C24 H24C 109.5
C15 C25 C26 111.4(4)
C15 C25 H25A 109.3
C26 C25 H25A 109.3
C15 C25 H25B 109.3
C26 C25 H25B 109.3
H25A C25 H25B 108.0
C25 C26 H26A 109.5
C25 C26 H26B 109.5
H26A C26 H26B 109.5
C25 C26 H26C 109.5
H26A C26 H26C 109.5
H26B C26 H26C 109.5
C16 C27 C28 111.1(4)
C16 C27 H27A 109.4
C28 C27 H27A 109.4
C16 C27 H27B 109.4
C28 C27 H27B 109.4
H27A C27 H27B 108.0
C27 C28 H28A 109.5
C27 C28 H28B 109.5
H28A C28 H28B 109.5
C27 C28 H28C 109.5
H28A C28 H28C 109.5
H28B C28 H28C 109.5
C17 C29 C30 109.6(4)
C17 C29 H29A 109.8
C30 C29 H29A 109.8
C17 C29 H29B 109.8
C30 C29 H29B 109.8
H29A C29 H29B 108.2
C29 C30 H30A 109.5
C29 C30 H30B 109.5
H30A C30 H30B 109.5
C29 C30 H30C 109.5
H30A C30 H30C 109.5
H30B C30 H30C 109.5
C18 C31 C32 115.3(4)
C18 C31 H31A 108.4
C32 C31 H31A 108.4
C18 C31 H31B 108.4
C32 C31 H31B 108.4
H31A C31 H31B 107.5
C31 C32 H32A 109.5
C31 C32 H32B 109.5
H32A C32 H32B 109.5
C31 C32 H32C 109.5
H32A C32 H32C 109.5
H32B C32 H32C 109.5
C34 C33 C19 113.7(5)
C34 C33 H33A 108.8
C19 C33 H33A 108.8
C34 C33 H33B 108.8
C19 C33 H33B 108.8
H33A C33 H33B 107.7
C33 C34 H34A 109.5
C33 C34 H34B 109.5
H34A C34 H34B 109.5
C33 C34 H34C 109.5
H34A C34 H34C 109.5
H34B C34 H34C 109.5
C20 C35 C36 110.5(5)
C20 C35 H35A 109.5
C36 C35 H35A 109.5
C20 C35 H35B 109.5
C36 C35 H35B 109.5
H35A C35 H35B 108.1
C35 C36 H36A 109.5
C35 C36 H36B 109.5
H36A C36 H36B 109.5
C35 C36 H36C 109.5
H36A C36 H36C 109.5
H36B C36 H36C 109.5
C38 C37 C42 120.0
C38 C37 C12 118.8(3)
C42 C37 C12 121.1(3)
C37 C38 C39 120.0
C37 C38 H38A 120.0
C39 C38 H38A 120.0
C38 C39 C40 120.0
C38 C39 H39A 120.0
C40 C39 H39A 120.0
C41 C40 C39 120.0
C41 C40 H40A 120.0
C39 C40 H40A 120.0
C40 C41 C42 120.0
C40 C41 H41A 120.0
C42 C41 H41A 120.0
C41 C42 C37 120.0
C41 C42 H42A 120.0
C37 C42 H42A 120.0
C44 C43 C48 120.0
C44 C43 C3 121.7(3)
C48 C43 C3 118.3(3)
C45 C44 C43 120.0
C45 C44 H44A 120.0
C43 C44 H44A 120.0
C46 C45 C44 120.0
C46 C45 H45A 120.0
C44 C45 H45A 120.0
C45 C46 C47 120.0
C45 C46 H46A 120.0
C47 C46 H46A 120.0
C48 C47 C46 120.0
C48 C47 H47A 120.0
C46 C47 H47A 120.0
C47 C48 C43 120.0
C47 C48 H48A 120.0
C43 C48 H48A 120.0
C50 C49 C54 120.0
C50 C49 C6 120.5(2)
C54 C49 C6 119.5(2)
C51 C50 C49 120.0
C51 C50 H50A 120.0
C49 C50 H50A 120.0
C52 C51 C50 120.0
C52 C51 H51A 120.0
C50 C51 H51A 120.0
C51 C52 C53 120.0
C51 C52 H52A 120.0
C53 C52 H52A 120.0
C52 C53 C54 120.0
C52 C53 H53A 120.0
C54 C53 H53A 120.0
C53 C54 C49 120.0
C53 C54 H54A 120.0
C49 C54 H54A 120.0
C56 C55 C60 120.0
C56 C55 C9 121.8(2)
C60 C55 C9 118.2(2)
C55 C56 C57 120.0
C55 C56 H56A 120.0
C57 C56 H56A 120.0
C58 C57 C56 120.0
C58 C57 H57A 120.0
C56 C57 H57A 120.0
C59 C58 C57 120.0
C59 C58 H58A 120.0
C57 C58 H58A 120.0
C58 C59 C60 120.0
C58 C59 H59A 120.0
C60 C59 H59A 120.0
C59 C60 C55 120.0
C59 C60 H60A 120.0
C55 C60 H60A 120.0
Cl8 C61 Cl9 112.3(4)
Cl8 C61 H61A 109.1
Cl9 C61 H61A 109.1
Cl8 C61 H61B 109.1
Cl9 C61 H61B 109.1
H61A C61 H61B 107.9
loop_
_geom_bond_atom_site_label_1
_geom_bond_atom_site_label_2
_geom_bond_distance
Fe1 N2 2.029(3)
Fe1 N4 2.034(4)
Fe1 N1 2.037(3)
Fe1 N3 2.052(3)
Fe1 Cl1 2.2164(13)
Sb1 Cl5 2.349(2)
Sb1 Cl2 2.3536(18)
Sb1 Cl3 2.3613(17)
Sb1 Cl7 2.3643(19)
Sb1 Cl6 2.3704(18)
Sb1 Cl4 2.374(2)
Cl8 C61 1.732(9)
Cl9 C61 1.771(9)
N1 C2 1.360(5)
N1 C1 1.376(5)
N2 C5 1.358(5)
N2 C4 1.394(5)
N3 C8 1.356(5)
N3 C7 1.384(5)
N4 C11 1.367(6)
N4 C10 1.384(5)
C1 C12 1.414(6)
C1 C13 1.446(6)
C2 C3 1.428(6)
C2 C14 1.448(5)
C3 C4 1.402(6)
C3 C43 1.469(5)
C4 C15 1.437(6)
C5 C6 1.433(6)
C5 C16 1.441(6)
C6 C7 1.398(6)
C6 C49 1.479(5)
C7 C17 1.456(6)
C8 C9 1.431(6)
C8 C18 1.441(5)
C9 C10 1.392(6)
C9 C55 1.486(5)
C10 C19 1.453(5)
C11 C12 1.410(7)
C11 C20 1.457(6)
C12 C37 1.489(6)
C13 C14 1.363(6)
C13 C21 1.502(6)
C14 C23 1.508(6)
C15 C16 1.360(6)
C15 C25 1.513(6)
C16 C27 1.506(6)
C17 C18 1.367(6)
C17 C29 1.516(5)
C18 C31 1.516(6)
C19 C20 1.369(7)
C19 C33 1.493(6)
C20 C35 1.495(6)
C21 C22 1.495(10)
C21 H21A 0.9900
C21 H21B 0.9900
C22 H22A 0.9800
C22 H22B 0.9800
C22 H22C 0.9800
C23 C24 1.496(8)
C23 H23A 0.9900
C23 H23B 0.9900
C24 H24A 0.9800
C24 H24B 0.9800
C24 H24C 0.9800
C25 C26 1.538(7)
C25 H25A 0.9900
C25 H25B 0.9900
C26 H26A 0.9800
C26 H26B 0.9800
C26 H26C 0.9800
C27 C28 1.535(8)
C27 H27A 0.9900
C27 H27B 0.9900
C28 H28A 0.9800
C28 H28B 0.9800
C28 H28C 0.9800
C29 C30 1.512(6)
C29 H29A 0.9900
C29 H29B 0.9900
C30 H30A 0.9800
C30 H30B 0.9800
C30 H30C 0.9800
C31 C32 1.531(7)
C31 H31A 0.9900
C31 H31B 0.9900
C32 H32A 0.9800
C32 H32B 0.9800
C32 H32C 0.9800
C33 C34 1.489(9)
C33 H33A 0.9900
C33 H33B 0.9900
C34 H34A 0.9800
C34 H34B 0.9800
C34 H34C 0.9800
C35 C36 1.510(9)
C35 H35A 0.9900
C35 H35B 0.9900
C36 H36A 0.9800
C36 H36B 0.9800
C36 H36C 0.9800
C37 C38 1.3900
C37 C42 1.3900
C38 C39 1.3900
C38 H38A 0.9500
C39 C40 1.3900
C39 H39A 0.9500
C40 C41 1.3900
C40 H40A 0.9500
C41 C42 1.3900
C41 H41A 0.9500
C42 H42A 0.9500
C43 C44 1.3900
C43 C48 1.3900
C44 C45 1.3900
C44 H44A 0.9500
C45 C46 1.3900
C45 H45A 0.9500
C46 C47 1.3900
C46 H46A 0.9500
C47 C48 1.3900
C47 H47A 0.9500
C48 H48A 0.9500
C49 C50 1.3900
C49 C54 1.3900
C50 C51 1.3900
C50 H50A 0.9500
C51 C52 1.3900
C51 H51A 0.9500
C52 C53 1.3900
C52 H52A 0.9500
C53 C54 1.3900
C53 H53A 0.9500
C54 H54A 0.9500
C55 C56 1.3900
C55 C60 1.3900
C56 C57 1.3900
C56 H56A 0.9500
C57 C58 1.3900
C57 H57A 0.9500
C58 C59 1.3900
C58 H58A 0.9500
C59 C60 1.3900
C59 H59A 0.9500
C60 H60A 0.9500
C61 H61A 0.9900
C61 H61B 0.9900
loop_
_platon_squeeze_void_nr
_platon_squeeze_void_average_x
_platon_squeeze_void_average_y
_platon_squeeze_void_average_z
_platon_squeeze_void_volume
_platon_squeeze_void_count_electrons
_platon_squeeze_void_content
1 0.079 0.235 0.558 214 38 ' '
2 -0.079 0.765 0.442 214 38 ' '
3 0.421 0.735 0.942 214 38 ' '
4 0.579 0.265 0.058 214 38 ' '
