#------------------------------------------------------------------------------
#$Date: 2019-11-07 22:29:26 +0200 (Thu, 07 Nov 2019) $
#$Revision: 223800 $
#$URL: file:///home/coder/svn-repositories/cod/cif/7/70/00/7700027.cif $
#------------------------------------------------------------------------------
#
# This file is available in the Crystallography Open Database (COD),
# http://www.crystallography.net/
#
# All data on this site have been placed in the public domain by the
# contributors.
#
data_7700027
loop_
_publ_author_name
'Li, Qi'
'Luo, Yanping'
'Ding, Yue'
'Wang, Yina'
'Wang, Yuxin'
'Du, Hongbin'
'Yuan, Rongxin'
'Bao, Jianchun'
'Fang, Min'
'Wu, Yong'
_publ_section_title
;
 Charge, adsorption, water stability and bandgap tuning of an anionic
 Cd(ii) porphyrinic metal-organic framework.
;
_journal_issue                   24
_journal_name_full
'Dalton transactions (Cambridge, England : 2003)'
_journal_page_first              8678
_journal_page_last               8692
_journal_paper_doi               10.1039/c9dt00478e
_journal_volume                  48
_journal_year                    2019
_chemical_formula_moiety
Cd3.2(C48H26O8N4)2(NH2(CH3)2)1.6(H2O)2.5(C3H7NO)5
_chemical_formula_sum            'C114.2 H98.8 Cd3.2 N14.6 O23.5'
_chemical_formula_weight         2411.35
_space_group_crystal_system      monoclinic
_space_group_IT_number           15
_space_group_name_Hall           '-C 2yc'
_space_group_name_H-M_alt        'C 1 2/c 1'
_symmetry_space_group_name_Hall  '-C 2yc'
_symmetry_space_group_name_H-M   'C 1 2/c 1'
_atom_sites_solution_hydrogens   mixed
_audit_creation_method           SHELXL-2018/3
_audit_update_record
;
2019-04-26 deposited with the CCDC.    2019-05-17 downloaded from the CCDC.
;
_cell_angle_alpha                90
_cell_angle_beta                 95.351(8)
_cell_angle_gamma                90
_cell_formula_units_Z            2
_cell_length_a                   7.089(2)
_cell_length_b                   26.513(8)
_cell_length_c                   30.078(8)
_cell_measurement_reflns_used    9314
_cell_measurement_temperature    296(2)
_cell_measurement_theta_max      27.53
_cell_measurement_theta_min      2.55
_cell_volume                     5629(3)
_computing_cell_refinement       'SAINT (Bruker, 2005)'
_computing_data_collection       'APEX2 (Bruker, 2005)'
_computing_data_reduction        SAINT
_computing_molecular_graphics    SHELXTL
_computing_publication_material  SHELXTL
_computing_structure_refinement  'SHELXL-2018/3 (Sheldrick, 2018)'
_computing_structure_solution    'SHELXL-2018/3 (Sheldrick, 2018)'
_diffrn_ambient_temperature      296(2)
_diffrn_measured_fraction_theta_full 0.983
_diffrn_measured_fraction_theta_max 0.983
_diffrn_measurement_device_type  'Bruker APEX-II CCD'
_diffrn_measurement_method       '\f and \w scans'
_diffrn_radiation_type           MoK\a
_diffrn_radiation_wavelength     0.71073
_diffrn_reflns_av_R_equivalents  0.0628
_diffrn_reflns_av_unetI/netI     0.0382
_diffrn_reflns_Laue_measured_fraction_full 0.983
_diffrn_reflns_Laue_measured_fraction_max 0.983
_diffrn_reflns_limit_h_max       8
_diffrn_reflns_limit_h_min       -8
_diffrn_reflns_limit_k_max       31
_diffrn_reflns_limit_k_min       -31
_diffrn_reflns_limit_l_max       35
_diffrn_reflns_limit_l_min       -35
_diffrn_reflns_number            32793
_diffrn_reflns_point_group_measured_fraction_full 0.983
_diffrn_reflns_point_group_measured_fraction_max 0.983
_diffrn_reflns_theta_full        25.024
_diffrn_reflns_theta_max         25.024
_diffrn_reflns_theta_min         3.073
_exptl_absorpt_coefficient_mu    0.675
_exptl_crystal_colour            purple
_exptl_crystal_density_diffrn    1.423
_exptl_crystal_description       block
_exptl_crystal_F_000             2456
_exptl_crystal_size_max          0.280
_exptl_crystal_size_mid          0.250
_exptl_crystal_size_min          0.220
_refine_diff_density_max         1.267
_refine_diff_density_min         -0.933
_refine_diff_density_rms         0.124
_refine_ls_extinction_coef       0.0033(9)
_refine_ls_extinction_expression Fc^*^=kFc[1+0.001xFc^2^\l^3^/sin(2\q)]^-1/4^
_refine_ls_extinction_method     'SHELXL-2018/3 (Sheldrick 2018)'
_refine_ls_goodness_of_fit_ref   1.141
_refine_ls_hydrogen_treatment    constr
_refine_ls_matrix_type           full
_refine_ls_number_parameters     387
_refine_ls_number_reflns         4906
_refine_ls_number_restraints     190
_refine_ls_restrained_S_all      1.138
_refine_ls_R_factor_all          0.1075
_refine_ls_R_factor_gt           0.0951
_refine_ls_shift/su_max          0.009
_refine_ls_shift/su_mean         0.001
_refine_ls_structure_factor_coef Fsqd
_refine_ls_weighting_details
'w=1/[\s^2^(Fo^2^)+(0.1687P)^2^+18.6021P] where P=(Fo^2^+2Fc^2^)/3'
_refine_ls_weighting_scheme      calc
_refine_ls_wR_factor_gt          0.2695
_refine_ls_wR_factor_ref         0.2837
_reflns_Friedel_coverage         0.000
_reflns_number_gt                3749
_reflns_number_total             4906
_reflns_threshold_expression     'I > 2\s(I)'
_cod_data_source_file            c9dt00478e2.cif
_cod_data_source_block           2_sq
_cod_depositor_comments
'Adding full bibliography for 7700026--7700027.cif.'
_cod_original_cell_volume        5628(3)
_cod_original_formula_sum        'C114.20 H98.80 Cd3.20 N14.60 O23.50'
_cod_database_code               7700027
_shelx_shelxl_version_number     2018/3
_shelx_space_group_comment
;
The symmetry employed for this shelxl refinement is uniquely defined
by the following loop, which should always be used as a source of
symmetry information in preference to the above space-group names.
They are only intended as comments.
;
_shelx_estimated_absorpt_t_min   0.833
_shelx_estimated_absorpt_t_max   0.866
_shelx_res_file
;

TITL 2_a.res in C2/c
    2_sq.res
    created by SHELXL-2018/3 at 15:10:48 on 21-Apr-2019
CELL 0.71073 7.0888 26.5131 30.0778 90 95.351 90
ZERR 2 0.002 0.008 0.0082 0 0.008 0
LATT 7
SYMM -X,+Y,0.5-Z
SFAC C  H  N  O  Cd
UNIT 228.4 197.6 29.2 47 6.4
omit 0 6 3
omit 0 6 7
omit -1 1 4
omit 1 3 5
omit 1 1 0
omit 1 5 7
omit 0 8 9

eqiv $1 1-x, 1-y, 1-z
eqiv $2 1+x, 1-y, 0.5 +z
free cd1 C1_$2
free cd1 c1_$1
free cd1' c20
ABIN
omit    -1   1   2
omit     0   2   2
omit     0   6   0
omit     1   3   4
omit     0   2   7
omit     0   4   1
omit     0   2   3
omit    -1   3   1
omit     1   1   3
omit    -1   1   1
omit     0   0   4
omit     0   2   8
omit     1   1   2
omit     1   5   2
omit     1   1   4
omit     1   3   2
omit     1   5   1
omit    -3   5   9
omit     0   2   9

omit     0   4   2
omit     0   0   6
omit     2   4   6
omit     1   1   1
omit    0   4   6
omit     1   5   4
omit     0   6   1
omit     0   2   4
omit     0   0  10
omit    -2   8   7
omit     0  10   0
omit     1   3   1
omit    -1   3   5
omit    5   5  19
omit     1   7   6
omit     0   6   5
omit    -1   3   3
omit     4  12   0
omit     5   7  12
omit    -1   7   4
omit    1   3   0
omit    -2  12   6

omit    -1   5   1
omit     2   6   9
omit     2   6  13
omit    -2   2   8
omit     0   6  11
omit     0  10   7
omit     0   0  12
omit     0  12   3
omit     0   4  13
omit    -2   4   4
omit    -7   1  18
omit    -1   3   4
omit     0   4   9
omit     3   1   2
omit    -6   6   3
omit     0   4   3
omit    -1   1   9
omit     0  12   2
omit    -2   6   2
omit     0   6  16
omit     0   8   4
omit    -5  15  13
omit     0  10   1
omit     0   8   1
omit     0   6   2
omit     1   3  10
omit    -2   8  10
omit     1   5   5
omit     0  14   1

omit     1   1   9
omit    -4  12   5
omit    -2  12   8
omit     2  12  12
omit    -1   7   2

omit 0 50.05

L.S. 5 0   71

ACTA
BOND $H
FMAP 2
PLAN 20
exyz c8 c8'
eadp c8 c8'
MORE -1
dfix 1.49 .01 c1' c2'
sadi c1' c3' c1' c7'
sadi c1' o1' c1' o2'
size .27 .25 .22

omit 0 50.05
CONF
flat 0.1 c1' o1' o2' c2'
isor 0.01 o2' c15' c18'

isor .03 c14' c16' c17' c19'
isor .03 c14 c15 c16 c17 c18 c19 c20
isor .02 c1 c2 c3 c4 c5 c6 c7 o1 o2 c1' c2' c3' c4' c5' c6' c7' o1' o2'
size .28 .25 .22
TEMP 23

WGHT    0.168700   18.602100
EXTI    0.003312
FVAR       1.97997   0.70517   0.74129   0.45177   0.30068   0.35000
PART 1
C1    1   -0.088881    0.511778    0.309501    21.00000    0.10358    0.07046 =
         0.09347   -0.00322   -0.04563    0.01013
AFIX  66
C2    1   -0.110607    0.467595    0.339578    21.00000    0.07355    0.08290 =
         0.07847   -0.00109   -0.01958    0.01490
C3    1    0.029555    0.430834    0.344628    21.00000    0.06686    0.08713 =
         0.11837    0.01694    0.00172    0.01190
AFIX   3
H3A   2    0.138166    0.433037    0.327904    21.00000   -1.20000
AFIX  65
C4    1    0.012463    0.390876    0.373900    21.00000    0.07292    0.09251 =
         0.11847    0.01726    0.00863    0.03646
AFIX   3
H4A   2    0.109267    0.365487    0.377388    21.00000   -1.20000
AFIX  65
C5    1   -0.144791    0.387679    0.398122    21.00000    0.05595    0.11069 =
         0.07321   -0.01300   -0.01725    0.01556
C6    1   -0.284953    0.424441    0.393072    21.00000    0.08642    0.10739 =
         0.07906    0.01172    0.01189    0.04267
AFIX   3
H6A   2   -0.393579    0.422226    0.409798    21.00000   -1.20000
AFIX  65
C7    1   -0.267864    0.464399    0.363800    21.00000    0.09423    0.12888 =
         0.09743   -0.01994   -0.00455    0.03785
AFIX   3
H7A   2   -0.364678    0.489785    0.360309    21.00000   -1.20000
AFIX   0
O1    4   -0.231301    0.541561    0.299982    21.00000    0.09942    0.08216 =
         0.10729   -0.01713   -0.05019    0.02128
O2    4    0.068019    0.517183    0.295172    21.00000    0.09684    0.11037 =
         0.14092    0.01474   -0.00318    0.01539
C8    1   -0.158369    0.344078    0.428247    21.00000    0.10146    0.08824 =
         0.04710   -0.00557   -0.01947    0.02253
PART 2
C1'   1    0.129807    0.507136    0.314397   -21.00000    0.04609    0.08344 =
         0.09104    0.00791    0.01535   -0.02307
AFIX  66
C2'   1    0.061795    0.465881    0.342729   -21.00000    0.04995    0.09005 =
         0.05138   -0.00601   -0.00585   -0.01104
C3'   1    0.159132    0.420305    0.344914   -21.00000    0.06066    0.09642 =
         0.08270   -0.00710    0.01822    0.01233
AFIX   3
H3'A  2    0.265377    0.415536    0.327773   -21.00000   -1.20000
AFIX  65
C4'   1    0.102639    0.381638    0.371924   -21.00000    0.06473    0.08075 =
         0.07995    0.01974    0.01508    0.01672
AFIX   3
H4'A  2    0.169866    0.350157    0.373432   -21.00000   -1.20000
AFIX  65
C5'   1   -0.051192    0.388545    0.396749   -21.00000    0.02426    0.05334 =
         0.05854    0.00183   -0.00411   -0.00497
C6'   1   -0.148531    0.434120    0.394565   -21.00000    0.03332    0.06386 =
         0.05457    0.00876    0.01533    0.00378
AFIX   3
H6'A  2   -0.254784    0.438889    0.411700   -21.00000   -1.20000
AFIX  65
C7'   1   -0.092039    0.472789    0.367555   -21.00000    0.08084    0.07700 =
         0.05145    0.01672    0.03220   -0.00283
AFIX   3
H7'A  2   -0.159263    0.504271    0.366048   -21.00000   -1.20000
AFIX   0
O1'   4    0.006158    0.540435    0.308509   -21.00000    0.14529    0.12000 =
         0.04749    0.02482    0.04152   -0.00345
O2'   4    0.288558    0.501442    0.299700   -21.00000    0.08621    0.09991 =
         0.07676    0.06147   -0.04217   -0.02918
C8'   1   -0.158369    0.344078    0.428247   -21.00000    0.10146    0.08824 =
         0.04710   -0.00557   -0.01947    0.02253
PART 0
C9    1   -0.021313    0.337022    0.464829    11.00000    0.07930    0.09166 =
         0.06217   -0.01590   -0.01334   -0.00201
C10   1    0.154349    0.366651    0.475091    11.00000    0.13007    0.12359 =
         0.09335   -0.00613   -0.02315   -0.04547
AFIX  43
H10A  2    0.202280    0.392150    0.458136    11.00000   -1.20000
AFIX   0
C11   1    0.227666    0.348498    0.513992    11.00000    0.10131    0.13356 =
         0.07898   -0.01737   -0.02326   -0.04484
AFIX  43
H11A  2    0.337032    0.360699    0.529878    11.00000   -1.20000
AFIX   0
C12   1    0.117218    0.308036    0.528141    11.00000    0.05688    0.11042 =
         0.05736   -0.02639   -0.01438   -0.00198
C13   1    0.151738    0.280857    0.567915    11.00000    0.04548    0.13743 =
         0.03776   -0.02387   -0.01511    0.02581
PART 1
AFIX  66
C14   1    0.304328    0.292673    0.602703    31.00000    0.04683    0.08225 =
         0.04035   -0.01325   -0.01270    0.00716
C15   1    0.494323    0.284597    0.597014    31.00000    0.05231    0.12615 =
         0.06839   -0.05200   -0.00811    0.01577
AFIX  43
H15   2    0.527907    0.266388    0.572527    31.00000   -1.20000
AFIX  65
C16   1    0.634124    0.303735    0.627924    31.00000    0.05033    0.13715 =
         0.07453   -0.05494   -0.01271    0.03212
AFIX  43
H16   2    0.761243    0.298331    0.624118    31.00000   -1.20000
AFIX  65
C17   1    0.583930    0.330949    0.664523    31.00000    0.05242    0.06694 =
         0.04620   -0.01368   -0.01881    0.02499
C18   1    0.393936    0.339026    0.670213    31.00000    0.04927    0.09503 =
         0.03674   -0.02304    0.00587    0.00237
AFIX  43
H18   2    0.360354    0.357234    0.694700    31.00000   -1.20000
AFIX  65
C19   1    0.254133    0.319888    0.639303    31.00000    0.04442    0.10844 =
         0.05588   -0.02788   -0.00397    0.01171
AFIX  43
H19   2    0.127014    0.325291    0.643110    31.00000   -1.20000
PART 2
AFIX  66
C14'  1    0.311337    0.313815    0.597319   -31.00000    0.02889    0.03057 =
         0.03422   -0.00745   -0.00381    0.00858
C15'  1    0.499958    0.299839    0.596477   -31.00000    0.04686    0.06508 =
         0.05672   -0.02564    0.01600    0.01204
AFIX  43
H15'  2    0.534870    0.277840    0.574598   -31.00000   -1.20000
AFIX  65
C16'  1    0.636398    0.318743    0.628337   -31.00000    0.01924    0.09318 =
         0.04170   -0.02299   -0.00016    0.02142
AFIX  43
H16'  2    0.762598    0.309392    0.627774   -31.00000   -1.20000
AFIX  65
C17'  1    0.584219    0.351622    0.661039   -31.00000    0.02294    0.01661 =
         0.04277   -0.00809    0.01033    0.00228
C18'  1    0.395599    0.365599    0.661882   -31.00000    0.03058    0.06286 =
         0.06025   -0.00884   -0.00162   -0.00163
AFIX  43
H18'  2    0.360689    0.387597    0.683761   -31.00000   -1.20000
AFIX  65
C19'  1    0.259157    0.346695    0.630022   -31.00000    0.07804    0.10793 =
         0.08609   -0.05431    0.01110   -0.02840
AFIX  43
H19'  2    0.132957    0.356046    0.630586   -31.00000   -1.20000
PART 0
AFIX   0
C20   1    0.734461    0.359660    0.696187    11.00000    0.02662    0.14880 =
         0.03485   -0.02016   -0.00256    0.00755
C21   1    0.040694    0.241105    0.581633    11.00000    0.04926    0.12764 =
         0.03734   -0.02182   -0.01387    0.02563
C22   1    0.075923    0.214163    0.622421    11.00000    0.06727    0.17576 =
         0.04662   -0.00245   -0.02547    0.02901
AFIX  43
H22A  2    0.174679    0.219925    0.644421    11.00000   -1.20000
AFIX   0
C23   1   -0.059481    0.178874    0.623370    11.00000    0.10423    0.14048 =
         0.04530    0.00033   -0.01935    0.03826
AFIX  43
H23A  2   -0.071116    0.155959    0.646364    11.00000   -1.20000
AFIX   0
C24   1   -0.183601    0.182482    0.582805    11.00000    0.07216    0.09926 =
         0.04046   -0.00886   -0.01264    0.01352
PART 1
CD1   5    1.000000    0.417140    0.750000    40.50000    0.03108    0.05846 =
         0.02998    0.00000   -0.00325    0.00000
CD2   5    0.473363    0.455157    0.757153    51.00000    0.03389    0.07864 =
         0.04376   -0.00668    0.00208    0.00154
PART 0
N1    3   -0.032468    0.300541    0.496874    11.00000    0.05838    0.09182 =
         0.04389   -0.01313   -0.01535    0.00662
N2    3   -0.117396    0.220298    0.558937    11.00000    0.05517    0.10493 =
         0.03880   -0.01647   -0.01653    0.01420
AFIX  43
H2A   2   -0.166873    0.230057    0.533177    11.00000   -1.20000
AFIX   0
O3    4    0.905082    0.349607    0.693278    11.00000    0.04561    0.17186 =
         0.07343   -0.05097   -0.02000    0.01488
O4    4    0.683094    0.387553    0.726199    11.00000    0.04324    0.18897 =
         0.04322   -0.03880    0.00512   -0.01425
PART 2
CD1'  5    1.025728    0.399969    0.747037   -40.50000    0.01726    0.06997 =
         0.03098   -0.01410    0.00926   -0.00276
PART 0
HKLF 4




REM  2_a.res in C2/c
REM wR2 = 0.2837, GooF = S = 1.141, Restrained GooF = 1.138 for all data
REM R1 = 0.0951 for 3749 Fo > 4sig(Fo) and 0.1075 for all 4906 data
REM 387 parameters refined using 190 restraints

END

WGHT      0.1819     14.9589

REM Highest difference peak  1.267,  deepest hole -0.933,  1-sigma level  0.124
Q1    1   0.4050  0.4849  0.2811  11.00000  0.05    1.27
Q2    1   0.5498  0.4910  0.7905  11.00000  0.05    0.70
Q3    1   0.5311  0.3576  0.7401  11.00000  0.05    0.57
Q4    1   1.0752  0.3507  0.7284  11.00000  0.05    0.45
Q5    1   0.4676  0.4148  0.6945  11.00000  0.05    0.42
Q6    1  -0.1949  0.2283  0.4915  11.00000  0.05    0.42
Q7    1   1.0000  0.2459  0.7500  10.50000  0.05    0.41
Q8    1   0.0000  0.4989  0.2500  10.50000  0.05    0.38
Q9    1  -0.0850  0.1800  0.7184  11.00000  0.05    0.37
Q10   1  -0.3828  0.4919  0.3906  11.00000  0.05    0.37
Q11   1   0.0389  0.2119  0.7303  11.00000  0.05    0.36
Q12   1   0.8744  0.4608  0.7559  11.00000  0.05    0.36
Q13   1   0.0000  0.1993  0.7500  10.50000  0.05    0.36
Q14   1   0.5799  0.2866  0.5706  11.00000  0.05    0.36
Q15   1  -0.0457  0.4258  0.5344  11.00000  0.05    0.36
Q16   1   0.2060  0.2007  0.7227  11.00000  0.05    0.36
Q17   1   0.7783  0.3251  0.6101  11.00000  0.05    0.35
Q18   1  -0.1178  0.4624  0.4287  11.00000  0.05    0.35
Q19   1   0.7741  0.3214  0.5945  11.00000  0.05    0.35
Q20   1  -0.2762  0.5173  0.3613  11.00000  0.05    0.35
;
_shelx_res_checksum              54082
_shelx_fab_file
;
    2    0    0     -6.49      0.00
    4    0    0     -3.72      0.00
    6    0    0     -4.57      0.00
    8    0    0     -1.53      0.00
    3    1    0     -4.37      0.00
    5    1    0     -0.76      0.00
    7    1    0      0.49      0.00
    9    1    0      0.92      0.00
    2    2    0     -0.66      0.00
    4    2    0     -2.09      0.00
    6    2    0     -0.02      0.00
    8    2    0     -0.66      0.00
    1    3    0     -3.45      0.00
    3    3    0     -2.61      0.00
    5    3    0     -2.42      0.00
    7    3    0      0.32      0.00
    9    3    0     -2.33      0.00
    0    4    0     60.87      0.00
    2    4    0     11.52      0.00
    4    4    0     -3.83      0.00
    6    4    0     -0.44      0.00
    8    4    0      2.53      0.00
    1    5    0     -2.40      0.00
    3    5    0      2.79      0.00
    5    5    0     -3.99      0.00
    7    5    0     -0.84      0.00
    9    5    0      0.01      0.00
    0    6    0    -41.44      0.00
    2    6    0      1.49      0.00
    4    6    0     -0.13      0.00
    6    6    0      2.70      0.00
    8    6    0     -0.20      0.00
    1    7    0     11.38      0.00
    3    7    0      7.70      0.00
    5    7    0      5.76      0.00
    7    7    0      1.04      0.00
    9    7    0     -0.06      0.00
    0    8    0    -15.45      0.00
    2    8    0      7.84      0.00
    4    8    0      1.56      0.00
    6    8    0     -1.33      0.00
    8    8    0      0.59      0.00
    1    9    0     -3.07      0.00
    3    9    0      2.88      0.00
    5    9    0     -3.79      0.00
    7    9    0      1.10      0.00
    0   10    0    -14.15      0.00
    2   10    0      5.21      0.00
    4   10    0      1.29      0.00
    6   10    0      2.21      0.00
    8   10    0     -0.05      0.00
    1   11    0    -17.55      0.00
    3   11    0      1.06      0.00
    5   11    0      4.42      0.00
    7   11    0     -2.98      0.00
    0   12    0    -14.36      0.00
    2   12    0     -0.21      0.00
    4   12    0     -4.45      0.00
    6   12    0      2.46      0.00
    8   12    0      0.91      0.00
    1   13    0    -13.08      0.00
    3   13    0     -1.93      0.00
    5   13    0      1.16      0.00
    7   13    0      0.51      0.00
    0   14    0     -3.15      0.00
    2   14    0     -1.13      0.00
    4   14    0     -1.58      0.00
    6   14    0     -0.75      0.00
    8   14    0     -0.68      0.00
    1   15    0     -0.57      0.00
    3   15    0     -1.85      0.00
    5   15    0     -3.01      0.00
    7   15    0      1.37      0.00
    0   16    0      2.75      0.00
    2   16    0      1.78      0.00
    4   16    0     -1.64      0.00
    6   16    0     -2.06      0.00
    8   16    0     -0.37      0.00
    1   17    0      2.58      0.00
    3   17    0      2.29      0.00
    5   17    0      0.65      0.00
    7   17    0     -0.43      0.00
    0   18    0     -3.21      0.00
    2   18    0     -1.61      0.00
    4   18    0      3.33      0.00
    6   18    0     -3.13      0.00
    1   19    0     -0.49      0.00
    3   19    0      0.08      0.00
    5   19    0      4.65      0.00
    7   19    0      3.26      0.00
    0   20    0      4.30      0.00
    2   20    0     -3.79      0.00
    4   20    0      1.03      0.00
    6   20    0     -0.40      0.00
    1   21    0     -1.87      0.00
    3   21    0      3.83      0.00
    5   21    0      1.94      0.00
    7   21    0     -3.56      0.00
    0   22    0     -0.59      0.00
    2   22    0     -0.87      0.00
    4   22    0      1.61      0.00
    6   22    0     -0.83      0.00
    1   23    0     -0.43      0.00
    3   23    0      1.61      0.00
    5   23    0      4.48      0.00
    0   24    0     -2.52      0.00
    2   24    0      0.09      0.00
    4   24    0     -1.98      0.00
    6   24    0      2.76      0.00
    1   25    0     -2.01      0.00
    3   25    0     -1.35      0.00
    5   25    0      0.63      0.00
    0   26    0      4.13      0.00
    2   26    0      0.70      0.00
    4   26    0     -6.04      0.00
    6   26    0      2.62      0.00
    1   27    0     -0.84      0.00
    3   27    0      0.35      0.00
    5   27    0     -1.28      0.00
    0   28    0      0.50      0.00
    2   28    0      1.19      0.00
    4   28    0     -0.55      0.00
    1   29    0      1.39      0.00
    3   29    0      0.93      0.00
    0   30    0      0.40      0.00
    2   30    0      2.45      0.00
    4   30    0     -1.57      0.00
    1   31    0      0.98      0.00
    3   31    0      0.68      0.00
    0   32    0      0.19      0.00
    2   32    0     -0.41      0.00
    1   33    0      0.56      0.00
    0   34    0     -2.89      0.00
   -9    1    1      2.90      0.00
   -7    1    1      1.17      0.00
   -5    1    1     -0.48      0.00
   -3    1    1     -4.06      0.00
   -1    1    1     64.46      0.00
    1    1    1    -27.26      0.00
    3    1    1     -2.21      0.00
    5    1    1     -0.58      0.00
    7    1    1      0.31      0.00
    9    1    1      1.89      0.00
   -8    2    1     -0.45      0.00
   -6    2    1      1.51      0.00
   -4    2    1     -4.37      0.00
   -2    2    1     -3.88      0.00
    2    2    1      7.28      0.00
    4    2    1      0.05      0.00
    6    2    1      2.45      0.00
    8    2    1     -0.19      0.00
   -9    3    1      1.05      0.00
   -7    3    1     -0.78      0.00
   -5    3    1      0.62      0.00
   -3    3    1      3.76      0.00
   -1    3    1     88.59      0.00
    1    3    1    -51.76      0.00
    3    3    1      5.75      0.00
    5    3    1      0.41      0.00
    7    3    1      0.86      0.00
    9    3    1     -2.42      0.00
   -8    4    1     -0.91      0.00
   -6    4    1     -2.91      0.00
   -4    4    1     -1.45      0.00
   -2    4    1      5.15      0.00
    0    4    1   -121.86      0.00
    2    4    1      4.83      0.00
    4    4    1      3.37      0.00
    6    4    1      1.18      0.00
    8    4    1      0.28      0.00
   -9    5    1      0.31      0.00
   -7    5    1     -2.44      0.00
   -5    5    1     -6.84      0.00
   -3    5    1      0.72      0.00
   -1    5    1     46.32      0.00
    1    5    1    -45.53      0.00
    3    5    1     -6.98      0.00
    5    5    1      2.98      0.00
    7    5    1      0.06      0.00
    9    5    1     -2.55      0.00
   -8    6    1      0.04      0.00
   -6    6    1      0.04      0.00
   -4    6    1     -0.45      0.00
   -2    6    1      4.02      0.00
    0    6    1    -26.41      0.00
    2    6    1     -2.79      0.00
    4    6    1     -0.41      0.00
    6    6    1      7.00      0.00
    8    6    1      2.04      0.00
   -9    7    1     -1.60      0.00
   -7    7    1     -2.09      0.00
   -5    7    1      0.71      0.00
   -3    7    1      4.53      0.00
   -1    7    1     -9.04      0.00
    1    7    1    -26.46      0.00
    3    7    1      7.08      0.00
    5    7    1      3.97      0.00
    7    7    1     -0.63      0.00
   -8    8    1     -2.04      0.00
   -6    8    1     -3.35      0.00
   -4    8    1      0.76      0.00
   -2    8    1      1.27      0.00
    0    8    1     -0.56      0.00
    2    8    1      0.53      0.00
    4    8    1     -2.19      0.00
    6    8    1      3.63      0.00
    8    8    1      0.56      0.00
   -7    9    1      1.15      0.00
   -5    9    1      1.78      0.00
   -3    9    1     -5.93      0.00
   -1    9    1      3.61      0.00
    1    9    1      4.97      0.00
    3    9    1      3.03      0.00
    5    9    1      3.36      0.00
    7    9    1      2.73      0.00
   -8   10    1     -1.09      0.00
   -6   10    1     -5.42      0.00
   -4   10    1      3.18      0.00
   -2   10    1      0.07      0.00
    0   10    1     14.05      0.00
    2   10    1      8.22      0.00
    4   10    1     -1.95      0.00
    6   10    1     -0.20      0.00
    8   10    1      1.26      0.00
   -7   11    1     -0.54      0.00
   -5   11    1     -4.28      0.00
   -3   11    1      0.75      0.00
   -1   11    1      5.93      0.00
    1   11    1      6.16      0.00
    3   11    1      7.84      0.00
    5   11    1     -4.90      0.00
    7   11    1      2.05      0.00
   -8   12    1     -1.88      0.00
   -6   12    1     -2.15      0.00
   -4   12    1      1.98      0.00
   -2   12    1     -1.08      0.00
    0   12    1      3.57      0.00
    2   12    1      6.05      0.00
    4   12    1      2.04      0.00
    6   12    1      2.43      0.00
    8   12    1      0.93      0.00
   -7   13    1     -2.72      0.00
   -5   13    1      2.04      0.00
   -3   13    1     -0.56      0.00
   -1   13    1     -4.92      0.00
    1   13    1      0.82      0.00
    3   13    1      0.63      0.00
    5   13    1      1.92      0.00
    7   13    1      1.00      0.00
   -8   14    1     -1.09      0.00
   -6   14    1     -0.47      0.00
   -4   14    1     -0.51      0.00
   -2   14    1     -3.48      0.00
    0   14    1     -6.02      0.00
    2   14    1      0.73      0.00
    4   14    1      0.34      0.00
    6   14    1     -0.41      0.00
    8   14    1     -0.22      0.00
   -7   15    1     -2.21      0.00
   -5   15    1      0.63      0.00
   -3   15    1      1.47      0.00
   -1   15    1     -3.82      0.00
    1   15    1     -2.31      0.00
    3   15    1     -0.91      0.00
    5   15    1     -0.28      0.00
    7   15    1      2.06      0.00
   -8   16    1      1.92      0.00
   -6   16    1      2.24      0.00
   -4   16    1      0.13      0.00
   -2   16    1     -1.89      0.00
    0   16    1      0.21      0.00
    2   16    1     -1.29      0.00
    4   16    1     -1.11      0.00
    6   16    1      0.52      0.00
    8   16    1      0.22      0.00
   -7   17    1     -1.05      0.00
   -5   17    1     -3.82      0.00
   -3   17    1      0.74      0.00
   -1   17    1     -0.96      0.00
    1   17    1      3.42      0.00
    3   17    1     -2.27      0.00
    5   17    1     -1.96      0.00
    7   17    1     -1.11      0.00
   -6   18    1     -0.36      0.00
   -4   18    1      1.72      0.00
   -2   18    1      3.15      0.00
    0   18    1      3.73      0.00
    2   18    1      0.38      0.00
    4   18    1      0.05      0.00
    6   18    1     -1.29      0.00
   -7   19    1      0.87      0.00
   -5   19    1      0.93      0.00
   -3   19    1     -0.54      0.00
   -1   19    1     -1.87      0.00
    1   19    1      4.02      0.00
    3   19    1      1.27      0.00
    5   19    1      3.03      0.00
    7   19    1      1.19      0.00
   -6   20    1      0.57      0.00
   -4   20    1      1.14      0.00
   -2   20    1      0.09      0.00
    0   20    1     -0.03      0.00
    2   20    1     -3.91      0.00
    4   20    1     -2.78      0.00
    6   20    1      0.30      0.00
   -7   21    1     -0.10      0.00
   -5   21    1      1.69      0.00
   -3   21    1     -4.45      0.00
   -1   21    1     -2.88      0.00
    1   21    1     -1.21      0.00
    3   21    1      1.32      0.00
    5   21    1     -0.42      0.00
    7   21    1      1.78      0.00
   -6   22    1      0.94      0.00
   -4   22    1     -0.52      0.00
   -2   22    1      2.27      0.00
    0   22    1      0.22      0.00
    2   22    1     -0.21      0.00
    4   22    1     -1.38      0.00
    6   22    1      0.84      0.00
   -5   23    1      0.56      0.00
   -3   23    1     -0.25      0.00
   -1   23    1     -0.85      0.00
    1   23    1     -2.51      0.00
    3   23    1      1.16      0.00
    5   23    1     -4.51      0.00
   -6   24    1      0.07      0.00
   -4   24    1      0.82      0.00
   -2   24    1     -0.57      0.00
    0   24    1     -2.22      0.00
    2   24    1     -1.64      0.00
    4   24    1      1.87      0.00
    6   24    1     -1.93      0.00
   -5   25    1      1.79      0.00
   -3   25    1      0.27      0.00
   -1   25    1      0.16      0.00
    1   25    1     -2.05      0.00
    3   25    1     -1.55      0.00
    5   25    1      1.44      0.00
   -4   26    1     -1.60      0.00
   -2   26    1      0.06      0.00
    0   26    1     -2.78      0.00
    2   26    1     -0.94      0.00
    4   26    1     -1.35      0.00
    6   26    1     -2.16      0.00
   -5   27    1     -1.15      0.00
   -3   27    1     -0.05      0.00
   -1   27    1      0.49      0.00
    1   27    1     -3.75      0.00
    3   27    1     -1.77      0.00
    5   27    1     -1.01      0.00
   -4   28    1     -1.01      0.00
   -2   28    1     -1.41      0.00
    0   28    1     -0.72      0.00
    2   28    1     -0.92      0.00
    4   28    1     -1.84      0.00
   -3   29    1      0.95      0.00
   -1   29    1      1.04      0.00
    1   29    1     -1.11      0.00
    3   29    1     -0.24      0.00
   -4   30    1      1.39      0.00
   -2   30    1     -0.29      0.00
    0   30    1     -1.14      0.00
    2   30    1      0.48      0.00
    4   30    1     -0.19      0.00
   -3   31    1      0.33      0.00
   -1   31    1     -0.17      0.00
    1   31    1      1.24      0.00
    3   31    1     -1.12      0.00
   -2   32    1     -2.00      0.00
    0   32    1      2.25      0.00
    2   32    1      0.24      0.00
   -1   33    1     -1.36      0.00
    1   33    1      0.58      0.00
    0   34    1     -0.20      0.00
   -8    0    2     -0.81      0.00
   -6    0    2     -0.24      0.00
   -4    0    2      5.74      0.00
   -2    0    2    -13.22      0.00
    2    0    2    -10.83      0.00
    4    0    2      2.21      0.00
    6    0    2      0.39      0.00
    8    0    2     -0.69      0.00
   -9    1    2     -2.66      0.00
   -7    1    2     -0.53      0.00
   -5    1    2      0.20      0.00
   -3    1    2      1.82      0.00
   -1    1    2     36.50      0.00
    1    1    2    -93.68      0.00
    3    1    2     -7.58      0.00
    5    1    2     -3.09      0.00
    7    1    2     -1.99      0.00
    9    1    2     -1.60      0.00
   -8    2    2      1.00      0.00
   -6    2    2     -3.17      0.00
   -4    2    2     -3.73      0.00
   -2    2    2     -1.55      0.00
    0    2    2    264.61      0.00
    2    2    2     -2.11      0.00
    4    2    2     -1.90      0.00
    6    2    2     -3.58      0.00
    8    2    2     -0.01      0.00
   -9    3    2      1.08      0.00
   -7    3    2      1.55      0.00
   -5    3    2     -0.84      0.00
   -3    3    2     -0.55      0.00
   -1    3    2     24.05      0.00
    1    3    2    -33.74      0.00
    3    3    2     -0.65      0.00
    5    3    2     -2.92      0.00
    7    3    2     -0.93      0.00
    9    3    2     -0.34      0.00
   -8    4    2     -1.65      0.00
   -6    4    2     -0.73      0.00
   -4    4    2     -1.09      0.00
   -2    4    2     13.47      0.00
    0    4    2     40.19      0.00
    2    4    2      0.44      0.00
    4    4    2     -5.88      0.00
    6    4    2      2.69      0.00
    8    4    2     -0.41      0.00
   -9    5    2     -0.04      0.00
   -7    5    2      1.70      0.00
   -5    5    2     -0.04      0.00
   -3    5    2     -0.79      0.00
   -1    5    2     -7.49      0.00
    1    5    2     23.00      0.00
    3    5    2      8.05      0.00
    5    5    2      2.06      0.00
    7    5    2      0.43      0.00
    9    5    2     -1.72      0.00
   -8    6    2      0.44      0.00
   -6    6    2     -1.36      0.00
   -4    6    2     -0.97      0.00
   -2    6    2     20.26      0.00
    0    6    2     -5.85      0.00
    2    6    2      6.05      0.00
    4    6    2     -2.53      0.00
    6    6    2     -0.16      0.00
    8    6    2      0.56      0.00
   -9    7    2     -0.62      0.00
   -7    7    2     -0.59      0.00
   -5    7    2     -4.67      0.00
   -3    7    2      0.50      0.00
   -1    7    2    -18.24      0.00
    1    7    2     -5.45      0.00
    3    7    2      6.19      0.00
    5    7    2     -3.26      0.00
    7    7    2     -1.29      0.00
   -8    8    2      0.41      0.00
   -6    8    2      2.73      0.00
   -4    8    2     -0.26      0.00
   -2    8    2      2.50      0.00
    0    8    2    -29.59      0.00
    2    8    2      1.69      0.00
    4    8    2     -0.31      0.00
    6    8    2      5.53      0.00
    8    8    2     -0.68      0.00
   -7    9    2     -0.72      0.00
   -5    9    2      7.22      0.00
   -3    9    2      0.09      0.00
   -1    9    2    -22.10      0.00
    1    9    2     -2.27      0.00
    3    9    2      7.65      0.00
    5    9    2      6.87      0.00
    7    9    2     -1.16      0.00
   -8   10    2      1.95      0.00
   -6   10    2      0.30      0.00
   -4   10    2     -5.76      0.00
   -2   10    2      4.12      0.00
    0   10    2     -6.15      0.00
    2   10    2      4.99      0.00
    4   10    2     -1.68      0.00
    6   10    2      2.09      0.00
    8   10    2      0.11      0.00
   -7   11    2      0.06      0.00
   -5   11    2     -2.54      0.00
   -3   11    2     -2.60      0.00
   -1   11    2     -1.91      0.00
    1   11    2      4.55      0.00
    3   11    2     -0.97      0.00
    5   11    2     -1.52      0.00
    7   11    2      3.03      0.00
   -8   12    2      1.13      0.00
   -6   12    2     -0.97      0.00
   -4   12    2     -1.28      0.00
   -2   12    2      6.01      0.00
    0   12    2      7.29      0.00
    2   12    2      5.55      0.00
    4   12    2      1.37      0.00
    6   12    2     -1.85      0.00
    8   12    2     -1.52      0.00
   -7   13    2     -1.55      0.00
   -5   13    2     -0.55      0.00
   -3   13    2     -0.93      0.00
   -1   13    2      5.12      0.00
    1   13    2      3.66      0.00
    3   13    2     -1.89      0.00
    5   13    2     -2.06      0.00
    7   13    2     -1.31      0.00
   -8   14    2     -0.21      0.00
   -6   14    2     -0.59      0.00
   -4   14    2     -1.86      0.00
   -2   14    2      3.17      0.00
    0   14    2      0.45      0.00
    2   14    2      2.41      0.00
    4   14    2     -0.52      0.00
    6   14    2     -0.97      0.00
    8   14    2     -0.50      0.00
   -7   15    2     -0.77      0.00
   -5   15    2      1.33      0.00
   -3   15    2      2.35      0.00
   -1   15    2     -2.19      0.00
    1   15    2     -1.21      0.00
    3   15    2     -0.75      0.00
    5   15    2      2.38      0.00
    7   15    2     -0.21      0.00
   -8   16    2     -1.79      0.00
   -6   16    2      1.00      0.00
   -4   16    2      3.28      0.00
   -2   16    2      2.30      0.00
    0   16    2     -3.77      0.00
    2   16    2     -1.19      0.00
    4   16    2     -0.43      0.00
    6   16    2     -0.73      0.00
    8   16    2     -1.23      0.00
   -7   17    2      1.79      0.00
   -5   17    2      1.79      0.00
   -3   17    2     -0.51      0.00
   -1   17    2     -0.83      0.00
    1   17    2     -3.01      0.00
    3   17    2      0.61      0.00
    5   17    2      1.43      0.00
    7   17    2      2.05      0.00
   -6   18    2     -1.50      0.00
   -4   18    2      1.64      0.00
   -2   18    2      0.96      0.00
    0   18    2      4.05      0.00
    2   18    2     -2.66      0.00
    4   18    2     -1.37      0.00
    6   18    2      1.22      0.00
   -7   19    2     -0.77      0.00
   -5   19    2      1.00      0.00
   -3   19    2      2.27      0.00
   -1   19    2      1.69      0.00
    1   19    2      0.12      0.00
    3   19    2      6.05      0.00
    5   19    2      1.65      0.00
    7   19    2     -3.66      0.00
   -6   20    2     -2.29      0.00
   -4   20    2      4.20      0.00
   -2   20    2      0.54      0.00
    0   20    2      1.49      0.00
    2   20    2     -2.08      0.00
    4   20    2      2.99      0.00
    6   20    2     -2.55      0.00
   -7   21    2      3.93      0.00
   -5   21    2      8.02      0.00
   -3   21    2      2.71      0.00
   -1   21    2      1.38      0.00
    1   21    2      0.12      0.00
    3   21    2      0.13      0.00
    5   21    2      3.29      0.00
    7   21    2      5.28      0.00
   -6   22    2      1.10      0.00
   -4   22    2     -0.84      0.00
   -2   22    2     -1.40      0.00
    0   22    2      2.72      0.00
    2   22    2      0.30      0.00
    4   22    2     -2.88      0.00
    6   22    2      1.65      0.00
   -5   23    2      1.47      0.00
   -3   23    2      2.52      0.00
   -1   23    2     -1.02      0.00
    1   23    2     -1.36      0.00
    3   23    2     -0.09      0.00
    5   23    2     -0.04      0.00
   -6   24    2      1.40      0.00
   -4   24    2     -1.04      0.00
   -2   24    2      0.08      0.00
    0   24    2      1.86      0.00
    2   24    2      1.44      0.00
    4   24    2     -2.45      0.00
    6   24    2      0.86      0.00
   -5   25    2      0.23      0.00
   -3   25    2      1.88      0.00
   -1   25    2      0.41      0.00
    1   25    2     -0.25      0.00
    3   25    2      0.97      0.00
    5   25    2      0.27      0.00
   -6   26    2     -0.78      0.00
   -4   26    2      0.20      0.00
   -2   26    2      0.13      0.00
    0   26    2     -2.38      0.00
    2   26    2      1.16      0.00
    4   26    2      1.25      0.00
   -5   27    2     -0.96      0.00
   -3   27    2     -0.40      0.00
   -1   27    2     -0.66      0.00
    1   27    2      0.29      0.00
    3   27    2     -0.24      0.00
    5   27    2      1.81      0.00
   -4   28    2     -3.86      0.00
   -2   28    2      0.58      0.00
    0   28    2      0.52      0.00
    2   28    2      1.01      0.00
    4   28    2     -4.12      0.00
   -5   29    2      0.85      0.00
   -3   29    2      1.01      0.00
   -1   29    2     -1.90      0.00
    1   29    2     -0.66      0.00
    3   29    2     -0.41      0.00
   -4   30    2     -0.71      0.00
   -2   30    2     -1.26      0.00
    0   30    2     -1.59      0.00
    2   30    2     -0.19      0.00
    4   30    2     -1.57      0.00
   -3   31    2      0.93      0.00
   -1   31    2     -2.67      0.00
    1   31    2      0.23      0.00
    3   31    2     -0.25      0.00
   -2   32    2      2.14      0.00
    0   32    2     -2.37      0.00
    2   32    2     -0.75      0.00
   -1   33    2     -0.43      0.00
    1   33    2     -0.62      0.00
    0   34    2      1.75      0.00
   -9    1    3     -2.02      0.00
   -7    1    3     -2.96      0.00
   -5    1    3      1.08      0.00
   -3    1    3     -0.26      0.00
   -1    1    3     -0.22      0.00
    1    1    3     -5.69      0.00
    3    1    3      6.77      0.00
    5    1    3     -1.75      0.00
    7    1    3      0.14      0.00
    9    1    3     -2.66      0.00
   -8    2    3      0.80      0.00
   -6    2    3      0.80      0.00
   -4    2    3      0.06      0.00
   -2    2    3     14.82      0.00
    0    2    3   -205.31      0.00
    2    2    3      1.74      0.00
    4    2    3      1.90      0.00
    6    2    3      1.10      0.00
    8    2    3      1.52      0.00
   -9    3    3     -0.14      0.00
   -7    3    3     -1.60      0.00
   -5    3    3     -4.49      0.00
   -3    3    3     -1.19      0.00
   -1    3    3     54.49      0.00
    1    3    3    -22.22      0.00
    3    3    3      2.34      0.00
    5    3    3      1.66      0.00
    7    3    3     -1.12      0.00
    9    3    3     -2.04      0.00
   -8    4    3      0.66      0.00
   -6    4    3      1.03      0.00
   -4    4    3     -1.55      0.00
   -2    4    3      3.06      0.00
    0    4    3    -67.07      0.00
    2    4    3      2.30      0.00
    4    4    3      1.14      0.00
    6    4    3      4.41      0.00
    8    4    3      0.75      0.00
   -9    5    3      0.09      0.00
   -7    5    3     -1.60      0.00
   -5    5    3      3.15      0.00
   -3    5    3      0.98      0.00
   -1    5    3     13.93      0.00
    1    5    3     -0.49      0.00
    3    5    3     14.06      0.00
    5    5    3      3.10      0.00
    7    5    3      1.97      0.00
    9    5    3     -3.79      0.00
   -8    6    3     -2.40      0.00
   -6    6    3     -2.40      0.00
   -4    6    3      0.78      0.00
   -2    6    3      0.24      0.00
    2    6    3      7.75      0.00
    4    6    3      3.40      0.00
    6    6    3      0.20      0.00
    8    6    3     -1.97      0.00
   -9    7    3     -0.97      0.00
   -7    7    3     -1.90      0.00
   -5    7    3     -3.66      0.00
   -3    7    3      0.64      0.00
   -1    7    3      2.58      0.00
    1    7    3     -6.27      0.00
    3    7    3     -0.20      0.00
    5    7    3      5.19      0.00
    7    7    3      0.99      0.00
   -8    8    3      0.93      0.00
   -6    8    3      0.87      0.00
   -4    8    3      1.30      0.00
   -2    8    3     -2.84      0.00
    0    8    3     -8.91      0.00
    2    8    3      9.62      0.00
    4    8    3     -2.96      0.00
    6    8    3      2.72      0.00
    8    8    3      1.15      0.00
   -7    9    3     -0.35      0.00
   -5    9    3      0.25      0.00
   -3    9    3      1.94      0.00
   -1    9    3    -13.47      0.00
    1    9    3    -22.38      0.00
    3    9    3      2.03      0.00
    5    9    3     -1.89      0.00
    7    9    3     -1.45      0.00
   -8   10    3     -0.26      0.00
   -6   10    3      0.44      0.00
   -4   10    3     -0.84      0.00
   -2   10    3     -7.27      0.00
    0   10    3     -6.71      0.00
    2   10    3      3.08      0.00
    4   10    3     -1.32      0.00
    6   10    3      5.07      0.00
    8   10    3      0.95      0.00
   -7   11    3      0.74      0.00
   -5   11    3      2.34      0.00
   -3   11    3     -0.35      0.00
   -1   11    3    -11.31      0.00
    1   11    3     -4.94      0.00
    3   11    3     -1.49      0.00
    5   11    3      3.58      0.00
    7   11    3      0.93      0.00
   -8   12    3      0.01      0.00
   -6   12    3     -2.17      0.00
   -4   12    3      0.05      0.00
   -2   12    3     -7.89      0.00
    0   12    3      1.21      0.00
    2   12    3     -0.29      0.00
    4   12    3     -3.11      0.00
    6   12    3      0.25      0.00
    8   12    3      1.43      0.00
   -7   13    3     -0.30      0.00
   -5   13    3     -3.18      0.00
   -3   13    3     -0.95      0.00
   -1   13    3      4.81      0.00
    1   13    3      3.98      0.00
    3   13    3      1.67      0.00
    5   13    3     -4.15      0.00
    7   13    3      4.22      0.00
   -8   14    3      0.41      0.00
   -6   14    3     -1.78      0.00
   -4   14    3      1.46      0.00
   -2   14    3      1.22      0.00
    0   14    3      6.91      0.00
    2   14    3      0.61      0.00
    4   14    3      0.14      0.00
    6   14    3     -0.65      0.00
    8   14    3      1.97      0.00
   -7   15    3      0.07      0.00
   -5   15    3     -3.18      0.00
   -3   15    3     -1.75      0.00
   -1   15    3      4.96      0.00
    1   15    3      8.96      0.00
    3   15    3     -1.85      0.00
    5   15    3     -1.95      0.00
    7   15    3     -0.23      0.00
   -8   16    3     -1.34      0.00
   -6   16    3     -0.58      0.00
   -4   16    3      2.79      0.00
   -2   16    3      0.48      0.00
    0   16    3      3.60      0.00
    2   16    3     -1.18      0.00
    4   16    3      0.80      0.00
    6   16    3     -1.33      0.00
    8   16    3     -0.48      0.00
   -7   17    3     -0.25      0.00
   -5   17    3      1.66      0.00
   -3   17    3     -0.04      0.00
   -1   17    3     -1.95      0.00
    1   17    3      2.27      0.00
    3   17    3     -2.54      0.00
    5   17    3      3.65      0.00
    7   17    3      1.03      0.00
   -6   18    3     -0.03      0.00
   -4   18    3      2.55      0.00
   -2   18    3     -2.67      0.00
    0   18    3      1.42      0.00
    2   18    3     -4.18      0.00
    4   18    3     -3.16      0.00
    6   18    3      1.17      0.00
   -7   19    3     -0.41      0.00
   -5   19    3     -1.62      0.00
   -3   19    3     -1.60      0.00
   -1   19    3     -4.25      0.00
    1   19    3      1.29      0.00
    3   19    3      1.79      0.00
    5   19    3      1.11      0.00
    7   19    3     -1.24      0.00
   -6   20    3     -0.30      0.00
   -4   20    3     -1.20      0.00
   -2   20    3      1.57      0.00
    0   20    3      2.35      0.00
    2   20    3      0.01      0.00
    4   20    3      1.05      0.00
    6   20    3      2.13      0.00
   -7   21    3     -0.69      0.00
   -5   21    3     -0.18      0.00
   -3   21    3     -1.61      0.00
   -1   21    3     -2.67      0.00
    1   21    3     -1.01      0.00
    3   21    3      3.05      0.00
    5   21    3     -0.31      0.00
    7   21    3      0.25      0.00
   -6   22    3      1.23      0.00
   -4   22    3     -1.70      0.00
   -2   22    3      1.38      0.00
    0   22    3     -0.06      0.00
    2   22    3      0.77      0.00
    4   22    3     -0.92      0.00
    6   22    3     -0.65      0.00
   -5   23    3      1.36      0.00
   -3   23    3     -1.11      0.00
   -1   23    3     -0.51      0.00
    1   23    3     -2.06      0.00
    3   23    3     -0.61      0.00
    5   23    3      0.60      0.00
   -6   24    3      0.98      0.00
   -4   24    3     -3.42      0.00
   -2   24    3      0.66      0.00
    0   24    3      0.82      0.00
    2   24    3      0.47      0.00
    4   24    3     -3.66      0.00
    6   24    3      0.50      0.00
   -5   25    3     -0.28      0.00
   -3   25    3      1.73      0.00
   -1   25    3      0.86      0.00
    1   25    3     -3.39      0.00
    3   25    3     -1.13      0.00
    5   25    3     -5.04      0.00
   -6   26    3     -1.67      0.00
   -4   26    3      0.48      0.00
   -2   26    3      0.99      0.00
    0   26    3      1.84      0.00
    2   26    3      1.40      0.00
    4   26    3      0.57      0.00
   -5   27    3     -1.69      0.00
   -3   27    3      1.96      0.00
   -1   27    3      2.24      0.00
    1   27    3      0.32      0.00
    3   27    3      1.13      0.00
    5   27    3      1.15      0.00
   -4   28    3      2.32      0.00
   -2   28    3      3.05      0.00
    0   28    3     -1.62      0.00
    2   28    3      0.93      0.00
    4   28    3      2.30      0.00
   -3   29    3      1.59      0.00
   -1   29    3      2.58      0.00
    1   29    3      1.51      0.00
    3   29    3      0.04      0.00
   -4   30    3      1.58      0.00
   -2   30    3     -0.82      0.00
    0   30    3     -1.35      0.00
    2   30    3      0.08      0.00
    4   30    3     -0.87      0.00
   -3   31    3      0.74      0.00
   -1   31    3      0.36      0.00
    1   31    3      0.65      0.00
    3   31    3      0.80      0.00
   -2   32    3     -0.71      0.00
    0   32    3     -0.04      0.00
    2   32    3      1.14      0.00
   -1   33    3     -1.20      0.00
    1   33    3     -0.35      0.00
    0   34    3      0.42      0.00
   -8    0    4      1.71      0.00
   -6    0    4     -0.38      0.00
   -4    0    4     -4.88      0.00
   -2    0    4    -15.06      0.00
    0    0    4    189.38      0.00
    2    0    4      5.33      0.00
    4    0    4      0.52      0.00
    6    0    4     -7.33      0.00
    8    0    4     -2.11      0.00
   -9    1    4      0.36      0.00
   -7    1    4      1.84      0.00
   -5    1    4      0.18      0.00
   -3    1    4     -4.46      0.00
    1    1    4    -69.11      0.00
    3    1    4      2.01      0.00
    5    1    4     -3.72      0.00
    7    1    4     -3.73      0.00
    9    1    4     -0.65      0.00
   -8    2    4     -1.03      0.00
   -6    2    4      2.48      0.00
   -4    2    4      3.56      0.00
   -2    2    4      1.84      0.00
    0    2    4    -46.62      0.00
    2    2    4      1.88      0.00
    4    2    4     -1.44      0.00
    6    2    4      2.22      0.00
    8    2    4     -1.49      0.00
   -9    3    4     -2.99      0.00
   -7    3    4     -1.83      0.00
   -5    3    4     -2.64      0.00
   -3    3    4      5.43      0.00
   -1    3    4     -7.38      0.00
    1    3    4    -46.02      0.00
    3    3    4     -0.19      0.00
    5    3    4      0.86      0.00
    7    3    4     -3.28      0.00
    9    3    4     -2.80      0.00
   -8    4    4      0.64      0.00
   -6    4    4     -2.41      0.00
   -4    4    4     -4.42      0.00
   -2    4    4     18.89      0.00
    0    4    4     26.44      0.00
    2    4    4      4.28      0.00
    4    4    4     -3.15      0.00
    6    4    4     -2.53      0.00
    8    4    4      0.83      0.00
   -9    5    4     -2.82      0.00
   -7    5    4      0.40      0.00
   -5    5    4     -0.55      0.00
   -3    5    4      4.82      0.00
   -1    5    4    -25.71      0.00
    1    5    4    -28.72      0.00
    3    5    4      2.66      0.00
    5    5    4     -2.20      0.00
    7    5    4     -2.31      0.00
   -8    6    4     -1.47      0.00
   -6    6    4     -2.42      0.00
   -4    6    4      2.47      0.00
   -2    6    4      9.90      0.00
    0    6    4     26.18      0.00
    2    6    4      5.54      0.00
    4    6    4     -2.99      0.00
    6    6    4      3.53      0.00
    8    6    4     -0.05      0.00
   -9    7    4      0.03      0.00
   -7    7    4      2.80      0.00
   -5    7    4      6.70      0.00
   -3    7    4      1.23      0.00
   -1    7    4    -25.61      0.00
    1    7    4     11.82      0.00
    3    7    4     15.52      0.00
    5    7    4      3.70      0.00
    7    7    4      1.10      0.00
   -8    8    4     -1.70      0.00
   -6    8    4     -3.06      0.00
   -4    8    4      1.36      0.00
   -2    8    4      9.90      0.00
    0    8    4     31.10      0.00
    2    8    4      9.83      0.00
    4    8    4     -0.96      0.00
    6    8    4     -0.36      0.00
    8    8    4     -0.47      0.00
   -7    9    4      0.59      0.00
   -5    9    4     -4.41      0.00
   -3    9    4      1.57      0.00
   -1    9    4      0.08      0.00
    1    9    4      6.29      0.00
    3    9    4      1.91      0.00
    5    9    4     -3.86      0.00
    7    9    4      1.20      0.00
   -8   10    4      0.28      0.00
   -6   10    4     -0.37      0.00
   -4   10    4      1.62      0.00
   -2   10    4      9.01      0.00
    0   10    4      3.58      0.00
    2   10    4      2.58      0.00
    4   10    4      1.55      0.00
    6   10    4      0.83      0.00
    8   10    4     -0.76      0.00
   -7   11    4     -1.56      0.00
   -5   11    4      1.13      0.00
   -3   11    4     -0.59      0.00
   -1   11    4    -10.12      0.00
    1   11    4      2.31      0.00
    3   11    4     -1.74      0.00
    5   11    4      2.77      0.00
    7   11    4     -3.31      0.00
   -8   12    4      0.47      0.00
   -6   12    4      0.55      0.00
   -4   12    4     -3.59      0.00
   -2   12    4      3.62      0.00
    0   12    4    -11.95      0.00
    2   12    4     -3.34      0.00
    4   12    4     -0.51      0.00
    6   12    4      0.86      0.00
    8   12    4      0.36      0.00
   -7   13    4     -1.97      0.00
   -5   13    4      0.13      0.00
   -3   13    4     -1.65      0.00
   -1   13    4     -7.80      0.00
    1   13    4     -1.58      0.00
    3   13    4     -4.65      0.00
    5   13    4      1.79      0.00
    7   13    4     -0.42      0.00
   -8   14    4      0.52      0.00
   -6   14    4      1.99      0.00
   -4   14    4     -1.48      0.00
   -2   14    4      3.99      0.00
    0   14    4      2.93      0.00
    2   14    4     -1.39      0.00
    4   14    4     -0.34      0.00
    6   14    4      0.31      0.00
    8   14    4     -1.70      0.00
   -7   15    4     -0.63      0.00
   -5   15    4      0.78      0.00
   -3   15    4     -2.94      0.00
   -1   15    4      4.75      0.00
    1   15    4     -2.84      0.00
    3   15    4     -2.49      0.00
    5   15    4     -0.61      0.00
    7   15    4      0.32      0.00
   -8   16    4      0.82      0.00
   -6   16    4     -0.27      0.00
   -4   16    4     -1.46      0.00
   -2   16    4      2.48      0.00
    0   16    4      5.16      0.00
    2   16    4     -1.11      0.00
    4   16    4     -1.65      0.00
    6   16    4      1.42      0.00
    8   16    4      0.22      0.00
   -7   17    4      1.13      0.00
   -5   17    4      0.60      0.00
   -3   17    4     -0.66      0.00
   -1   17    4      2.03      0.00
    1   17    4      0.21      0.00
    3   17    4      0.89      0.00
    5   17    4      2.78      0.00
    7   17    4     -1.62      0.00
   -6   18    4      0.27      0.00
   -4   18    4      3.90      0.00
   -2   18    4      2.92      0.00
    0   18    4     -0.63      0.00
    2   18    4     -3.12      0.00
    4   18    4      1.56      0.00
    6   18    4     -1.07      0.00
   -7   19    4      3.15      0.00
   -5   19    4      8.90      0.00
   -3   19    4     -1.18      0.00
   -1   19    4      0.29      0.00
    1   19    4     -3.02      0.00
    3   19    4     -0.83      0.00
    5   19    4      1.44      0.00
    7   19    4      5.34      0.00
   -6   20    4     -1.54      0.00
   -4   20    4     -0.62      0.00
   -2   20    4     -3.41      0.00
    0   20    4      0.19      0.00
    2   20    4     -2.38      0.00
    4   20    4     -3.41      0.00
    6   20    4      0.90      0.00
   -7   21    4     -0.49      0.00
   -5   21    4      1.55      0.00
   -3   21    4     -2.17      0.00
   -1   21    4      0.04      0.00
    1   21    4     -3.09      0.00
    3   21    4      2.14      0.00
    5   21    4     -1.00      0.00
    7   21    4     -3.01      0.00
   -6   22    4     -0.19      0.00
   -4   22    4      0.54      0.00
   -2   22    4     -1.92      0.00
    0   22    4     -1.17      0.00
    2   22    4      0.80      0.00
    4   22    4      0.91      0.00
    6   22    4     -2.03      0.00
   -5   23    4      1.80      0.00
   -3   23    4     -0.88      0.00
   -1   23    4     -1.04      0.00
    1   23    4     -0.47      0.00
    3   23    4     -0.77      0.00
    5   23    4      0.03      0.00
   -6   24    4      0.19      0.00
   -4   24    4     -3.15      0.00
   -2   24    4     -3.04      0.00
    0   24    4     -2.41      0.00
    2   24    4      0.89      0.00
    4   24    4     -1.69      0.00
    6   24    4      0.61      0.00
   -5   25    4     -1.85      0.00
   -3   25    4     -1.38      0.00
   -1   25    4     -0.75      0.00
    1   25    4     -0.40      0.00
    3   25    4     -0.79      0.00
    5   25    4      0.01      0.00
   -6   26    4      0.19      0.00
   -4   26    4     -2.64      0.00
   -2   26    4     -2.43      0.00
    0   26    4      0.57      0.00
    2   26    4     -0.42      0.00
    4   26    4     -5.07      0.00
   -5   27    4     -0.55      0.00
   -3   27    4      0.86      0.00
   -1   27    4      0.65      0.00
    1   27    4      0.29      0.00
    3   27    4      0.19      0.00
    5   27    4     -3.41      0.00
   -4   28    4      0.42      0.00
   -2   28    4     -0.31      0.00
    0   28    4      0.72      0.00
    2   28    4      0.80      0.00
    4   28    4     -0.21      0.00
   -3   29    4      1.41      0.00
   -1   29    4     -2.16      0.00
    1   29    4      1.82      0.00
    3   29    4     -0.98      0.00
   -4   30    4     -1.49      0.00
   -2   30    4      2.29      0.00
    0   30    4      0.74      0.00
    2   30    4     -0.30      0.00
    4   30    4     -2.10      0.00
   -3   31    4      0.14      0.00
   -1   31    4     -1.35      0.00
    1   31    4      0.42      0.00
    3   31    4     -0.56      0.00
   -2   32    4     -2.09      0.00
    0   32    4     -0.35      0.00
    2   32    4     -0.58      0.00
   -1   33    4     -1.59      0.00
    1   33    4     -1.41      0.00
    0   34    4     -3.53      0.00
   -9    1    5      2.40      0.00
   -7    1    5      4.06      0.00
   -5    1    5     -1.47      0.00
   -3    1    5     -2.67      0.00
   -1    1    5     34.76      0.00
    1    1    5     17.17      0.00
    3    1    5      1.42      0.00
    5    1    5      1.34      0.00
    7    1    5     -0.95      0.00
    9    1    5     -0.68      0.00
   -8    2    5      0.78      0.00
   -6    2    5      0.05      0.00
   -4    2    5     -3.91      0.00
   -2    2    5     18.81      0.00
    0    2    5     14.16      0.00
    2    2    5      9.58      0.00
    4    2    5     -3.55      0.00
    6    2    5      1.86      0.00
    8    2    5      0.87      0.00
   -9    3    5      0.77      0.00
   -7    3    5     -1.06      0.00
   -5    3    5      1.71      0.00
   -3    3    5     -5.52      0.00
   -1    3    5     -6.77      0.00
    3    3    5     12.11      0.00
    5    3    5      2.25      0.00
    7    3    5      0.87      0.00
   -8    4    5     -1.32      0.00
   -6    4    5      0.60      0.00
   -4    4    5     -0.69      0.00
   -2    4    5     20.50      0.00
    0    4    5    -83.71      0.00
    2    4    5     10.67      0.00
    4    4    5      0.33      0.00
    6    4    5      1.08      0.00
    8    4    5     -1.70      0.00
   -9    5    5     -0.87      0.00
   -7    5    5     -3.39      0.00
   -5    5    5     -5.89      0.00
   -3    5    5      6.44      0.00
   -1    5    5      4.40      0.00
    1    5    5      8.01      0.00
    3    5    5     -3.56      0.00
    5    5    5      4.63      0.00
    7    5    5     -2.58      0.00
   -8    6    5      2.17      0.00
   -6    6    5      2.13      0.00
   -4    6    5     -2.19      0.00
   -2    6    5      1.94      0.00
    0    6    5    -36.77      0.00
    2    6    5      4.34      0.00
    4    6    5     -3.20      0.00
    6    6    5      3.87      0.00
    8    6    5      0.08      0.00
   -9    7    5     -1.20      0.00
   -7    7    5     -0.28      0.00
   -5    7    5      3.10      0.00
   -3    7    5      0.18      0.00
   -1    7    5     -5.25      0.00
    1    7    5      2.21      0.00
    3    7    5      2.30      0.00
    5    7    5      0.55      0.00
    7    7    5      1.32      0.00
   -8    8    5      0.97      0.00
   -6    8    5      1.55      0.00
   -4    8    5     -1.29      0.00
   -2    8    5     -6.07      0.00
    0    8    5     -5.96      0.00
    2    8    5      7.48      0.00
    4    8    5      1.22      0.00
    6    8    5      1.59      0.00
    8    8    5     -1.68      0.00
   -7    9    5      0.03      0.00
   -5    9    5      1.44      0.00
   -3    9    5     -0.04      0.00
   -1    9    5      8.05      0.00
    1    9    5     10.14      0.00
    3    9    5     -0.25      0.00
    5    9    5      2.53      0.00
    7    9    5      0.80      0.00
   -8   10    5      1.99      0.00
   -6   10    5      0.72      0.00
   -4   10    5      1.58      0.00
   -2   10    5     -7.82      0.00
    0   10    5      3.87      0.00
    2   10    5      5.72      0.00
    4   10    5     -2.09      0.00
    6   10    5      0.62      0.00
    8   10    5      1.22      0.00
   -7   11    5     -0.28      0.00
   -5   11    5     -1.54      0.00
   -3   11    5     -1.18      0.00
   -1   11    5     11.97      0.00
    1   11    5     -2.22      0.00
    3   11    5      0.56      0.00
    5   11    5     -4.15      0.00
    7   11    5      0.47      0.00
   -8   12    5      0.07      0.00
   -6   12    5      0.59      0.00
   -4   12    5      4.17      0.00
   -2   12    5     -3.78      0.00
    0   12    5      0.94      0.00
    2   12    5      0.30      0.00
    4   12    5      1.99      0.00
    6   12    5     -0.57      0.00
    8   12    5      2.66      0.00
   -7   13    5      0.87      0.00
   -5   13    5     -1.22      0.00
   -3   13    5      0.91      0.00
   -1   13    5     -2.55      0.00
    1   13    5     -1.10      0.00
    3   13    5      0.76      0.00
    5   13    5      1.36      0.00
    7   13    5     -1.04      0.00
   -8   14    5     -1.10      0.00
   -6   14    5      1.04      0.00
   -4   14    5      3.68      0.00
   -2   14    5     -5.76      0.00
    0   14    5     -0.48      0.00
    2   14    5     -4.05      0.00
    4   14    5     -1.58      0.00
    6   14    5      0.24      0.00
    8   14    5      2.18      0.00
   -7   15    5      0.88      0.00
   -5   15    5      1.07      0.00
   -3   15    5     -0.91      0.00
   -1   15    5     -3.71      0.00
    1   15    5     -4.77      0.00
    3   15    5      1.61      0.00
    5   15    5      2.28      0.00
    7   15    5      2.86      0.00
   -8   16    5      0.87      0.00
   -6   16    5     -0.71      0.00
   -4   16    5      2.47      0.00
   -2   16    5      0.14      0.00
    0   16    5      2.09      0.00
    2   16    5     -3.86      0.00
    4   16    5     -3.64      0.00
    6   16    5      1.86      0.00
   -7   17    5      2.35      0.00
   -5   17    5     -3.21      0.00
   -3   17    5     -2.46      0.00
   -1   17    5     -0.67      0.00
    1   17    5      3.41      0.00
    3   17    5      1.48      0.00
    5   17    5      0.44      0.00
    7   17    5     -1.91      0.00
   -6   18    5     -1.64      0.00
   -4   18    5      0.81      0.00
   -2   18    5     -0.97      0.00
    0   18    5      6.23      0.00
    2   18    5     -2.81      0.00
    4   18    5      2.21      0.00
    6   18    5      1.79      0.00
   -7   19    5     -0.08      0.00
   -5   19    5      1.42      0.00
   -3   19    5     -0.10      0.00
   -1   19    5     -3.12      0.00
    1   19    5     -0.46      0.00
    3   19    5     -1.54      0.00
    5   19    5      1.29      0.00
    7   19    5      0.99      0.00
   -6   20    5     -1.54      0.00
   -4   20    5     -0.29      0.00
   -2   20    5     -1.90      0.00
    0   20    5      1.69      0.00
    2   20    5      0.31      0.00
    4   20    5     -2.26      0.00
    6   20    5     -1.34      0.00
   -7   21    5     -1.07      0.00
   -5   21    5      2.01      0.00
   -3   21    5      0.95      0.00
   -1   21    5     -2.46      0.00
    1   21    5     -0.76      0.00
    3   21    5      0.62      0.00
    5   21    5     -0.88      0.00
    7   21    5      3.17      0.00
   -6   22    5     -0.28      0.00
   -4   22    5     -2.69      0.00
   -2   22    5     -0.52      0.00
    0   22    5     -1.77      0.00
    2   22    5     -0.73      0.00
    4   22    5     -1.79      0.00
    6   22    5      1.08      0.00
   -5   23    5     -0.37      0.00
   -3   23    5     -1.38      0.00
   -1   23    5     -2.11      0.00
    1   23    5     -3.48      0.00
    3   23    5      1.48      0.00
    5   23    5     -2.19      0.00
   -6   24    5     -1.10      0.00
   -4   24    5      0.12      0.00
   -2   24    5      0.96      0.00
    0   24    5     -0.01      0.00
    2   24    5      1.76      0.00
    4   24    5      1.01      0.00
    6   24    5     -1.83      0.00
   -5   25    5     -1.32      0.00
   -3   25    5     -1.59      0.00
   -1   25    5     -0.77      0.00
    1   25    5     -1.83      0.00
    3   25    5      0.87      0.00
    5   25    5      3.67      0.00
   -6   26    5     -1.81      0.00
   -4   26    5     -1.38      0.00
   -2   26    5     -1.41      0.00
    0   26    5     -2.28      0.00
    2   26    5      0.08      0.00
    4   26    5     -0.18      0.00
   -5   27    5      1.74      0.00
   -3   27    5      0.04      0.00
   -1   27    5     -0.57      0.00
    1   27    5     -1.51      0.00
    3   27    5     -0.40      0.00
    5   27    5     -2.72      0.00
   -4   28    5      0.22      0.00
   -2   28    5     -1.78      0.00
    0   28    5     -1.56      0.00
    2   28    5      0.33      0.00
    4   28    5     -3.44      0.00
   -3   29    5      0.01      0.00
   -1   29    5     -1.38      0.00
    1   29    5      0.07      0.00
    3   29    5      0.82      0.00
   -4   30    5      2.30      0.00
   -2   30    5      1.22      0.00
    0   30    5      0.20      0.00
    2   30    5      0.61      0.00
    4   30    5     -0.63      0.00
   -3   31    5     -0.52      0.00
   -1   31    5      1.09      0.00
    1   31    5      0.59      0.00
    3   31    5     -1.81      0.00
   -2   32    5     -1.22      0.00
    0   32    5     -1.31      0.00
    2   32    5      0.13      0.00
   -1   33    5      1.80      0.00
    1   33    5      0.54      0.00
    0   34    5      1.39      0.00
   -8    0    6     -0.90      0.00
   -6    0    6      5.22      0.00
   -4    0    6      7.04      0.00
   -2    0    6      6.20      0.00
    0    0    6   -157.10      0.00
    2    0    6      1.82      0.00
    4    0    6      0.58      0.00
    6    0    6      2.39      0.00
    8    0    6      0.08      0.00
   -9    1    6     -1.98      0.00
   -7    1    6     -1.63      0.00
   -5    1    6     -0.48      0.00
   -3    1    6     -3.45      0.00
   -1    1    6     23.68      0.00
    1    1    6    -39.28      0.00
    3    1    6      4.36      0.00
    5    1    6     -0.56      0.00
    7    1    6     -2.82      0.00
   -8    2    6      0.51      0.00
   -6    2    6     -0.34      0.00
   -4    2    6     -4.70      0.00
   -2    2    6     -0.49      0.00
    0    2    6     17.00      0.00
    2    2    6      6.01      0.00
    4    2    6     -0.60      0.00
    6    2    6     -8.17      0.00
    8    2    6      0.57      0.00
   -9    3    6      0.03      0.00
   -7    3    6      2.19      0.00
   -5    3    6     -0.03      0.00
   -3    3    6     -3.05      0.00
   -1    3    6     15.03      0.00
    1    3    6    -20.09      0.00
    3    3    6      4.83      0.00
    5    3    6     -1.28      0.00
    7    3    6     -0.66      0.00
   -8    4    6     -1.51      0.00
   -6    4    6      0.15      0.00
   -4    4    6      4.09      0.00
   -2    4    6     -2.70      0.00
    0    4    6     21.13      0.00
    2    4    6     12.92      0.00
    4    4    6      0.00      0.00
    6    4    6      1.46      0.00
    8    4    6      0.51      0.00
   -9    5    6     -1.28      0.00
   -7    5    6     -0.24      0.00
   -5    5    6      0.11      0.00
   -3    5    6      5.36      0.00
   -1    5    6    -29.90      0.00
    1    5    6    -14.32      0.00
    3    5    6      6.16      0.00
    5    5    6      2.71      0.00
    7    5    6     -1.19      0.00
   -8    6    6     -1.57      0.00
   -6    6    6     -1.27      0.00
   -4    6    6     -0.17      0.00
   -2    6    6      2.22      0.00
    0    6    6     25.12      0.00
    2    6    6     11.60      0.00
    4    6    6     -2.91      0.00
    6    6    6     -1.80      0.00
    8    6    6      1.79      0.00
   -7    7    6      1.38      0.00
   -5    7    6     -2.38      0.00
   -3    7    6      6.37      0.00
   -1    7    6    -11.79      0.00
    1    7    6    -23.90      0.00
    3    7    6     -7.43      0.00
    5    7    6     -4.42      0.00
    7    7    6     -3.05      0.00
   -8    8    6      1.42      0.00
   -6    8    6     -1.34      0.00
   -4    8    6      2.39      0.00
   -2    8    6      5.85      0.00
    0    8    6     11.22      0.00
    2    8    6     -1.17      0.00
    4    8    6     -2.36      0.00
    6    8    6      2.71      0.00
    8    8    6      0.80      0.00
   -7    9    6      3.97      0.00
   -5    9    6      3.11      0.00
   -3    9    6      2.10      0.00
   -1    9    6    -14.66      0.00
    1    9    6      2.56      0.00
    3    9    6      2.57      0.00
    5    9    6      2.37      0.00
    7    9    6     -0.82      0.00
   -8   10    6     -0.10      0.00
   -6   10    6     -2.31      0.00
   -4   10    6     -0.43      0.00
   -2   10    6      5.49      0.00
    0   10    6      9.62      0.00
    2   10    6     -3.06      0.00
    4   10    6     -1.18      0.00
    6   10    6      0.74      0.00
    8   10    6     -0.57      0.00
   -7   11    6      1.09      0.00
   -5   11    6     -1.51      0.00
   -3   11    6     -1.54      0.00
   -1   11    6     -1.65      0.00
    1   11    6     13.49      0.00
    3   11    6     -0.92      0.00
    5   11    6     -2.01      0.00
    7   11    6     -0.10      0.00
   -8   12    6      0.32      0.00
   -6   12    6     -1.33      0.00
   -4   12    6     -1.25      0.00
   -2   12    6     12.14      0.00
    0   12    6     18.52      0.00
    2   12    6     -0.77      0.00
    4   12    6      1.60      0.00
    6   12    6     -1.29      0.00
    8   12    6     -1.73      0.00
   -7   13    6     -2.19      0.00
   -5   13    6     -0.10      0.00
   -3   13    6     -5.74      0.00
   -1   13    6      5.87      0.00
    1   13    6      3.81      0.00
    3   13    6     -1.26      0.00
    5   13    6      0.08      0.00
    7   13    6     -1.99      0.00
   -8   14    6     -0.84      0.00
   -6   14    6     -0.47      0.00
   -4   14    6     -0.55      0.00
   -2   14    6      4.56      0.00
    0   14    6      1.46      0.00
    2   14    6     -0.18      0.00
    4   14    6     -1.00      0.00
    6   14    6     -1.68      0.00
    8   14    6      0.54      0.00
   -7   15    6      0.12      0.00
   -5   15    6      1.10      0.00
   -3   15    6      0.29      0.00
   -1   15    6      0.83      0.00
    1   15    6     -1.03      0.00
    3   15    6     -1.69      0.00
    5   15    6      2.83      0.00
    7   15    6     -2.09      0.00
   -8   16    6     -2.27      0.00
   -6   16    6      1.13      0.00
   -4   16    6     -0.88      0.00
   -2   16    6      3.94      0.00
    0   16    6     -0.38      0.00
    2   16    6     -0.55      0.00
    4   16    6      1.38      0.00
    6   16    6      1.79      0.00
   -7   17    6      0.70      0.00
   -5   17    6      5.94      0.00
   -3   17    6      2.26      0.00
   -1   17    6      0.43      0.00
    1   17    6     -4.80      0.00
    3   17    6      0.02      0.00
    5   17    6      1.55      0.00
    7   17    6      2.70      0.00
   -6   18    6     -1.14      0.00
   -4   18    6     -3.39      0.00
   -2   18    6      1.51      0.00
    0   18    6      0.31      0.00
    2   18    6     -0.02      0.00
    4   18    6     -1.20      0.00
    6   18    6      1.11      0.00
   -7   19    6      0.24      0.00
   -5   19    6     -0.70      0.00
   -3   19    6     -3.06      0.00
   -1   19    6      2.13      0.00
    1   19    6     -3.58      0.00
    3   19    6      3.02      0.00
    5   19    6      0.56      0.00
    7   19    6     -2.97      0.00
   -6   20    6      1.33      0.00
   -4   20    6      0.99      0.00
   -2   20    6      4.65      0.00
    0   20    6     -1.42      0.00
    2   20    6      1.59      0.00
    4   20    6      3.07      0.00
    6   20    6     -2.84      0.00
   -7   21    6      1.24      0.00
   -5   21    6      5.33      0.00
   -3   21    6     -0.95      0.00
   -1   21    6      2.09      0.00
    1   21    6     -0.86      0.00
    3   21    6     -2.40      0.00
    5   21    6     -3.09      0.00
    7   21    6      4.41      0.00
   -6   22    6     -0.13      0.00
   -4   22    6     -2.59      0.00
   -2   22    6     -1.74      0.00
    0   22    6     -0.73      0.00
    2   22    6      0.31      0.00
    4   22    6     -4.19      0.00
    6   22    6      0.91      0.00
   -5   23    6      0.22      0.00
   -3   23    6     -1.93      0.00
   -1   23    6      1.58      0.00
    1   23    6     -1.29      0.00
    3   23    6     -1.27      0.00
    5   23    6     -3.69      0.00
   -6   24    6     -2.13      0.00
   -4   24    6      1.80      0.00
   -2   24    6     -0.83      0.00
    0   24    6      0.61      0.00
    2   24    6      0.16      0.00
    4   24    6     -2.45      0.00
    6   24    6     -0.43      0.00
   -5   25    6     -1.00      0.00
   -3   25    6     -1.60      0.00
   -1   25    6      0.46      0.00
    1   25    6      0.30      0.00
    3   25    6     -0.10      0.00
    5   25    6     -2.37      0.00
   -6   26    6     -2.79      0.00
   -4   26    6      0.78      0.00
   -2   26    6      0.78      0.00
    0   26    6     -0.58      0.00
    2   26    6      1.01      0.00
    4   26    6      2.53      0.00
   -5   27    6     -1.57      0.00
   -3   27    6     -0.76      0.00
   -1   27    6     -0.23      0.00
    1   27    6      1.87      0.00
    3   27    6     -0.19      0.00
    5   27    6      0.62      0.00
   -4   28    6     -0.87      0.00
   -2   28    6     -0.89      0.00
    0   28    6     -1.65      0.00
    2   28    6     -1.62      0.00
    4   28    6     -3.13      0.00
   -3   29    6     -0.65      0.00
   -1   29    6     -0.69      0.00
    1   29    6      1.80      0.00
    3   29    6      0.80      0.00
   -4   30    6      1.09      0.00
   -2   30    6     -3.33      0.00
    0   30    6     -0.15      0.00
    2   30    6     -0.14      0.00
    4   30    6     -5.62      0.00
   -3   31    6      0.13      0.00
   -1   31    6     -4.83      0.00
    1   31    6     -2.14      0.00
    3   31    6     -1.10      0.00
   -2   32    6      0.28      0.00
    0   32    6     -1.16      0.00
    2   32    6      1.23      0.00
   -1   33    6     -1.48      0.00
    1   33    6      0.21      0.00
    0   34    6     -1.35      0.00
   -9    1    7     -2.36      0.00
   -7    1    7     -5.28      0.00
   -5    1    7      1.44      0.00
   -3    1    7      3.32      0.00
   -1    1    7    -36.08      0.00
    1    1    7     -2.05      0.00
    3    1    7      0.12      0.00
    5    1    7      1.73      0.00
    7    1    7      0.35      0.00
   -8    2    7     -0.68      0.00
   -6    2    7     -0.62      0.00
   -4    2    7     -0.60      0.00
   -2    2    7     25.23      0.00
    0    2    7    -39.82      0.00
    2    2    7      2.84      0.00
    4    2    7     -1.27      0.00
    6    2    7      1.57      0.00
    8    2    7      1.25      0.00
   -9    3    7     -0.89      0.00
   -7    3    7      0.05      0.00
   -5    3    7     -0.07      0.00
   -3    3    7     10.67      0.00
   -1    3    7     -6.59      0.00
    1    3    7      7.41      0.00
    3    3    7     -7.25      0.00
    5    3    7      0.72      0.00
    7    3    7     -2.00      0.00
   -8    4    7      0.49      0.00
   -6    4    7     -1.72      0.00
   -4    4    7     -1.26      0.00
   -2    4    7     16.94      0.00
    0    4    7     31.71      0.00
    2    4    7      2.04      0.00
    4    4    7     -4.92      0.00
    6    4    7      3.45      0.00
    8    4    7      2.36      0.00
   -9    5    7     -0.67      0.00
   -7    5    7      1.06      0.00
   -5    5    7      4.33      0.00
   -3    5    7     -2.20      0.00
   -1    5    7     -3.43      0.00
    3    5    7      6.53      0.00
    5    5    7      1.81      0.00
    7    5    7      3.01      0.00
   -8    6    7     -1.61      0.00
   -6    6    7      1.41      0.00
   -4    6    7      3.80      0.00
   -2    6    7      0.05      0.00
    2    6    7      9.08      0.00
    4    6    7      1.73      0.00
    6    6    7      1.54      0.00
    8    6    7     -1.25      0.00
   -9    7    7      0.79      0.00
   -7    7    7     -1.88      0.00
   -5    7    7     -0.81      0.00
   -3    7    7      1.76      0.00
   -1    7    7      9.59      0.00
    1    7    7     16.97      0.00
    3    7    7     -5.28      0.00
    5    7    7      1.82      0.00
    7    7    7     -0.45      0.00
   -8    8    7      1.23      0.00
   -6    8    7      3.35      0.00
   -4    8    7     -0.46      0.00
   -2    8    7     -3.88      0.00
    0    8    7    -12.08      0.00
    2    8    7     -0.57      0.00
    4    8    7     -4.13      0.00
    6    8    7      2.76      0.00
    8    8    7      0.72      0.00
   -7    9    7     -0.31      0.00
   -5    9    7     -0.86      0.00
   -3    9    7     -4.37      0.00
   -1    9    7      4.61      0.00
    1    9    7     -3.69      0.00
    3    9    7     -6.53      0.00
    5    9    7      0.85      0.00
    7    9    7     -0.23      0.00
   -8   10    7      1.81      0.00
   -6   10    7      3.80      0.00
   -4   10    7     -1.40      0.00
   -2   10    7     -4.17      0.00
    0   10    7    -18.08      0.00
    2   10    7     -3.93      0.00
    4   10    7      1.12      0.00
    6   10    7     -0.49      0.00
    8   10    7      0.05      0.00
   -7   11    7      0.28      0.00
   -5   11    7      0.54      0.00
   -3   11    7     -2.25      0.00
   -1   11    7      1.89      0.00
    1   11    7     -1.73      0.00
    3   11    7      0.65      0.00
    5   11    7      2.82      0.00
    7   11    7     -2.47      0.00
   -8   12    7      1.75      0.00
   -6   12    7      0.90      0.00
   -4   12    7     -2.27      0.00
   -2   12    7    -11.67      0.00
    0   12    7      0.60      0.00
    2   12    7     -3.01      0.00
    4   12    7     -1.54      0.00
    6   12    7      1.67      0.00
    8   12    7      1.07      0.00
   -7   13    7     -0.42      0.00
   -5   13    7      0.67      0.00
   -3   13    7     -4.77      0.00
   -1   13    7      8.03      0.00
    1   13    7     -7.96      0.00
    3   13    7      4.65      0.00
    5   13    7     -0.81      0.00
    7   13    7      1.65      0.00
   -8   14    7      1.54      0.00
   -6   14    7      0.80      0.00
   -4   14    7      0.28      0.00
   -2   14    7     -1.08      0.00
    0   14    7      6.25      0.00
    2   14    7      0.33      0.00
    4   14    7     -2.22      0.00
    6   14    7     -0.40      0.00
    8   14    7      1.91      0.00
   -7   15    7      2.16      0.00
   -5   15    7     -3.00      0.00
   -3   15    7     -5.79      0.00
   -1   15    7      3.12      0.00
    1   15    7      1.81      0.00
    3   15    7      2.73      0.00
    5   15    7     -0.64      0.00
    7   15    7     -1.08      0.00
   -8   16    7      0.42      0.00
   -6   16    7      0.39      0.00
   -4   16    7      2.48      0.00
   -2   16    7     -2.87      0.00
    0   16    7      3.92      0.00
    2   16    7     -4.13      0.00
    4   16    7     -0.64      0.00
    6   16    7     -0.30      0.00
   -7   17    7      1.51      0.00
   -5   17    7      2.54      0.00
   -3   17    7     -2.63      0.00
   -1   17    7     -1.57      0.00
    1   17    7     -1.19      0.00
    3   17    7     -0.76      0.00
    5   17    7      2.49      0.00
    7   17    7      1.44      0.00
   -6   18    7     -2.20      0.00
   -4   18    7      1.42      0.00
   -2   18    7     -3.02      0.00
    0   18    7     -0.05      0.00
    2   18    7     -0.76      0.00
    4   18    7     -2.92      0.00
    6   18    7     -1.00      0.00
   -7   19    7      0.96      0.00
   -5   19    7     -0.04      0.00
   -3   19    7     -1.99      0.00
   -1   19    7     -1.11      0.00
    1   19    7      1.35      0.00
    3   19    7      2.32      0.00
    5   19    7     -0.33      0.00
    7   19    7     -0.18      0.00
   -6   20    7     -1.24      0.00
   -4   20    7     -1.76      0.00
   -2   20    7     -1.53      0.00
    0   20    7      2.12      0.00
    2   20    7      0.33      0.00
    4   20    7      0.92      0.00
    6   20    7      0.74      0.00
   -7   21    7     -0.79      0.00
   -5   21    7     -1.04      0.00
   -3   21    7     -2.06      0.00
   -1   21    7     -2.76      0.00
    1   21    7     -2.16      0.00
    3   21    7      1.86      0.00
    5   21    7     -0.13      0.00
   -6   22    7      0.11      0.00
   -4   22    7     -1.23      0.00
   -2   22    7      0.83      0.00
    0   22    7      3.20      0.00
    2   22    7      3.00      0.00
    4   22    7     -0.44      0.00
    6   22    7     -1.76      0.00
   -5   23    7      0.73      0.00
   -3   23    7      1.41      0.00
   -1   23    7     -0.47      0.00
    1   23    7     -0.93      0.00
    3   23    7      1.90      0.00
    5   23    7      0.43      0.00
   -6   24    7     -0.26      0.00
   -4   24    7     -1.22      0.00
   -2   24    7     -0.81      0.00
    0   24    7     -0.68      0.00
    2   24    7     -2.58      0.00
    4   24    7     -1.84      0.00
    6   24    7      1.61      0.00
   -5   25    7      3.81      0.00
   -3   25    7      1.70      0.00
   -1   25    7      0.46      0.00
    1   25    7     -0.89      0.00
    3   25    7      0.22      0.00
    5   25    7     -2.07      0.00
   -4   26    7      2.42      0.00
   -2   26    7      2.57      0.00
    0   26    7      1.98      0.00
    2   26    7      2.04      0.00
    4   26    7     -1.68      0.00
   -5   27    7     -1.43      0.00
   -3   27    7      0.94      0.00
   -1   27    7      0.52      0.00
    1   27    7      0.45      0.00
    3   27    7      0.39      0.00
    5   27    7      2.98      0.00
   -4   28    7      2.00      0.00
   -2   28    7      2.91      0.00
    0   28    7      0.78      0.00
    2   28    7      1.89      0.00
    4   28    7      1.34      0.00
   -3   29    7      0.44      0.00
   -1   29    7      1.97      0.00
    1   29    7      1.56      0.00
    3   29    7     -0.52      0.00
   -4   30    7     -0.59      0.00
   -2   30    7      0.10      0.00
    0   30    7     -2.05      0.00
    2   30    7     -0.54      0.00
    4   30    7     -3.87      0.00
   -3   31    7     -0.66      0.00
   -1   31    7      0.99      0.00
    1   31    7      0.54      0.00
    3   31    7      1.16      0.00
   -2   32    7      0.47      0.00
    0   32    7      1.77      0.00
    2   32    7      2.35      0.00
   -1   33    7      1.06      0.00
    1   33    7     -0.40      0.00
    0   34    7     -0.86      0.00
   -8    0    8     -0.11      0.00
   -6    0    8      0.10      0.00
   -4    0    8     -4.42      0.00
   -2    0    8     11.31      0.00
    0    0    8     42.65      0.00
    2    0    8     12.82      0.00
    4    0    8     -1.09      0.00
    6    0    8     -9.10      0.00
    8    0    8      0.90      0.00
   -9    1    8      0.90      0.00
   -7    1    8      2.21      0.00
   -5    1    8     -0.99      0.00
   -3    1    8     -8.36      0.00
   -1    1    8     22.99      0.00
    1    1    8      9.70      0.00
    3    1    8      3.08      0.00
    5    1    8      2.07      0.00
    7    1    8     -1.43      0.00
   -8    2    8     -1.29      0.00
   -6    2    8      2.13      0.00
   -4    2    8      6.27      0.00
   -2    2    8      8.31      0.00
    0    2    8    -42.95      0.00
    2    2    8     10.92      0.00
    4    2    8      2.55      0.00
    6    2    8      2.58      0.00
    8    2    8      0.41      0.00
   -9    3    8     -1.89      0.00
   -7    3    8     -3.14      0.00
   -5    3    8     -2.09      0.00
   -3    3    8      5.43      0.00
   -1    3    8    -11.97      0.00
    1    3    8    -13.44      0.00
    3    3    8     -0.89      0.00
    5    3    8      1.56      0.00
    7    3    8     -0.98      0.00
   -8    4    8     -1.57      0.00
   -6    4    8      0.36      0.00
   -4    4    8     -1.95      0.00
   -2    4    8     -2.92      0.00
    0    4    8    -16.41      0.00
    2    4    8      2.04      0.00
    4    4    8     -3.04      0.00
    6    4    8     -6.41      0.00
    8    4    8      0.20      0.00
   -9    5    8     -0.38      0.00
   -7    5    8      1.05      0.00
   -5    5    8     -0.64      0.00
   -3    5    8      3.84      0.00
   -1    5    8      3.21      0.00
    1    5    8    -15.17      0.00
    3    5    8     -4.81      0.00
    5    5    8     -3.44      0.00
    7    5    8      0.31      0.00
   -8    6    8      1.77      0.00
   -6    6    8     -0.53      0.00
   -4    6    8      3.96      0.00
   -2    6    8     -4.68      0.00
    0    6    8      6.75      0.00
    2    6    8      0.85      0.00
    4    6    8     -0.17      0.00
    6    6    8      0.08      0.00
    8    6    8      2.04      0.00
   -7    7    8      2.68      0.00
   -5    7    8      3.62      0.00
   -3    7    8      1.19      0.00
   -1    7    8     -1.60      0.00
    1    7    8      0.26      0.00
    3    7    8      7.52      0.00
    5    7    8      0.02      0.00
    7    7    8      1.23      0.00
   -8    8    8     -1.01      0.00
   -6    8    8     -0.65      0.00
   -4    8    8      4.27      0.00
   -2    8    8     -5.54      0.00
    0    8    8     11.35      0.00
    2    8    8      3.91      0.00
    4    8    8     -0.34      0.00
    6    8    8      0.03      0.00
    8    8    8      1.11      0.00
   -7    9    8      1.31      0.00
   -5    9    8     -0.33      0.00
   -3    9    8     -0.42      0.00
   -1    9    8     -1.47      0.00
    1    9    8     -0.98      0.00
    3    9    8     -3.73      0.00
    5    9    8     -3.96      0.00
    7    9    8     -2.02      0.00
   -8   10    8     -0.19      0.00
   -6   10    8     -1.62      0.00
   -4   10    8      2.10      0.00
   -2   10    8      6.15      0.00
    0   10    8     16.48      0.00
    2   10    8     -3.84      0.00
    4   10    8      0.08      0.00
    6   10    8     -0.67      0.00
    8   10    8      0.22      0.00
   -7   11    8      0.12      0.00
   -5   11    8     -0.41      0.00
   -3   11    8     -1.27      0.00
   -1   11    8    -11.08      0.00
    1   11    8     -5.82      0.00
    3   11    8      0.24      0.00
    5   11    8      2.03      0.00
    7   11    8     -1.03      0.00
   -8   12    8     -0.83      0.00
   -6   12    8     -0.99      0.00
   -4   12    8      1.91      0.00
   -2   12    8      2.72      0.00
    0   12    8      0.08      0.00
    2   12    8     -4.76      0.00
    4   12    8     -2.72      0.00
    6   12    8     -2.08      0.00
    8   12    8      2.14      0.00
   -7   13    8      1.48      0.00
   -5   13    8      1.02      0.00
   -3   13    8      1.23      0.00
   -1   13    8     -8.07      0.00
    1   13    8     -0.22      0.00
    3   13    8      0.76      0.00
    5   13    8      0.90      0.00
    7   13    8     -0.80      0.00
   -8   14    8     -1.16      0.00
   -6   14    8     -1.12      0.00
   -4   14    8     -4.44      0.00
   -2   14    8      5.40      0.00
    0   14    8      6.34      0.00
    2   14    8     -1.62      0.00
    4   14    8      0.31      0.00
    6   14    8      3.94      0.00
    8   14    8     -0.99      0.00
   -7   15    8     -1.76      0.00
   -5   15    8      2.86      0.00
   -3   15    8      0.83      0.00
   -1   15    8      1.05      0.00
    1   15    8     -3.03      0.00
    3   15    8     -1.54      0.00
    5   15    8     -0.15      0.00
    7   15    8      2.10      0.00
   -8   16    8      0.94      0.00
   -6   16    8     -2.01      0.00
   -4   16    8     -4.08      0.00
   -2   16    8      0.71      0.00
    0   16    8      2.25      0.00
    2   16    8      2.04      0.00
    4   16    8     -0.29      0.00
    6   16    8      0.92      0.00
   -7   17    8     -0.13      0.00
   -5   17    8     -0.83      0.00
   -3   17    8     -0.03      0.00
   -1   17    8      1.61      0.00
    1   17    8     -2.88      0.00
    3   17    8     -1.24      0.00
    5   17    8     -0.46      0.00
    7   17    8     -1.73      0.00
   -6   18    8      0.02      0.00
   -4   18    8     -3.07      0.00
   -2   18    8      2.93      0.00
    0   18    8     -4.18      0.00
    2   18    8      1.35      0.00
    4   18    8      4.77      0.00
    6   18    8     -1.63      0.00
   -7   19    8     -0.33      0.00
   -5   19    8      5.66      0.00
   -3   19    8      1.27      0.00
   -1   19    8      0.24      0.00
    1   19    8     -0.84      0.00
    3   19    8     -1.62      0.00
    5   19    8     -2.86      0.00
    7   19    8      3.88      0.00
   -6   20    8     -0.09      0.00
   -4   20    8     -3.95      0.00
   -2   20    8      1.54      0.00
    0   20    8     -4.34      0.00
    2   20    8     -0.25      0.00
    4   20    8     -2.08      0.00
    6   20    8     -1.86      0.00
   -7   21    8      0.33      0.00
   -5   21    8     -0.45      0.00
   -3   21    8     -7.11      0.00
   -1   21    8      0.28      0.00
    1   21    8     -1.00      0.00
    3   21    8      2.05      0.00
    5   21    8     -0.93      0.00
   -6   22    8     -0.35      0.00
   -4   22    8      1.66      0.00
   -2   22    8      3.17      0.00
    0   22    8     -2.89      0.00
    2   22    8      1.48      0.00
    4   22    8     -0.01      0.00
    6   22    8     -1.60      0.00
   -5   23    8     -0.45      0.00
   -3   23    8     -5.28      0.00
   -1   23    8     -1.62      0.00
    1   23    8      0.60      0.00
    3   23    8     -0.65      0.00
    5   23    8     -0.66      0.00
   -6   24    8     -0.27      0.00
   -4   24    8     -1.65      0.00
   -2   24    8     -2.63      0.00
    0   24    8     -0.70      0.00
    2   24    8      1.02      0.00
    4   24    8      0.35      0.00
    6   24    8      3.74      0.00
   -5   25    8     -1.35      0.00
   -3   25    8     -2.79      0.00
   -1   25    8     -1.20      0.00
    1   25    8     -1.11      0.00
    3   25    8      0.13      0.00
    5   25    8     -1.91      0.00
   -4   26    8      0.32      0.00
   -2   26    8     -2.31      0.00
    0   26    8     -0.52      0.00
    2   26    8     -1.05      0.00
    4   26    8     -2.97      0.00
   -5   27    8     -0.36      0.00
   -3   27    8     -1.21      0.00
   -1   27    8     -0.30      0.00
    1   27    8      1.05      0.00
    3   27    8      0.37      0.00
    5   27    8     -2.77      0.00
   -4   28    8      2.14      0.00
   -2   28    8      1.54      0.00
    0   28    8      0.36      0.00
    2   28    8      0.82      0.00
    4   28    8     -0.74      0.00
   -3   29    8      1.18      0.00
   -1   29    8     -0.35      0.00
    1   29    8      0.37      0.00
    3   29    8     -0.79      0.00
   -4   30    8     -1.66      0.00
   -2   30    8      1.22      0.00
    0   30    8     -1.08      0.00
    2   30    8      0.57      0.00
    4   30    8     -0.10      0.00
   -3   31    8     -0.72      0.00
   -1   31    8      1.41      0.00
    1   31    8      2.03      0.00
    3   31    8     -0.13      0.00
   -2   32    8     -1.86      0.00
    0   32    8     -0.44      0.00
    2   32    8      0.31      0.00
   -1   33    8     -1.41      0.00
    1   33    8     -1.15      0.00
   -9    1    9      1.48      0.00
   -7    1    9      3.34      0.00
   -5    1    9     -0.84      0.00
   -3    1    9      3.89      0.00
   -1    1    9      9.47      0.00
    1    1    9      9.14      0.00
    3    1    9     -3.22      0.00
    5    1    9     -2.09      0.00
    7    1    9     -1.27      0.00
   -8    2    9      0.71      0.00
   -6    2    9     -0.94      0.00
   -4    2    9     -1.03      0.00
   -2    2    9      6.05      0.00
    0    2    9     59.05      0.00
    2    2    9      3.77      0.00
    4    2    9     -1.01      0.00
    6    2    9      1.73      0.00
    8    2    9      3.29      0.00
   -9    3    9     -2.28      0.00
   -7    3    9     -2.83      0.00
   -5    3    9      1.01      0.00
   -3    3    9      4.85      0.00
   -1    3    9    -15.63      0.00
    1    3    9      4.78      0.00
    3    3    9      1.43      0.00
    5    3    9      2.07      0.00
    7    3    9     -1.60      0.00
   -8    4    9     -0.63      0.00
   -6    4    9      0.06      0.00
   -4    4    9      1.98      0.00
   -2    4    9      7.70      0.00
    0    4    9     15.83      0.00
    2    4    9      7.26      0.00
    4    4    9      0.10      0.00
    6    4    9      1.71      0.00
    8    4    9      0.42      0.00
   -9    5    9     -1.79      0.00
   -7    5    9     -1.52      0.00
   -5    5    9      0.91      0.00
   -3    5    9      8.32      0.00
   -1    5    9     -4.10      0.00
    1    5    9      0.25      0.00
    3    5    9    -14.23      0.00
    5    5    9     -2.76      0.00
    7    5    9     -3.31      0.00
   -8    6    9      0.15      0.00
   -6    6    9      0.20      0.00
   -4    6    9     -3.32      0.00
   -2    6    9      8.03      0.00
    0    6    9      8.66      0.00
    2    6    9     -5.40      0.00
    4    6    9     -8.63      0.00
    6    6    9      2.61      0.00
    8    6    9     -1.32      0.00
   -7    7    9      2.56      0.00
   -5    7    9      1.92      0.00
   -3    7    9     -1.00      0.00
   -1    7    9      2.74      0.00
    1    7    9      5.84      0.00
    3    7    9     -2.82      0.00
    5    7    9      1.49      0.00
    7    7    9      0.36      0.00
   -8    8    9      0.94      0.00
   -6    8    9      3.03      0.00
   -4    8    9     -0.89      0.00
   -2    8    9      2.95      0.00
    2    8    9     -1.01      0.00
    4    8    9      1.30      0.00
    6    8    9     -0.15      0.00
    8    8    9     -3.17      0.00
   -7    9    9     -0.19      0.00
   -5    9    9      1.98      0.00
   -3    9    9     -4.15      0.00
   -1    9    9      7.43      0.00
    1    9    9     14.53      0.00
    3    9    9      2.09      0.00
    5    9    9      1.38      0.00
    7    9    9     -2.09      0.00
   -8   10    9     -0.04      0.00
   -6   10    9      0.36      0.00
   -4   10    9     -2.21      0.00
   -2   10    9     -4.79      0.00
    0   10    9      2.97      0.00
    2   10    9     -0.43      0.00
    4   10    9     -0.59      0.00
    6   10    9      1.33      0.00
    8   10    9     -1.67      0.00
   -7   11    9     -2.08      0.00
   -5   11    9     -0.45      0.00
   -3   11    9     -5.80      0.00
   -1   11    9     11.90      0.00
    1   11    9     -6.94      0.00
    3   11    9      4.06      0.00
    5   11    9      2.25      0.00
    7   11    9     -1.77      0.00
   -8   12    9     -1.13      0.00
   -6   12    9      2.03      0.00
   -4   12    9     -0.84      0.00
   -2   12    9     -0.22      0.00
    0   12    9     -5.97      0.00
    2   12    9      2.35      0.00
    4   12    9     -1.04      0.00
    6   12    9     -3.08      0.00
    8   12    9      1.36      0.00
   -7   13    9     -0.46      0.00
   -5   13    9     -1.15      0.00
   -3   13    9     -1.94      0.00
   -1   13    9      4.42      0.00
    1   13    9     -6.19      0.00
    3   13    9      3.75      0.00
    5   13    9      0.61      0.00
    7   13    9     -2.12      0.00
   -8   14    9      0.37      0.00
   -6   14    9      0.80      0.00
   -4   14    9      0.50      0.00
   -2   14    9     -4.38      0.00
    0   14    9     -3.77      0.00
    2   14    9     -2.43      0.00
    4   14    9     -1.77      0.00
    6   14    9     -0.53      0.00
   -7   15    9      1.20      0.00
   -5   15    9      2.14      0.00
   -3   15    9      1.61      0.00
   -1   15    9      0.86      0.00
    1   15    9     -6.97      0.00
    3   15    9      2.25      0.00
    5   15    9      2.33      0.00
    7   15    9      2.64      0.00
   -8   16    9      1.18      0.00
   -6   16    9      0.88      0.00
   -4   16    9      1.73      0.00
   -2   16    9      2.45      0.00
    0   16    9     -1.50      0.00
    2   16    9      1.32      0.00
    4   16    9     -1.91      0.00
    6   16    9      0.24      0.00
   -7   17    9      1.31      0.00
   -5   17    9     -0.93      0.00
   -3   17    9     -3.94      0.00
   -1   17    9     -0.18      0.00
    1   17    9     -0.24      0.00
    3   17    9      1.10      0.00
    5   17    9      0.11      0.00
    7   17    9     -0.66      0.00
   -6   18    9      0.79      0.00
   -4   18    9      2.59      0.00
   -2   18    9      2.38      0.00
    0   18    9      3.06      0.00
    2   18    9     -0.37      0.00
    4   18    9      0.95      0.00
    6   18    9     -0.82      0.00
   -7   19    9     -1.42      0.00
   -5   19    9      1.07      0.00
   -3   19    9     -2.53      0.00
   -1   19    9      0.73      0.00
    1   19    9     -0.56      0.00
    3   19    9     -0.87      0.00
    5   19    9      0.68      0.00
    7   19    9     -0.42      0.00
   -6   20    9     -0.26      0.00
   -4   20    9      1.70      0.00
   -2   20    9     -0.61      0.00
    0   20    9      1.94      0.00
    2   20    9      1.01      0.00
    4   20    9     -1.98      0.00
    6   20    9     -1.37      0.00
   -7   21    9      0.49      0.00
   -5   21    9      2.03      0.00
   -3   21    9      0.55      0.00
   -1   21    9      0.25      0.00
    1   21    9     -0.32      0.00
    3   21    9      0.79      0.00
    5   21    9     -2.54      0.00
   -6   22    9     -1.60      0.00
   -4   22    9     -0.81      0.00
   -2   22    9      0.44      0.00
    0   22    9      1.32      0.00
    2   22    9     -3.44      0.00
    4   22    9     -1.64      0.00
    6   22    9      2.32      0.00
   -5   23    9      2.61      0.00
   -3   23    9     -0.55      0.00
   -1   23    9     -2.12      0.00
    1   23    9     -1.76      0.00
    3   23    9     -0.49      0.00
    5   23    9      0.02      0.00
   -6   24    9     -1.12      0.00
   -4   24    9      0.01      0.00
   -2   24    9      2.18      0.00
    0   24    9      3.68      0.00
    2   24    9      1.48      0.00
    4   24    9      0.16      0.00
    6   24    9     -0.54      0.00
   -5   25    9     -1.00      0.00
   -3   25    9     -1.29      0.00
   -1   25    9      0.07      0.00
    1   25    9     -0.10      0.00
    3   25    9      0.88      0.00
    5   25    9      2.87      0.00
   -4   26    9     -0.88      0.00
   -2   26    9     -2.25      0.00
    0   26    9     -1.80      0.00
    2   26    9     -1.06      0.00
    4   26    9     -0.50      0.00
   -5   27    9      2.54      0.00
   -3   27    9     -1.06      0.00
   -1   27    9     -0.05      0.00
    1   27    9      2.62      0.00
    3   27    9      0.81      0.00
    5   27    9     -0.50      0.00
   -4   28    9     -1.58      0.00
   -2   28    9     -2.09      0.00
    0   28    9     -1.19      0.00
    2   28    9      0.61      0.00
    4   28    9     -6.11      0.00
   -3   29    9     -0.92      0.00
   -1   29    9     -2.17      0.00
    1   29    9     -0.72      0.00
    3   29    9      0.81      0.00
   -4   30    9      0.10      0.00
   -2   30    9     -0.56      0.00
    0   30    9      0.76      0.00
    2   30    9      2.88      0.00
   -3   31    9     -0.10      0.00
   -1   31    9      0.85      0.00
    1   31    9     -0.25      0.00
    3   31    9     -2.28      0.00
   -2   32    9     -0.33      0.00
    0   32    9     -2.33      0.00
    2   32    9     -0.96      0.00
   -1   33    9      1.31      0.00
    1   33    9      0.89      0.00
   -8    0   10     -1.74      0.00
   -6    0   10     -0.90      0.00
   -4    0   10      6.35      0.00
   -2    0   10     23.86      0.00
    0    0   10    -38.22      0.00
    2    0   10      3.30      0.00
    4    0   10      3.48      0.00
    6    0   10      4.13      0.00
    8    0   10      0.91      0.00
   -9    1   10     -1.75      0.00
   -7    1   10     -1.42      0.00
   -5    1   10     -0.14      0.00
   -3    1   10      1.63      0.00
   -1    1   10     -1.06      0.00
    1    1   10     -0.96      0.00
    3    1   10     -3.56      0.00
    5    1   10      1.34      0.00
    7    1   10     -0.02      0.00
   -8    2   10     -2.24      0.00
   -6    2   10      0.61      0.00
   -4    2   10     -1.04      0.00
   -2    2   10      8.53      0.00
    0    2   10     24.23      0.00
    2    2   10      0.70      0.00
    4    2   10     -2.31      0.00
    6    2   10     -6.34      0.00
    8    2   10     -0.66      0.00
   -9    3   10      0.52      0.00
   -7    3   10      1.46      0.00
   -5    3   10     -0.65      0.00
   -3    3   10     -4.19      0.00
   -1    3   10     17.36      0.00
    1    3   10      7.21      0.00
    3    3   10      2.11      0.00
    5    3   10      0.69      0.00
    7    3   10      1.30      0.00
   -8    4   10     -0.44      0.00
   -6    4   10      0.04      0.00
   -4    4   10      7.46      0.00
   -2    4   10     -7.18      0.00
    0    4   10      4.11      0.00
    2    4   10      6.67      0.00
    4    4   10      4.62      0.00
    6    4   10      1.76      0.00
    8    4   10      1.76      0.00
   -9    5   10     -1.10      0.00
   -7    5   10     -0.46      0.00
   -5    5   10      1.06      0.00
   -3    5   10     -0.57      0.00
   -1    5   10      3.38      0.00
    1    5   10      2.18      0.00
    3    5   10      2.88      0.00
    5    5   10      1.02      0.00
    7    5   10      2.60      0.00
   -8    6   10     -2.03      0.00
   -6    6   10      1.91      0.00
   -4    6   10      1.99      0.00
   -2    6   10     -9.63      0.00
    0    6   10    -17.64      0.00
    2    6   10      2.62      0.00
    4    6   10     -1.97      0.00
    6    6   10     -2.85      0.00
    8    6   10     -2.02      0.00
   -7    7   10      0.18      0.00
   -5    7   10     -0.49      0.00
   -3    7   10     -1.19      0.00
   -1    7   10      3.26      0.00
    1    7   10     -7.76      0.00
    3    7   10    -10.31      0.00
    5    7   10     -0.70      0.00
    7    7   10     -0.87      0.00
   -8    8   10      1.36      0.00
   -6    8   10     -0.37      0.00
   -4    8   10     -3.39      0.00
   -2    8   10      1.98      0.00
    0    8   10     -1.24      0.00
    2    8   10     -6.12      0.00
    4    8   10     -1.87      0.00
    6    8   10     -0.98      0.00
    8    8   10     -1.45      0.00
   -7    9   10      1.18      0.00
   -5    9   10      0.43      0.00
   -3    9   10      0.63      0.00
   -1    9   10     -1.05      0.00
    1    9   10     -6.65      0.00
    3    9   10      2.49      0.00
    5    9   10      1.33      0.00
    7    9   10     -1.38      0.00
   -8   10   10      0.68      0.00
   -6   10   10     -0.42      0.00
   -4   10   10      0.26      0.00
   -2   10   10     -2.63      0.00
    0   10   10      7.09      0.00
    2   10   10     -2.90      0.00
    4   10   10     -1.24      0.00
    6   10   10     -0.07      0.00
    8   10   10     -0.44      0.00
   -7   11   10      0.94      0.00
   -5   11   10      0.11      0.00
   -3   11   10     -2.98      0.00
   -1   11   10     -0.84      0.00
    1   11   10      0.87      0.00
    3   11   10      3.92      0.00
    5   11   10     -1.92      0.00
    7   11   10     -2.60      0.00
   -8   12   10     -1.11      0.00
   -6   12   10     -2.46      0.00
   -4   12   10     -3.12      0.00
   -2   12   10      2.59      0.00
    0   12   10     16.84      0.00
    2   12   10     -1.14      0.00
    4   12   10     -0.42      0.00
    6   12   10      0.95      0.00
    8   12   10     -0.67      0.00
   -7   13   10     -3.01      0.00
   -5   13   10      0.09      0.00
   -3   13   10     -2.42      0.00
   -1   13   10     -1.98      0.00
    1   13   10     -2.84      0.00
    3   13   10      0.68      0.00
    5   13   10     -0.25      0.00
    7   13   10      1.80      0.00
   -8   14   10     -0.99      0.00
   -6   14   10      0.04      0.00
   -4   14   10      1.36      0.00
   -2   14   10      0.58      0.00
    0   14   10      2.55      0.00
    2   14   10      0.53      0.00
    4   14   10     -2.72      0.00
    6   14   10     -1.82      0.00
   -7   15   10      0.70      0.00
   -5   15   10     -0.63      0.00
   -3   15   10      2.58      0.00
   -1   15   10     -2.45      0.00
    1   15   10     -0.02      0.00
    3   15   10     -0.33      0.00
    5   15   10      0.56      0.00
    7   15   10      0.11      0.00
   -8   16   10     -2.69      0.00
   -6   16   10     -0.19      0.00
   -4   16   10     -2.65      0.00
   -2   16   10      0.37      0.00
    0   16   10     -3.13      0.00
    2   16   10      0.29      0.00
    4   16   10      3.34      0.00
    6   16   10      3.16      0.00
   -7   17   10     -0.46      0.00
   -5   17   10      2.66      0.00
   -3   17   10      5.94      0.00
   -1   17   10      0.53      0.00
    1   17   10     -0.17      0.00
    3   17   10     -1.18      0.00
    5   17   10     -0.37      0.00
    7   17   10      3.49      0.00
   -6   18   10     -0.96      0.00
   -4   18   10     -3.92      0.00
   -2   18   10      2.12      0.00
    0   18   10      0.76      0.00
    2   18   10      4.17      0.00
    4   18   10      1.28      0.00
    6   18   10      0.13      0.00
   -7   19   10      0.59      0.00
   -5   19   10     -1.05      0.00
   -3   19   10     -1.30      0.00
   -1   19   10      0.13      0.00
    1   19   10     -0.65      0.00
    3   19   10      3.39      0.00
    5   19   10     -1.67      0.00
    7   19   10     -1.33      0.00
   -6   20   10      0.74      0.00
   -4   20   10     -1.08      0.00
   -2   20   10      6.51      0.00
    0   20   10     -3.11      0.00
    2   20   10      3.00      0.00
    4   20   10      2.91      0.00
    6   20   10     -1.38      0.00
   -7   21   10      0.29      0.00
   -5   21   10      2.58      0.00
   -3   21   10      0.69      0.00
   -1   21   10     -2.41      0.00
    1   21   10      3.31      0.00
    3   21   10      0.04      0.00
    5   21   10     -2.90      0.00
   -6   22   10      1.80      0.00
   -4   22   10     -0.69      0.00
   -2   22   10      1.35      0.00
    0   22   10     -1.64      0.00
    2   22   10     -1.72      0.00
    4   22   10     -1.11      0.00
    6   22   10      1.70      0.00
   -5   23   10      1.27      0.00
   -3   23   10     -1.34      0.00
   -1   23   10     -1.48      0.00
    1   23   10      0.44      0.00
    3   23   10      0.89      0.00
    5   23   10     -1.48      0.00
   -6   24   10     -3.18      0.00
   -4   24   10      3.75      0.00
   -2   24   10      2.81      0.00
    0   24   10     -0.84      0.00
    2   24   10      0.49      0.00
    4   24   10     -0.87      0.00
   -5   25   10      0.03      0.00
   -3   25   10      0.23      0.00
   -1   25   10     -0.29      0.00
    1   25   10      0.57      0.00
    3   25   10     -1.32      0.00
    5   25   10      0.69      0.00
   -4   26   10      2.35      0.00
   -2   26   10      2.42      0.00
    0   26   10     -0.54      0.00
    2   26   10      1.51      0.00
    4   26   10      2.40      0.00
   -5   27   10     -1.86      0.00
   -3   27   10      0.57      0.00
   -1   27   10      0.99      0.00
    1   27   10      0.01      0.00
    3   27   10      1.87      0.00
    5   27   10      0.98      0.00
   -4   28   10     -0.75      0.00
   -2   28   10      0.07      0.00
    0   28   10      0.25      0.00
    2   28   10     -1.06      0.00
    4   28   10     -1.79      0.00
   -3   29   10     -1.49      0.00
   -1   29   10      0.30      0.00
    1   29   10      1.09      0.00
    3   29   10      0.89      0.00
   -4   30   10      1.28      0.00
   -2   30   10     -0.76      0.00
    0   30   10     -0.06      0.00
    2   30   10      1.47      0.00
   -3   31   10      1.33      0.00
   -1   31   10     -1.75      0.00
    1   31   10     -1.15      0.00
    3   31   10     -0.11      0.00
   -2   32   10     -0.99      0.00
    0   32   10     -1.17      0.00
    2   32   10      2.26      0.00
   -1   33   10     -0.73      0.00
    1   33   10      1.03      0.00
   -9    1   11     -2.11      0.00
   -7    1   11     -3.03      0.00
   -5    1   11      1.37      0.00
   -3    1   11      6.43      0.00
   -1    1   11    -15.21      0.00
    1    1   11     -8.34      0.00
    3    1   11      1.17      0.00
    5    1   11      1.82      0.00
    7    1   11     -0.13      0.00
   -8    2   11     -0.13      0.00
   -6    2   11      0.22      0.00
   -4    2   11      0.34      0.00
   -2    2   11      2.03      0.00
    0    2   11    -18.66      0.00
    2    2   11     -4.90      0.00
    4    2   11     -1.37      0.00
    6    2   11     -1.21      0.00
    8    2   11      0.00      0.00
   -9    3   11     -1.03      0.00
   -7    3   11     -0.55      0.00
   -5    3   11      1.83      0.00
   -3    3   11     10.03      0.00
   -1    3   11     -3.76      0.00
    1    3   11     -5.33      0.00
    3    3   11     -8.51      0.00
    5    3   11     -4.55      0.00
    7    3   11     -0.69      0.00
   -8    4   11      0.08      0.00
   -6    4   11      0.93      0.00
   -4    4   11     -3.65      0.00
   -2    4   11      1.75      0.00
    0    4   11     24.64      0.00
    2    4   11     -5.50      0.00
    4    4   11     -5.79      0.00
    6    4   11      0.85      0.00
    8    4   11      2.44      0.00
   -7    5   11     -0.28      0.00
   -5    5   11      2.80      0.00
   -3    5   11      4.26      0.00
   -1    5   11     -1.81      0.00
    1    5   11      3.73      0.00
    3    5   11      3.39      0.00
    5    5   11      1.66      0.00
    7    5   11     -2.01      0.00
   -8    6   11      0.12      0.00
   -6    6   11      2.16      0.00
   -4    6   11      1.64      0.00
   -2    6   11     -0.88      0.00
    0    6   11      8.82      0.00
    2    6   11      6.22      0.00
    4    6   11      2.36      0.00
    6    6   11      1.71      0.00
    8    6   11      0.57      0.00
   -7    7   11     -1.74      0.00
   -5    7   11      3.63      0.00
   -3    7   11     -3.03      0.00
   -1    7   11     -5.86      0.00
    1    7   11      9.09      0.00
    3    7   11     -6.05      0.00
    5    7   11     -1.67      0.00
    7    7   11     -0.38      0.00
   -8    8   11     -2.82      0.00
   -6    8   11     -0.24      0.00
   -4    8   11     -0.93      0.00
   -2    8   11     -0.16      0.00
    0    8   11      4.95      0.00
    2    8   11     -2.09      0.00
    4    8   11     -3.98      0.00
    6    8   11      1.72      0.00
    8    8   11     -2.57      0.00
   -7    9   11      0.57      0.00
   -5    9   11     -0.64      0.00
   -3    9   11      1.10      0.00
   -1    9   11     -3.84      0.00
    1    9   11     -5.06      0.00
    3    9   11      0.02      0.00
    5    9   11      4.89      0.00
    7    9   11     -1.54      0.00
   -8   10   11     -1.22      0.00
   -6   10   11      2.84      0.00
   -4   10   11     -0.77      0.00
   -2   10   11      3.39      0.00
    0   10   11     -5.59      0.00
    2   10   11     -1.83      0.00
    4   10   11     -1.20      0.00
    6   10   11     -1.48      0.00
    8   10   11      0.37      0.00
   -7   11   11     -0.45      0.00
   -5   11   11     -0.66      0.00
   -3   11   11      0.81      0.00
   -1   11   11      0.08      0.00
    1   11   11     -0.58      0.00
    3   11   11      4.08      0.00
    5   11   11      1.24      0.00
    7   11   11     -1.82      0.00
   -8   12   11      1.00      0.00
   -6   12   11     -1.36      0.00
   -4   12   11     -0.95      0.00
   -2   12   11     -2.60      0.00
    0   12   11     -2.40      0.00
    2   12   11     -0.79      0.00
    4   12   11     -0.77      0.00
    6   12   11      0.53      0.00
   -7   13   11      0.24      0.00
   -5   13   11     -0.36      0.00
   -3   13   11      1.78      0.00
   -1   13   11      7.83      0.00
    1   13   11     -4.34      0.00
    3   13   11      3.68      0.00
    5   13   11      0.96      0.00
    7   13   11      1.17      0.00
   -8   14   11     -0.12      0.00
   -6   14   11     -0.03      0.00
   -4   14   11     -2.44      0.00
   -2   14   11      1.29      0.00
    0   14   11     -4.68      0.00
    2   14   11      5.77      0.00
    4   14   11     -0.20      0.00
    6   14   11     -0.31      0.00
   -7   15   11      0.69      0.00
   -5   15   11     -1.19      0.00
   -3   15   11     -3.80      0.00
   -1   15   11      1.10      0.00
    1   15   11     -1.99      0.00
    3   15   11     -0.28      0.00
    5   15   11     -2.06      0.00
    7   15   11     -1.06      0.00
   -6   16   11      1.38      0.00
   -4   16   11      0.99      0.00
   -2   16   11      2.14      0.00
    0   16   11     -2.08      0.00
    2   16   11      0.66      0.00
    4   16   11      1.25      0.00
    6   16   11     -4.54      0.00
   -7   17   11      1.57      0.00
   -5   17   11      0.46      0.00
   -3   17   11     -2.66      0.00
   -1   17   11      0.02      0.00
    1   17   11     -0.08      0.00
    3   17   11     -0.05      0.00
    5   17   11      3.71      0.00
    7   17   11     -0.29      0.00
   -6   18   11      1.56      0.00
   -4   18   11      3.44      0.00
   -2   18   11      2.82      0.00
    0   18   11     -3.51      0.00
    2   18   11      0.50      0.00
    4   18   11     -0.99      0.00
    6   18   11     -3.71      0.00
   -7   19   11      2.12      0.00
   -5   19   11      1.51      0.00
   -3   19   11     -4.12      0.00
   -1   19   11     -0.79      0.00
    1   19   11      1.68      0.00
    3   19   11      1.35      0.00
    5   19   11      1.46      0.00
   -6   20   11     -0.68      0.00
   -4   20   11      1.62      0.00
   -2   20   11      3.87      0.00
    0   20   11      1.45      0.00
    2   20   11     -1.24      0.00
    4   20   11     -1.01      0.00
    6   20   11      0.84      0.00
   -7   21   11     -0.64      0.00
   -5   21   11      1.19      0.00
   -3   21   11     -0.79      0.00
   -1   21   11     -2.78      0.00
    1   21   11      0.27      0.00
    3   21   11     -0.79      0.00
    5   21   11      1.44      0.00
   -6   22   11     -0.25      0.00
   -4   22   11     -0.10      0.00
   -2   22   11     -1.32      0.00
    0   22   11      4.38      0.00
    2   22   11      0.63      0.00
    4   22   11     -0.49      0.00
    6   22   11      2.52      0.00
   -5   23   11     -0.76      0.00
   -3   23   11      0.67      0.00
   -1   23   11     -0.45      0.00
    1   23   11     -3.47      0.00
    3   23   11     -0.10      0.00
    5   23   11     -1.66      0.00
   -6   24   11     -0.17      0.00
   -4   24   11     -1.76      0.00
   -2   24   11     -1.80      0.00
    0   24   11      0.29      0.00
    2   24   11     -3.18      0.00
    4   24   11     -0.99      0.00
   -5   25   11      2.27      0.00
   -3   25   11      0.73      0.00
   -1   25   11      0.06      0.00
    1   25   11      0.11      0.00
    3   25   11     -1.62      0.00
    5   25   11     -1.80      0.00
   -4   26   11     -0.67      0.00
   -2   26   11      2.85      0.00
    0   26   11      1.25      0.00
    2   26   11      1.00      0.00
    4   26   11     -1.06      0.00
   -5   27   11     -2.02      0.00
   -3   27   11      0.18      0.00
   -1   27   11      1.42      0.00
    1   27   11      0.83      0.00
    3   27   11      0.40      0.00
   -4   28   11      0.29      0.00
   -2   28   11      0.49      0.00
    0   28   11     -1.72      0.00
    2   28   11      0.98      0.00
    4   28   11      0.55      0.00
   -3   29   11      0.16      0.00
   -1   29   11      2.16      0.00
    1   29   11      1.92      0.00
    3   29   11     -0.35      0.00
   -4   30   11     -4.01      0.00
   -2   30   11     -1.44      0.00
    0   30   11     -0.19      0.00
    2   30   11     -0.84      0.00
   -3   31   11      0.09      0.00
   -1   31   11     -0.99      0.00
    1   31   11     -1.45      0.00
   -2   32   11     -0.81      0.00
    0   32   11      2.06      0.00
    2   32   11      0.59      0.00
   -1   33   11     -0.24      0.00
   -8    0   12     -0.86      0.00
   -6    0   12      2.77      0.00
   -4    0   12     -1.68      0.00
   -2    0   12      7.82      0.00
    0    0   12     48.01      0.00
    2    0   12      0.07      0.00
    4    0   12     -0.17      0.00
    6    0   12     -4.85      0.00
    8    0   12     -2.03      0.00
   -9    1   12     -1.76      0.00
   -7    1   12     -1.74      0.00
   -5    1   12     -2.48      0.00
   -3    1   12     -0.48      0.00
   -1    1   12      5.38      0.00
    1    1   12      8.47      0.00
    3    1   12      0.80      0.00
    5    1   12     -0.58      0.00
    7    1   12     -3.23      0.00
   -8    2   12     -0.77      0.00
   -6    2   12     -2.00      0.00
   -4    2   12      4.98      0.00
   -2    2   12      7.34      0.00
    0    2   12    -12.26      0.00
    2    2   12      5.42      0.00
    4    2   12      3.64      0.00
    6    2   12      2.11      0.00
    8    2   12     -1.21      0.00
   -7    3   12      0.56      0.00
   -5    3   12      2.00      0.00
   -3    3   12      0.36      0.00
   -1    3   12     -2.15      0.00
    1    3   12     -0.50      0.00
    3    3   12     -2.61      0.00
    5    3   12     -1.51      0.00
    7    3   12      0.95      0.00
   -8    4   12     -2.25      0.00
   -6    4   12      1.48      0.00
   -4    4   12     -1.59      0.00
   -2    4   12      1.67      0.00
    0    4   12     -9.44      0.00
    2    4   12     -1.46      0.00
    4    4   12     -5.74      0.00
    6    4   12     -5.45      0.00
    8    4   12     -8.18      0.00
   -7    5   12      0.99      0.00
   -5    5   12      0.88      0.00
   -3    5   12     -3.08      0.00
   -1    5   12     12.40      0.00
    1    5   12     -2.24      0.00
    3    5   12     -4.07      0.00
    5    5   12      1.41      0.00
    7    5   12      0.25      0.00
   -8    6   12      0.88      0.00
   -6    6   12      0.07      0.00
   -4    6   12     -0.24      0.00
   -2    6   12     -0.82      0.00
    0    6   12      2.60      0.00
    2    6   12      0.34      0.00
    4    6   12      1.50      0.00
    6    6   12     -0.75      0.00
    8    6   12     -1.12      0.00
   -7    7   12      0.89      0.00
   -5    7   12      0.24      0.00
   -3    7   12      0.01      0.00
   -1    7   12      6.28      0.00
    1    7   12      0.58      0.00
    3    7   12      4.60      0.00
    5    7   12      3.18      0.00
    7    7   12      0.25      0.00
   -8    8   12     -0.63      0.00
   -6    8   12      1.63      0.00
   -4    8   12      2.77      0.00
   -2    8   12     -4.62      0.00
    0    8   12     -1.87      0.00
    2    8   12      2.14      0.00
    4    8   12      1.92      0.00
    6    8   12      0.62      0.00
    8    8   12     -2.00      0.00
   -7    9   12     -0.80      0.00
   -5    9   12     -1.67      0.00
   -3    9   12     -5.19      0.00
   -1    9   12      5.38      0.00
    1    9   12     -3.88      0.00
    3    9   12      0.02      0.00
    5    9   12      2.97      0.00
    7    9   12     -3.24      0.00
   -8   10   12     -1.89      0.00
   -6   10   12     -1.73      0.00
   -4   10   12     -3.72      0.00
   -2   10   12      0.39      0.00
    0   10   12      4.27      0.00
    2   10   12     -2.11      0.00
    4   10   12     -0.61      0.00
    6   10   12     -0.29      0.00
    8   10   12     -0.18      0.00
   -7   11   12     -2.23      0.00
   -5   11   12     -0.74      0.00
   -3   11   12      0.57      0.00
   -1   11   12     -1.97      0.00
    1   11   12    -10.24      0.00
    3   11   12      0.72      0.00
    5   11   12      2.01      0.00
    7   11   12      0.23      0.00
   -8   12   12     -0.40      0.00
   -6   12   12      2.17      0.00
   -4   12   12      2.19      0.00
   -2   12   12     -0.02      0.00
    0   12   12      1.57      0.00
    2   12   12     -1.56      0.00
    4   12   12     -1.71      0.00
    6   12   12     -0.19      0.00
   -7   13   12      1.51      0.00
   -5   13   12     -0.16      0.00
   -3   13   12      2.18      0.00
   -1   13   12     -4.76      0.00
    1   13   12     -3.45      0.00
    3   13   12      0.02      0.00
    5   13   12      1.49      0.00
    7   13   12      1.93      0.00
   -8   14   12     -1.79      0.00
   -6   14   12      0.22      0.00
   -4   14   12     -0.69      0.00
   -2   14   12      0.32      0.00
    0   14   12      3.55      0.00
    2   14   12     -0.68      0.00
    4   14   12      2.50      0.00
    6   14   12      4.82      0.00
   -7   15   12     -1.83      0.00
   -5   15   12      1.15      0.00
   -3   15   12      3.46      0.00
   -1   15   12      0.57      0.00
    1   15   12     -0.44      0.00
    3   15   12     -2.41      0.00
    5   15   12      1.21      0.00
    7   15   12      4.95      0.00
   -6   16   12      0.16      0.00
   -4   16   12     -0.39      0.00
   -2   16   12     -0.28      0.00
    0   16   12      6.00      0.00
    2   16   12      3.96      0.00
    4   16   12      0.31      0.00
    6   16   12      2.50      0.00
   -7   17   12     -0.73      0.00
   -5   17   12     -1.86      0.00
   -3   17   12      1.11      0.00
   -1   17   12      1.83      0.00
    1   17   12      1.84      0.00
    3   17   12      2.80      0.00
    5   17   12     -1.10      0.00
    7   17   12     -0.88      0.00
   -6   18   12      0.24      0.00
   -4   18   12     -1.67      0.00
   -2   18   12      1.56      0.00
    0   18   12     -2.41      0.00
    2   18   12      1.99      0.00
    4   18   12      1.78      0.00
    6   18   12      0.99      0.00
   -7   19   12      1.09      0.00
   -5   19   12      0.49      0.00
   -3   19   12      3.29      0.00
   -1   19   12     -0.67      0.00
    1   19   12      4.62      0.00
    3   19   12     -0.31      0.00
    5   19   12     -2.15      0.00
   -6   20   12      0.42      0.00
   -4   20   12     -3.59      0.00
   -2   20   12      1.40      0.00
    0   20   12      1.98      0.00
    2   20   12     -0.89      0.00
    4   20   12     -1.21      0.00
    6   20   12      0.03      0.00
   -5   21   12      0.03      0.00
   -3   21   12     -2.03      0.00
   -1   21   12     -2.24      0.00
    1   21   12      1.97      0.00
    3   21   12      1.81      0.00
    5   21   12     -3.01      0.00
   -6   22   12     -1.59      0.00
   -4   22   12     -0.38      0.00
   -2   22   12      3.75      0.00
    0   22   12      0.69      0.00
    2   22   12      1.26      0.00
    4   22   12      0.51      0.00
    6   22   12      0.09      0.00
   -5   23   12      0.72      0.00
   -3   23   12     -0.56      0.00
   -1   23   12     -3.17      0.00
    1   23   12      2.70      0.00
    3   23   12     -1.35      0.00
    5   23   12      0.23      0.00
   -6   24   12      2.46      0.00
   -4   24   12     -0.18      0.00
   -2   24   12     -2.85      0.00
    0   24   12     -2.55      0.00
    2   24   12     -0.32      0.00
    4   24   12     -0.04      0.00
   -5   25   12     -1.51      0.00
   -3   25   12     -0.74      0.00
   -1   25   12     -1.70      0.00
    1   25   12      1.27      0.00
    3   25   12      3.37      0.00
    5   25   12      0.75      0.00
   -4   26   12      0.57      0.00
   -2   26   12     -1.89      0.00
    0   26   12     -0.18      0.00
    2   26   12      0.22      0.00
    4   26   12     -2.70      0.00
   -5   27   12      1.23      0.00
   -3   27   12      0.71      0.00
   -1   27   12     -1.86      0.00
    1   27   12     -0.84      0.00
    3   27   12      0.01      0.00
   -4   28   12      1.94      0.00
   -2   28   12      1.20      0.00
    0   28   12     -1.34      0.00
    2   28   12      1.66      0.00
    4   28   12      1.86      0.00
   -3   29   12      2.20      0.00
   -1   29   12     -0.15      0.00
    1   29   12     -1.13      0.00
    3   29   12      0.86      0.00
   -2   30   12      0.20      0.00
    0   30   12     -0.60      0.00
    2   30   12     -0.42      0.00
   -3   31   12     -0.75      0.00
   -1   31   12     -0.08      0.00
    1   31   12      0.00      0.00
   -2   32   12      1.09      0.00
    0   32   12     -0.20      0.00
   -7    1   13     -0.52      0.00
   -5    1   13      0.31      0.00
   -3    1   13      1.22      0.00
   -1    1   13      9.70      0.00
    1    1   13      0.79      0.00
    3    1   13     -1.86      0.00
    5    1   13     -2.40      0.00
    7    1   13     -0.20      0.00
   -8    2   13     -0.10      0.00
   -6    2   13      1.76      0.00
   -4    2   13      0.59      0.00
   -2    2   13     -8.99      0.00
    0    2   13     21.40      0.00
    2    2   13      1.12      0.00
    4    2   13      1.83      0.00
    6    2   13      0.14      0.00
    8    2   13      3.30      0.00
   -7    3   13     -0.36      0.00
   -5    3   13      2.20      0.00
   -3    3   13      8.19      0.00
   -1    3   13     -7.91      0.00
    1    3   13     -0.96      0.00
    3    3   13      1.33      0.00
    5    3   13      2.96      0.00
    7    3   13     -2.04      0.00
   -8    4   13      0.50      0.00
   -6    4   13      1.65      0.00
   -4    4   13     -0.04      0.00
   -2    4   13     -4.03      0.00
    0    4   13    -15.90      0.00
    2    4   13      2.78      0.00
    4    4   13      1.30      0.00
    6    4   13     -1.31      0.00
    8    4   13     -0.19      0.00
   -7    5   13     -0.94      0.00
   -5    5   13      2.75      0.00
   -3    5   13      3.55      0.00
   -1    5   13     -8.08      0.00
    1    5   13      0.11      0.00
    3    5   13    -12.39      0.00
    5    5   13     -2.93      0.00
    7    5   13     -0.18      0.00
   -8    6   13     -1.83      0.00
   -6    6   13      1.50      0.00
   -4    6   13     -7.53      0.00
   -2    6   13      2.61      0.00
    0    6   13      4.46      0.00
    2    6   13     -7.93      0.00
    4    6   13     -6.44      0.00
    6    6   13     -0.31      0.00
    8    6   13     -2.53      0.00
   -7    7   13      0.76      0.00
   -5    7   13     -0.77      0.00
   -3    7   13      6.14      0.00
   -1    7   13     -4.57      0.00
    1    7   13     -1.04      0.00
    3    7   13      0.79      0.00
    5    7   13      2.76      0.00
    7    7   13     -4.50      0.00
   -8    8   13      0.56      0.00
   -6    8   13      2.96      0.00
   -4    8   13     -0.80      0.00
   -2    8   13      0.18      0.00
    0    8   13      4.79      0.00
    2    8   13     -3.49      0.00
    4    8   13      0.56      0.00
    6    8   13      0.07      0.00
    8    8   13      0.82      0.00
   -7    9   13     -0.81      0.00
   -5    9   13      0.32      0.00
   -3    9   13     -2.69      0.00
   -1    9   13     -3.92      0.00
    1    9   13      4.16      0.00
    3    9   13      4.32      0.00
    5    9   13     -1.52      0.00
    7    9   13      0.28      0.00
   -8   10   13     -0.86      0.00
   -6   10   13     -2.77      0.00
   -4   10   13      4.13      0.00
   -2   10   13     -2.54      0.00
    0   10   13      2.17      0.00
    2   10   13     -1.94      0.00
    4   10   13     -0.81      0.00
    6   10   13     -2.03      0.00
   -7   11   13      1.32      0.00
   -5   11   13     -1.56      0.00
   -3   11   13      2.23      0.00
   -1   11   13      3.03      0.00
    1   11   13      1.55      0.00
    3   11   13      4.57      0.00
    5   11   13      1.50      0.00
    7   11   13      0.90      0.00
   -8   12   13     -1.82      0.00
   -6   12   13      0.80      0.00
   -4   12   13      2.32      0.00
   -2   12   13      1.71      0.00
    0   12   13     -7.66      0.00
    2   12   13      2.39      0.00
    4   12   13     -2.25      0.00
    6   12   13     -2.04      0.00
   -7   13   13      0.24      0.00
   -5   13   13     -1.25      0.00
   -3   13   13      1.77      0.00
   -1   13   13     -1.64      0.00
    1   13   13      1.29      0.00
    3   13   13     -0.37      0.00
    5   13   13     -1.57      0.00
    7   13   13      1.31      0.00
   -8   14   13      1.55      0.00
   -6   14   13      0.84      0.00
   -4   14   13      3.00      0.00
   -2   14   13      2.66      0.00
    0   14   13     -3.57      0.00
    2   14   13      0.85      0.00
    4   14   13      0.19      0.00
    6   14   13     -2.59      0.00
   -7   15   13      3.58      0.00
   -5   15   13     -1.38      0.00
   -3   15   13      3.91      0.00
   -1   15   13      3.10      0.00
    1   15   13      0.93      0.00
    3   15   13     -0.04      0.00
    5   15   13      2.21      0.00
    7   15   13      2.27      0.00
   -6   16   13     -0.21      0.00
   -4   16   13      0.64      0.00
   -2   16   13      4.42      0.00
    0   16   13     -4.15      0.00
    2   16   13      3.90      0.00
    4   16   13      1.64      0.00
    6   16   13      0.15      0.00
   -7   17   13      2.39      0.00
   -5   17   13      1.08      0.00
   -3   17   13     -1.66      0.00
   -1   17   13      1.01      0.00
    1   17   13      1.61      0.00
    3   17   13      0.82      0.00
    5   17   13     -0.61      0.00
    7   17   13     -0.68      0.00
   -6   18   13     -0.43      0.00
   -4   18   13      1.26      0.00
   -2   18   13      6.73      0.00
    0   18   13     -1.08      0.00
    2   18   13      1.38      0.00
    4   18   13      1.74      0.00
    6   18   13     -1.95      0.00
   -7   19   13     -0.75      0.00
   -5   19   13      1.47      0.00
   -3   19   13      0.15      0.00
   -1   19   13     -3.56      0.00
    1   19   13      4.32      0.00
    3   19   13      0.19      0.00
    5   19   13      2.20      0.00
   -6   20   13     -0.03      0.00
   -4   20   13      3.06      0.00
   -2   20   13      0.25      0.00
    0   20   13      0.05      0.00
    2   20   13     -1.85      0.00
    4   20   13     -0.04      0.00
    6   20   13     -1.10      0.00
   -5   21   13      1.54      0.00
   -3   21   13      1.04      0.00
   -1   21   13     -1.46      0.00
    1   21   13     -1.53      0.00
    3   21   13     -0.84      0.00
    5   21   13      0.30      0.00
   -6   22   13     -2.44      0.00
   -4   22   13     -0.13      0.00
   -2   22   13      0.58      0.00
    0   22   13      1.26      0.00
    2   22   13     -3.50      0.00
    4   22   13      0.04      0.00
    6   22   13      2.21      0.00
   -5   23   13      0.58      0.00
   -3   23   13      1.93      0.00
   -1   23   13     -0.21      0.00
    1   23   13     -1.66      0.00
    3   23   13     -2.54      0.00
    5   23   13      1.05      0.00
   -6   24   13     -2.00      0.00
   -4   24   13     -1.02      0.00
   -2   24   13      1.86      0.00
    0   24   13      2.82      0.00
    2   24   13     -0.51      0.00
    4   24   13      1.29      0.00
   -5   25   13     -2.30      0.00
   -3   25   13     -1.80      0.00
   -1   25   13      2.04      0.00
    1   25   13     -2.14      0.00
    3   25   13      1.08      0.00
    5   25   13      0.53      0.00
   -4   26   13     -1.55      0.00
   -2   26   13     -1.95      0.00
    0   26   13     -1.15      0.00
    2   26   13     -1.76      0.00
    4   26   13     -1.48      0.00
   -5   27   13      0.21      0.00
   -3   27   13     -3.69      0.00
   -1   27   13      0.16      0.00
    1   27   13      1.05      0.00
    3   27   13     -0.60      0.00
   -4   28   13     -2.93      0.00
   -2   28   13     -2.51      0.00
    0   28   13      0.89      0.00
    2   28   13      1.04      0.00
    4   28   13     -1.35      0.00
   -3   29   13     -2.05      0.00
   -1   29   13     -2.01      0.00
    1   29   13     -0.74      0.00
    3   29   13     -0.66      0.00
   -2   30   13     -2.37      0.00
    0   30   13     -2.59      0.00
    2   30   13      1.28      0.00
   -3   31   13      0.00      0.00
   -1   31   13     -0.38      0.00
    1   31   13      0.78      0.00
    0   32   13     -1.06      0.00
   -8    0   14     -0.90      0.00
   -6    0   14     -2.61      0.00
   -4    0   14      2.43      0.00
   -2    0   14      4.54      0.00
    0    0   14    -24.60      0.00
    2    0   14     -3.00      0.00
    4    0   14      0.47      0.00
    6    0   14      0.54      0.00
    8    0   14     -1.53      0.00
   -7    1   14      0.38      0.00
   -5    1   14     -0.74      0.00
   -3    1   14      5.05      0.00
   -1    1   14     -4.66      0.00
    1    1   14      0.94      0.00
    3    1   14     -1.20      0.00
    5    1   14     -0.97      0.00
    7    1   14     -0.70      0.00
   -8    2   14     -0.67      0.00
   -6    2   14      3.27      0.00
   -4    2   14     -3.92      0.00
   -2    2   14      2.58      0.00
    0    2   14     15.92      0.00
    2    2   14     -4.57      0.00
    4    2   14     -2.86      0.00
    6    2   14     -3.29      0.00
    8    2   14     -5.03      0.00
   -7    3   14     -3.33      0.00
   -5    3   14     -0.58      0.00
   -3    3   14     -3.00      0.00
   -1    3   14      9.71      0.00
    1    3   14      4.43      0.00
    3    3   14      1.87      0.00
    5    3   14      0.76      0.00
    7    3   14     -2.14      0.00
   -8    4   14      0.80      0.00
   -6    4   14     -0.95      0.00
   -4    4   14      2.33      0.00
   -2    4   14     -1.65      0.00
    0    4   14      1.95      0.00
    2    4   14      9.34      0.00
    4    4   14      3.03      0.00
    6    4   14      1.49      0.00
    8    4   14      0.89      0.00
   -7    5   14      1.53      0.00
   -5    5   14      1.47      0.00
   -3    5   14     -2.06      0.00
   -1    5   14     -4.56      0.00
    1    5   14      4.71      0.00
    3    5   14      0.24      0.00
    5    5   14      0.85      0.00
    7    5   14      2.26      0.00
   -8    6   14     -0.72      0.00
   -6    6   14      0.70      0.00
   -4    6   14      2.30      0.00
   -2    6   14     -0.22      0.00
    0    6   14     -8.93      0.00
    2    6   14      2.70      0.00
    4    6   14     -1.31      0.00
    6    6   14     -1.00      0.00
    8    6   14     -6.15      0.00
   -7    7   14      0.54      0.00
   -5    7   14     -2.83      0.00
   -3    7   14     -3.94      0.00
   -1    7   14      3.07      0.00
    1    7   14     -0.07      0.00
    3    7   14     -3.92      0.00
    5    7   14      3.87      0.00
    7    7   14     -1.98      0.00
   -8    8   14      0.55      0.00
   -6    8   14     -0.72      0.00
   -4    8   14     -2.24      0.00
   -2    8   14      2.25      0.00
    0    8   14      2.19      0.00
    2    8   14     -2.51      0.00
    4    8   14     -1.09      0.00
    6    8   14     -1.41      0.00
    8    8   14     -0.99      0.00
   -7    9   14      0.54      0.00
   -5    9   14     -4.66      0.00
   -3    9   14      1.57      0.00
   -1    9   14      1.27      0.00
    1    9   14     -6.20      0.00
    3    9   14      2.29      0.00
    5    9   14      2.92      0.00
    7    9   14     -2.49      0.00
   -8   10   14      2.22      0.00
   -6   10   14      1.69      0.00
   -4   10   14     -0.59      0.00
   -2   10   14     -1.02      0.00
    0   10   14      1.28      0.00
    2   10   14      2.81      0.00
    4   10   14      0.98      0.00
    6   10   14      0.42      0.00
   -7   11   14      1.40      0.00
   -5   11   14     -3.18      0.00
   -3   11   14     -4.20      0.00
   -1   11   14      3.52      0.00
    1   11   14     -5.41      0.00
    3   11   14      0.83      0.00
    5   11   14      0.99      0.00
    7   11   14     -2.27      0.00
   -8   12   14      0.07      0.00
   -6   12   14     -2.15      0.00
   -4   12   14     -5.59      0.00
   -2   12   14     -1.79      0.00
    0   12   14      0.63      0.00
    2   12   14      2.69      0.00
    4   12   14      2.92      0.00
    6   12   14      0.02      0.00
   -7   13   14     -1.05      0.00
   -5   13   14     -0.22      0.00
   -3   13   14     -2.80      0.00
   -1   13   14      0.89      0.00
    1   13   14     -3.63      0.00
    3   13   14     -2.12      0.00
    5   13   14     -0.19      0.00
    7   13   14      1.64      0.00
   -8   14   14     -0.24      0.00
   -6   14   14      2.28      0.00
   -4   14   14     -0.68      0.00
   -2   14   14     -2.43      0.00
    0   14   14      3.69      0.00
    2   14   14      1.64      0.00
    4   14   14      0.16      0.00
    6   14   14     -0.09      0.00
   -7   15   14      1.84      0.00
   -5   15   14     -1.01      0.00
   -3   15   14     -0.21      0.00
   -1   15   14     -1.71      0.00
    1   15   14     -1.07      0.00
    3   15   14      1.05      0.00
    5   15   14      3.16      0.00
    7   15   14     -0.88      0.00
   -6   16   14      1.97      0.00
   -4   16   14      1.86      0.00
   -2   16   14      0.64      0.00
    0   16   14      0.16      0.00
    2   16   14     -0.34      0.00
    4   16   14      0.42      0.00
    6   16   14      1.06      0.00
   -7   17   14      0.68      0.00
   -5   17   14      0.16      0.00
   -3   17   14      4.65      0.00
   -1   17   14      0.46      0.00
    1   17   14      2.75      0.00
    3   17   14     -1.15      0.00
    5   17   14      3.26      0.00
    7   17   14      1.91      0.00
   -6   18   14     -0.75      0.00
   -4   18   14     -0.53      0.00
   -2   18   14      0.59      0.00
    0   18   14      5.72      0.00
    2   18   14      0.69      0.00
    4   18   14     -1.87      0.00
    6   18   14      2.57      0.00
   -7   19   14     -0.46      0.00
   -5   19   14     -1.22      0.00
   -3   19   14      2.48      0.00
   -1   19   14      0.53      0.00
    1   19   14      3.17      0.00
    3   19   14      2.37      0.00
    5   19   14     -4.24      0.00
   -6   20   14     -0.57      0.00
   -4   20   14     -0.05      0.00
   -2   20   14      3.01      0.00
    0   20   14      2.06      0.00
    2   20   14      2.05      0.00
    4   20   14      0.40      0.00
    6   20   14      2.90      0.00
   -5   21   14      0.46      0.00
   -3   21   14      2.65      0.00
   -1   21   14     -2.19      0.00
    1   21   14      1.11      0.00
    3   21   14     -2.62      0.00
    5   21   14     -2.92      0.00
   -6   22   14      1.65      0.00
   -4   22   14     -1.82      0.00
   -2   22   14     -1.70      0.00
    0   22   14      0.43      0.00
    2   22   14     -1.48      0.00
    4   22   14     -1.07      0.00
   -5   23   14     -1.35      0.00
   -3   23   14     -0.75      0.00
   -1   23   14      0.35      0.00
    1   23   14      0.40      0.00
    3   23   14      0.72      0.00
    5   23   14     -1.98      0.00
   -6   24   14     -2.89      0.00
   -4   24   14      1.23      0.00
   -2   24   14      2.93      0.00
    0   24   14      1.89      0.00
    2   24   14      0.79      0.00
    4   24   14      0.07      0.00
   -5   25   14      1.98      0.00
   -3   25   14      2.58      0.00
   -1   25   14     -0.43      0.00
    1   25   14      1.46      0.00
    3   25   14     -1.40      0.00
    5   25   14      0.87      0.00
   -4   26   14      1.70      0.00
   -2   26   14      1.37      0.00
    0   26   14     -2.39      0.00
    2   26   14     -0.20      0.00
    4   26   14      1.45      0.00
   -5   27   14     -0.46      0.00
   -3   27   14      2.55      0.00
   -1   27   14      0.48      0.00
    1   27   14      0.86      0.00
    3   27   14      1.44      0.00
   -4   28   14     -0.64      0.00
   -2   28   14     -1.77      0.00
    0   28   14      2.67      0.00
    2   28   14     -1.07      0.00
   -3   29   14     -0.48      0.00
   -1   29   14     -0.70      0.00
    1   29   14     -1.84      0.00
    3   29   14     -1.82      0.00
   -2   30   14      0.04      0.00
    0   30   14      0.73      0.00
    2   30   14      0.29      0.00
   -1   31   14     -0.61      0.00
    1   31   14      0.47      0.00
    0   32   14     -1.25      0.00
   -7    1   15      3.35      0.00
   -5    1   15      2.36      0.00
   -3    1   15      3.37      0.00
   -1    1   15     -9.93      0.00
    1    1   15     -4.79      0.00
    3    1   15      0.03      0.00
    5    1   15      3.08      0.00
    7    1   15      1.07      0.00
   -8    2   15     -0.17      0.00
   -6    2   15     -1.31      0.00
   -4    2   15      0.64      0.00
   -2    2   15     -1.58      0.00
    0    2   15    -17.14      0.00
    2    2   15     -1.36      0.00
    4    2   15     -0.33      0.00
    6    2   15     -1.92      0.00
    8    2   15     -1.30      0.00
   -7    3   15     -0.32      0.00
   -5    3   15      2.01      0.00
   -3    3   15      2.66      0.00
   -1    3   15      6.12      0.00
    1    3   15     -5.68      0.00
    3    3   15     -4.67      0.00
    5    3   15     -0.42      0.00
    7    3   15      1.40      0.00
   -8    4   15     -1.94      0.00
   -6    4   15      1.31      0.00
   -4    4   15     -2.71      0.00
   -2    4   15     -1.62      0.00
    0    4   15     11.47      0.00
    2    4   15     -3.99      0.00
    4    4   15      0.38      0.00
    6    4   15     -0.06      0.00
    8    4   15      3.20      0.00
   -7    5   15     -0.92      0.00
   -5    5   15     -3.67      0.00
   -3    5   15      7.19      0.00
   -1    5   15     -3.53      0.00
    1    5   15     -2.57      0.00
    3    5   15      1.31      0.00
    5    5   15      5.46      0.00
    7    5   15     -2.66      0.00
   -8    6   15      0.45      0.00
   -6    6   15      2.40      0.00
   -4    6   15      0.60      0.00
   -2    6   15     -4.48      0.00
    0    6   15     -2.24      0.00
    2    6   15     -0.05      0.00
    4    6   15      3.87      0.00
    6    6   15      1.16      0.00
    8    6   15      3.84      0.00
   -7    7   15     -1.82      0.00
   -5    7   15     -0.96      0.00
   -3    7   15     -0.41      0.00
   -1    7   15     -6.02      0.00
    1    7   15     -1.04      0.00
    3    7   15     -1.67      0.00
    5    7   15     -1.39      0.00
    7    7   15      2.38      0.00
   -8    8   15     -2.21      0.00
   -6    8   15     -1.14      0.00
   -4    8   15     -0.24      0.00
   -2    8   15     -1.45      0.00
    0    8   15     -3.30      0.00
    2    8   15     -7.36      0.00
    4    8   15     -0.83      0.00
    6    8   15      0.02      0.00
   -7    9   15      1.82      0.00
   -5    9   15     -0.73      0.00
   -3    9   15      3.45      0.00
   -1    9   15     -0.89      0.00
    1    9   15      0.68      0.00
    3    9   15      1.20      0.00
    5    9   15      0.82      0.00
    7    9   15      0.13      0.00
   -8   10   15     -0.27      0.00
   -6   10   15      1.43      0.00
   -4   10   15      3.01      0.00
   -2   10   15     -0.31      0.00
    0   10   15     -1.50      0.00
    2   10   15     -4.39      0.00
    4   10   15     -1.23      0.00
    6   10   15      0.12      0.00
   -7   11   15      0.61      0.00
   -5   11   15      1.39      0.00
   -3   11   15      2.13      0.00
   -1   11   15     -3.85      0.00
    1   11   15      1.83      0.00
    3   11   15     -1.40      0.00
    5   11   15     -1.54      0.00
    7   11   15      5.66      0.00
   -8   12   15      0.95      0.00
   -6   12   15     -1.62      0.00
   -4   12   15      4.93      0.00
   -2   12   15      1.41      0.00
    0   12   15      2.13      0.00
    2   12   15     -0.16      0.00
    4   12   15     -0.39      0.00
    6   12   15     -2.12      0.00
   -7   13   15      2.91      0.00
   -5   13   15     -1.97      0.00
   -3   13   15      4.16      0.00
   -1   13   15      3.77      0.00
    1   13   15      5.33      0.00
    3   13   15     -0.69      0.00
    5   13   15     -1.41      0.00
    7   13   15      5.04      0.00
   -6   14   15     -1.89      0.00
   -4   14   15      0.74      0.00
   -2   14   15      2.04      0.00
    0   14   15     -2.60      0.00
    2   14   15      2.54      0.00
    4   14   15     -1.99      0.00
    6   14   15      1.13      0.00
   -7   15   15      0.68      0.00
   -5   15   15     -2.48      0.00
   -3   15   15     -1.97      0.00
   -1   15   15      2.83      0.00
    1   15   15      4.67      0.00
    3   15   15      1.32      0.00
    5   15   15     -2.93      0.00
    7   15   15     -0.15      0.00
   -6   16   15     -0.44      0.00
   -4   16   15      0.86      0.00
   -2   16   15      4.02      0.00
    0   16   15     -4.20      0.00
    2   16   15      1.42      0.00
    4   16   15     -1.07      0.00
    6   16   15     -3.63      0.00
   -7   17   15      2.62      0.00
   -5   17   15     -2.94      0.00
   -3   17   15     -0.56      0.00
   -1   17   15     -0.94      0.00
    1   17   15      5.24      0.00
    3   17   15      1.43      0.00
    5   17   15      1.47      0.00
   -6   18   15     -0.67      0.00
   -4   18   15      0.32      0.00
   -2   18   15      1.13      0.00
    0   18   15     -2.36      0.00
    2   18   15     -1.16      0.00
    4   18   15      0.09      0.00
    6   18   15     -3.13      0.00
   -7   19   15      2.80      0.00
   -5   19   15      1.07      0.00
   -3   19   15     -0.91      0.00
   -1   19   15      0.27      0.00
    1   19   15      0.30      0.00
    3   19   15     -0.83      0.00
    5   19   15     -0.64      0.00
   -6   20   15     -1.87      0.00
   -4   20   15     -1.78      0.00
   -2   20   15      1.29      0.00
    0   20   15      1.19      0.00
    2   20   15     -2.48      0.00
    4   20   15      2.30      0.00
    6   20   15      0.25      0.00
   -5   21   15      1.02      0.00
   -3   21   15      0.95      0.00
   -1   21   15     -2.21      0.00
    1   21   15      1.29      0.00
    3   21   15     -0.51      0.00
    5   21   15      0.59      0.00
   -6   22   15     -0.38      0.00
   -4   22   15     -0.07      0.00
   -2   22   15     -1.18      0.00
    0   22   15      0.40      0.00
    2   22   15     -2.60      0.00
    4   22   15      0.58      0.00
   -5   23   15      0.07      0.00
   -3   23   15      0.58      0.00
   -1   23   15      0.19      0.00
    1   23   15     -2.70      0.00
    3   23   15      1.41      0.00
    5   23   15      1.17      0.00
   -4   24   15     -1.02      0.00
   -2   24   15     -1.84      0.00
    0   24   15     -2.23      0.00
    2   24   15     -1.92      0.00
    4   24   15     -0.71      0.00
   -5   25   15     -0.21      0.00
   -3   25   15     -0.57      0.00
   -1   25   15      0.07      0.00
    1   25   15     -1.37      0.00
    3   25   15     -0.36      0.00
   -4   26   15      0.32      0.00
   -2   26   15      2.38      0.00
    0   26   15      1.70      0.00
    2   26   15      0.34      0.00
    4   26   15      1.98      0.00
   -3   27   15     -1.22      0.00
   -1   27   15      0.93      0.00
    1   27   15     -0.80      0.00
    3   27   15      0.75      0.00
   -4   28   15      0.88      0.00
   -2   28   15      1.71      0.00
    0   28   15     -1.56      0.00
    2   28   15     -0.26      0.00
   -3   29   15     -1.37      0.00
   -1   29   15      1.44      0.00
    1   29   15      0.04      0.00
    3   29   15     -1.77      0.00
   -2   30   15     -0.36      0.00
    0   30   15      1.03      0.00
    2   30   15     -0.18      0.00
   -1   31   15      0.02      0.00
    1   31   15     -1.08      0.00
   -8    0   16      0.25      0.00
   -6    0   16      3.10      0.00
   -4    0   16     -2.04      0.00
   -2    0   16     -6.23      0.00
    0    0   16     21.05      0.00
    2    0   16     -4.49      0.00
    4    0   16      3.79      0.00
    6    0   16     -0.99      0.00
    8    0   16     -2.07      0.00
   -7    1   16     -1.73      0.00
   -5    1   16     -2.31      0.00
   -3    1   16      2.05      0.00
   -1    1   16      3.57      0.00
    1    1   16      0.91      0.00
    3    1   16     -1.15      0.00
    5    1   16      0.19      0.00
    7    1   16     -2.62      0.00
   -8    2   16      0.92      0.00
   -6    2   16     -1.11      0.00
   -4    2   16      0.81      0.00
   -2    2   16     -4.75      0.00
    0    2   16     -9.85      0.00
    2    2   16      2.96      0.00
    4    2   16      1.59      0.00
    6    2   16      0.67      0.00
   -7    3   16      2.90      0.00
   -5    3   16     -0.22      0.00
   -3    3   16      1.55      0.00
   -1    3   16     -8.55      0.00
    1    3   16      1.42      0.00
    3    3   16     -2.61      0.00
    5    3   16     -0.75      0.00
    7    3   16      0.40      0.00
   -8    4   16      0.83      0.00
   -6    4   16      1.79      0.00
   -4    4   16     -5.34      0.00
   -2    4   16      3.46      0.00
    0    4   16     -6.36      0.00
    2    4   16     -5.37      0.00
    4    4   16     -5.25      0.00
    6    4   16     -1.46      0.00
   -7    5   16     -3.30      0.00
   -5    5   16     -2.67      0.00
   -3    5   16     -4.58      0.00
   -1    5   16      3.46      0.00
    1    5   16      4.65      0.00
    3    5   16      0.27      0.00
    5    5   16      1.14      0.00
    7    5   16     -1.72      0.00
   -8    6   16      2.35      0.00
   -6    6   16     -1.47      0.00
   -4    6   16      1.48      0.00
   -2    6   16      1.07      0.00
    0    6   16      7.50      0.00
    2    6   16     -0.47      0.00
    4    6   16     -1.88      0.00
    6    6   16     -1.49      0.00
   -7    7   16      0.79      0.00
   -5    7   16     -3.35      0.00
   -3    7   16     -0.63      0.00
   -1    7   16     -2.64      0.00
    1    7   16      0.93      0.00
    3    7   16      4.13      0.00
    5    7   16      1.86      0.00
    7    7   16      2.25      0.00
   -8    8   16      1.78      0.00
   -6    8   16     -1.49      0.00
   -4    8   16      4.49      0.00
   -2    8   16     -0.51      0.00
    0    8   16     -2.61      0.00
    2    8   16      5.01      0.00
    4    8   16     -0.56      0.00
    6    8   16     -1.05      0.00
   -7    9   16      0.78      0.00
   -5    9   16     -3.93      0.00
   -3    9   16     -3.20      0.00
   -1    9   16      3.95      0.00
    1    9   16      0.27      0.00
    3    9   16     -0.40      0.00
    5    9   16      0.82      0.00
    7    9   16     -1.43      0.00
   -8   10   16      0.79      0.00
   -6   10   16     -1.84      0.00
   -4   10   16     -0.80      0.00
   -2   10   16      5.17      0.00
    0   10   16     -3.54      0.00
    2   10   16      2.61      0.00
    4   10   16     -1.07      0.00
    6   10   16     -2.56      0.00
   -7   11   16     -1.00      0.00
   -5   11   16     -3.06      0.00
   -3   11   16     -1.88      0.00
   -1   11   16      2.62      0.00
    1   11   16     -0.14      0.00
    3   11   16     -1.31      0.00
    5   11   16      0.09      0.00
    7   11   16     -0.64      0.00
   -8   12   16      1.07      0.00
   -6   12   16      2.40      0.00
   -4   12   16     -1.96      0.00
   -2   12   16      1.68      0.00
    0   12   16      0.11      0.00
    2   12   16      2.09      0.00
    4   12   16      0.79      0.00
    6   12   16      1.68      0.00
   -7   13   16      1.40      0.00
   -5   13   16     -1.42      0.00
   -3   13   16      1.16      0.00
   -1   13   16      2.19      0.00
    1   13   16     -2.93      0.00
    3   13   16     -1.10      0.00
    5   13   16      2.48      0.00
    7   13   16     -1.05      0.00
   -6   14   16     -0.07      0.00
   -4   14   16     -2.75      0.00
   -2   14   16      1.69      0.00
    0   14   16      1.78      0.00
    2   14   16      0.31      0.00
    4   14   16      3.65      0.00
    6   14   16      3.08      0.00
   -7   15   16     -0.97      0.00
   -5   15   16     -0.30      0.00
   -3   15   16      2.54      0.00
   -1   15   16      2.23      0.00
    1   15   16     -1.47      0.00
    3   15   16     -0.53      0.00
    5   15   16      1.68      0.00
    7   15   16      1.65      0.00
   -6   16   16     -1.95      0.00
   -4   16   16     -1.20      0.00
   -2   16   16     -1.19      0.00
    0   16   16      3.40      0.00
    2   16   16      0.80      0.00
    4   16   16      0.28      0.00
    6   16   16      3.38      0.00
   -7   17   16     -0.67      0.00
   -5   17   16      0.05      0.00
   -3   17   16      1.86      0.00
   -1   17   16     -0.66      0.00
    1   17   16      2.31      0.00
    3   17   16      2.37      0.00
    5   17   16     -0.29      0.00
   -6   18   16     -0.20      0.00
   -4   18   16      3.13      0.00
   -2   18   16      1.09      0.00
    0   18   16      1.22      0.00
    2   18   16      1.66      0.00
    4   18   16      0.23      0.00
    6   18   16     -0.20      0.00
   -7   19   16      0.44      0.00
   -5   19   16      1.29      0.00
   -3   19   16      3.16      0.00
   -1   19   16     -3.52      0.00
    1   19   16      0.09      0.00
    3   19   16     -2.73      0.00
    5   19   16      1.67      0.00
   -6   20   16     -0.09      0.00
   -4   20   16     -1.30      0.00
   -2   20   16     -2.57      0.00
    0   20   16      3.45      0.00
    2   20   16     -1.82      0.00
    4   20   16     -1.66      0.00
    6   20   16      0.30      0.00
   -5   21   16     -2.15      0.00
   -3   21   16     -2.07      0.00
   -1   21   16      1.37      0.00
    1   21   16     -1.72      0.00
    3   21   16      0.26      0.00
    5   21   16     -2.49      0.00
   -6   22   16     -0.06      0.00
   -4   22   16     -0.51      0.00
   -2   22   16      4.04      0.00
    0   22   16      3.36      0.00
    2   22   16      0.87      0.00
    4   22   16      1.06      0.00
   -5   23   16      2.22      0.00
   -3   23   16     -0.88      0.00
   -1   23   16     -0.80      0.00
    1   23   16     -1.11      0.00
    3   23   16     -1.83      0.00
    5   23   16      0.79      0.00
   -4   24   16     -0.73      0.00
   -2   24   16     -1.19      0.00
    0   24   16     -2.79      0.00
    2   24   16     -1.55      0.00
    4   24   16     -0.53      0.00
   -5   25   16     -0.96      0.00
   -3   25   16     -1.55      0.00
   -1   25   16     -1.24      0.00
    1   25   16      0.87      0.00
    3   25   16     -1.35      0.00
   -4   26   16      0.85      0.00
   -2   26   16     -2.78      0.00
    0   26   16      2.56      0.00
    2   26   16      0.54      0.00
    4   26   16     -1.31      0.00
   -3   27   16      0.70      0.00
   -1   27   16     -1.35      0.00
    1   27   16      0.55      0.00
    3   27   16     -2.96      0.00
   -4   28   16      0.58      0.00
   -2   28   16      0.41      0.00
    0   28   16     -1.29      0.00
    2   28   16      0.25      0.00
   -3   29   16      2.06      0.00
   -1   29   16      0.16      0.00
    1   29   16      0.90      0.00
   -2   30   16      0.13      0.00
    0   30   16      0.38      0.00
    2   30   16     -1.18      0.00
   -1   31   16      0.27      0.00
    1   31   16     -0.64      0.00
   -7    1   17     -3.91      0.00
   -5    1   17      1.21      0.00
   -3    1   17     -2.05      0.00
   -1    1   17      9.44      0.00
    1    1   17      1.59      0.00
    3    1   17      2.06      0.00
    5    1   17     -2.13      0.00
    7    1   17     -0.77      0.00
   -8    2   17     -0.30      0.00
   -6    2   17     -0.09      0.00
   -4    2   17      0.65      0.00
   -2    2   17      1.52      0.00
    0    2   17      7.05      0.00
    2    2   17      3.31      0.00
    4    2   17      1.71      0.00
    6    2   17      0.34      0.00
   -7    3   17      0.65      0.00
   -5    3   17     -1.00      0.00
   -3    3   17      0.79      0.00
   -1    3   17     -7.04      0.00
    1    3   17     -1.78      0.00
    3    3   17      1.30      0.00
    5    3   17      2.60      0.00
    7    3   17      0.19      0.00
   -8    4   17      1.37      0.00
   -6    4   17     -0.30      0.00
   -4    4   17      1.55      0.00
   -2    4   17     -1.13      0.00
    0    4   17    -12.04      0.00
    2    4   17      2.08      0.00
    4    4   17      0.99      0.00
    6    4   17     -0.90      0.00
   -7    5   17      0.82      0.00
   -5    5   17     -2.39      0.00
   -3    5   17      1.44      0.00
   -1    5   17     -3.92      0.00
    1    5   17     -1.90      0.00
    3    5   17     -2.28      0.00
    5    5   17     -3.59      0.00
    7    5   17      0.16      0.00
   -8    6   17     -1.97      0.00
   -6    6   17      0.58      0.00
   -4    6   17     -2.62      0.00
   -2    6   17      1.01      0.00
    0    6   17     -2.02      0.00
    2    6   17     -6.51      0.00
    4    6   17     -0.89      0.00
    6    6   17     -0.63      0.00
   -7    7   17      1.43      0.00
   -5    7   17     -5.83      0.00
   -3    7   17      0.35      0.00
   -1    7   17      0.95      0.00
    1    7   17     -3.14      0.00
    3    7   17      0.51      0.00
    5    7   17      1.06      0.00
    7    7   17     -2.43      0.00
   -8    8   17      1.77      0.00
   -6    8   17      1.59      0.00
   -4    8   17     -1.07      0.00
   -2    8   17     -6.47      0.00
    0    8   17      2.20      0.00
    2    8   17     -1.42      0.00
    4    8   17      1.93      0.00
    6    8   17      0.15      0.00
   -7    9   17      0.01      0.00
   -5    9   17      1.27      0.00
   -3    9   17     -1.84      0.00
   -1    9   17      0.22      0.00
    1    9   17     -4.91      0.00
    3    9   17      0.35      0.00
    5    9   17     -2.40      0.00
    7    9   17      4.65      0.00
   -8   10   17      0.52      0.00
   -6   10   17     -2.20      0.00
   -4   10   17     -0.65      0.00
   -2   10   17     -4.37      0.00
    0   10   17     -0.88      0.00
    2   10   17     -0.48      0.00
    4   10   17      1.66      0.00
    6   10   17     -1.68      0.00
   -7   11   17      2.78      0.00
   -5   11   17      0.66      0.00
   -3   11   17      0.33      0.00
   -1   11   17      0.81      0.00
    1   11   17      3.44      0.00
    3   11   17     -2.67      0.00
    5   11   17     -2.87      0.00
    7   11   17      3.36      0.00
   -6   12   17     -0.71      0.00
   -4   12   17      2.52      0.00
   -2   12   17     -0.79      0.00
    0   12   17     -0.84      0.00
    2   12   17     -2.89      0.00
    4   12   17     -2.26      0.00
    6   12   17      0.44      0.00
   -7   13   17      0.94      0.00
   -5   13   17      0.80      0.00
   -3   13   17     -0.87      0.00
   -1   13   17     -2.30      0.00
    1   13   17      4.78      0.00
    3   13   17     -1.83      0.00
    5   13   17      0.12      0.00
    7   13   17      3.23      0.00
   -6   14   17      0.21      0.00
   -4   14   17      4.17      0.00
   -2   14   17      2.93      0.00
    0   14   17     -0.84      0.00
    2   14   17     -1.27      0.00
    4   14   17     -2.24      0.00
    6   14   17     -2.07      0.00
   -7   15   17      1.75      0.00
   -5   15   17     -2.98      0.00
   -3   15   17      3.55      0.00
   -1   15   17     -0.64      0.00
    1   15   17      4.48      0.00
    3   15   17      0.42      0.00
    5   15   17      1.21      0.00
   -6   16   17     -1.97      0.00
   -4   16   17      2.22      0.00
   -2   16   17      2.86      0.00
    0   16   17     -1.59      0.00
    2   16   17      0.72      0.00
    4   16   17     -1.59      0.00
    6   16   17      1.13      0.00
   -7   17   17     -0.35      0.00
   -5   17   17     -2.02      0.00
   -3   17   17      0.18      0.00
   -1   17   17      3.58      0.00
    1   17   17      1.98      0.00
    3   17   17      0.12      0.00
    5   17   17     -2.00      0.00
   -6   18   17     -2.32      0.00
   -4   18   17      0.03      0.00
   -2   18   17      3.37      0.00
    0   18   17     -2.54      0.00
    2   18   17      1.19      0.00
    4   18   17      2.55      0.00
    6   18   17      0.38      0.00
   -5   19   17     -0.66      0.00
   -3   19   17     -0.09      0.00
   -1   19   17      0.48      0.00
    1   19   17      2.76      0.00
    3   19   17      1.13      0.00
    5   19   17     -1.31      0.00
   -6   20   17     -0.97      0.00
   -4   20   17     -0.12      0.00
   -2   20   17     -0.02      0.00
    0   20   17     -0.46      0.00
    2   20   17     -2.34      0.00
    4   20   17      0.24      0.00
   -5   21   17      0.64      0.00
   -3   21   17      0.64      0.00
   -1   21   17      2.98      0.00
    1   21   17     -2.04      0.00
    3   21   17      0.12      0.00
    5   21   17      0.77      0.00
   -6   22   17     -1.52      0.00
   -4   22   17     -2.16      0.00
   -2   22   17     -0.37      0.00
    0   22   17     -0.24      0.00
    2   22   17     -2.66      0.00
    4   22   17      1.48      0.00
   -5   23   17     -1.44      0.00
   -3   23   17      1.20      0.00
   -1   23   17     -0.08      0.00
    1   23   17      0.00      0.00
    3   23   17      0.60      0.00
    5   23   17      1.64      0.00
   -4   24   17      0.44      0.00
   -2   24   17      2.97      0.00
    0   24   17      0.83      0.00
    2   24   17     -2.18      0.00
    4   24   17      0.35      0.00
   -5   25   17      0.73      0.00
   -3   25   17      1.72      0.00
   -1   25   17      0.38      0.00
    1   25   17     -0.46      0.00
    3   25   17      1.27      0.00
   -4   26   17      0.59      0.00
   -2   26   17     -0.16      0.00
    0   26   17     -1.33      0.00
    2   26   17     -1.66      0.00
    4   26   17     -0.76      0.00
   -3   27   17     -2.25      0.00
   -1   27   17      1.00      0.00
    1   27   17     -2.09      0.00
    3   27   17     -1.75      0.00
   -4   28   17      0.27      0.00
   -2   28   17     -0.68      0.00
    0   28   17      1.30      0.00
    2   28   17     -0.03      0.00
   -3   29   17     -2.36      0.00
   -1   29   17      0.50      0.00
    1   29   17      0.41      0.00
   -2   30   17      2.71      0.00
    0   30   17     -1.33      0.00
   -1   31   17      0.14      0.00
   -8    0   18     -1.00      0.00
   -6    0   18     -3.58      0.00
   -4    0   18      2.58      0.00
   -2    0   18     -5.83      0.00
    0    0   18     -7.91      0.00
    2    0   18     -2.60      0.00
    4    0   18      2.23      0.00
    6    0   18      1.93      0.00
   -7    1   18      0.39      0.00
   -5    1   18     -2.59      0.00
   -3    1   18      0.20      0.00
   -1    1   18      3.93      0.00
    1    1   18     -3.30      0.00
    3    1   18     -0.18      0.00
    5    1   18      1.39      0.00
    7    1   18     -0.25      0.00
   -8    2   18     -1.26      0.00
   -6    2   18      0.38      0.00
   -4    2   18     -2.71      0.00
   -2    2   18     -0.59      0.00
    0    2   18      5.13      0.00
    2    2   18     -6.06      0.00
    4    2   18     -0.03      0.00
    6    2   18      0.86      0.00
   -7    3   18     -6.07      0.00
   -5    3   18     -4.87      0.00
   -3    3   18     -2.12      0.00
   -1    3   18      5.33      0.00
    1    3   18      1.14      0.00
    3    3   18      0.47      0.00
    5    3   18      1.65      0.00
    7    3   18     -1.00      0.00
   -8    4   18      1.51      0.00
   -6    4   18      0.22      0.00
   -4    4   18      0.70      0.00
   -2    4   18     -1.47      0.00
    0    4   18      3.49      0.00
    2    4   18      2.64      0.00
    4    4   18     -0.21      0.00
    6    4   18      0.77      0.00
   -7    5   18      0.07      0.00
   -5    5   18     -1.01      0.00
   -3    5   18      1.71      0.00
   -1    5   18     -6.09      0.00
    1    5   18     -0.13      0.00
    3    5   18      0.04      0.00
    5    5   18     -0.42      0.00
    7    5   18      2.88      0.00
   -8    6   18      2.20      0.00
   -6    6   18      0.15      0.00
   -4    6   18      0.51      0.00
   -2    6   18     -0.60      0.00
    0    6   18     -8.14      0.00
    2    6   18     -0.75      0.00
    4    6   18     -2.62      0.00
    6    6   18      0.81      0.00
   -7    7   18     -0.96      0.00
   -5    7   18      0.65      0.00
   -3    7   18     -0.26      0.00
   -1    7   18     -0.07      0.00
    1    7   18      3.96      0.00
    3    7   18     -2.61      0.00
    5    7   18     -1.93      0.00
    7    7   18     -0.70      0.00
   -8    8   18      2.38      0.00
   -6    8   18     -1.27      0.00
   -4    8   18      3.61      0.00
   -2    8   18      6.34      0.00
    0    8   18      0.91      0.00
    2    8   18     -0.97      0.00
    4    8   18     -3.83      0.00
    6    8   18     -2.44      0.00
   -7    9   18      0.54      0.00
   -5    9   18     -0.07      0.00
   -3    9   18     -1.33      0.00
   -1    9   18      0.79      0.00
    1    9   18      4.18      0.00
    3    9   18     -0.18      0.00
    5    9   18      0.61      0.00
    7    9   18      2.09      0.00
   -8   10   18      1.19      0.00
   -6   10   18      0.10      0.00
   -4   10   18      0.38      0.00
   -2   10   18      3.13      0.00
    0   10   18     -2.21      0.00
    2   10   18      5.46      0.00
    4   10   18     -1.90      0.00
    6   10   18     -0.84      0.00
   -7   11   18      0.09      0.00
   -5   11   18     -1.94      0.00
   -3   11   18      0.94      0.00
   -1   11   18      2.08      0.00
    1   11   18      1.11      0.00
    3   11   18     -1.38      0.00
    5   11   18     -0.15      0.00
    7   11   18     -0.65      0.00
   -6   12   18      0.29      0.00
   -4   12   18     -1.70      0.00
   -2   12   18      4.73      0.00
    0   12   18     -0.67      0.00
    2   12   18      1.03      0.00
    4   12   18     -0.93      0.00
    6   12   18     -0.87      0.00
   -7   13   18     -2.24      0.00
   -5   13   18     -4.21      0.00
   -3   13   18     -3.82      0.00
   -1   13   18      2.11      0.00
    1   13   18     -1.19      0.00
    3   13   18      3.16      0.00
    5   13   18     -1.00      0.00
    7   13   18     -1.22      0.00
   -6   14   18     -0.34      0.00
   -4   14   18     -2.28      0.00
   -2   14   18     -1.21      0.00
    0   14   18     -3.79      0.00
    2   14   18     -1.50      0.00
    4   14   18     -0.80      0.00
    6   14   18      1.76      0.00
   -7   15   18      0.82      0.00
   -5   15   18     -0.94      0.00
   -3   15   18      0.25      0.00
   -1   15   18      1.89      0.00
    1   15   18     -0.62      0.00
    3   15   18      3.48      0.00
    5   15   18      1.91      0.00
   -6   16   18      0.88      0.00
   -4   16   18     -0.02      0.00
   -2   16   18      0.38      0.00
    0   16   18     -0.20      0.00
    2   16   18     -0.23      0.00
    4   16   18      2.07      0.00
    6   16   18     -0.26      0.00
   -7   17   18     -0.23      0.00
   -5   17   18      1.10      0.00
   -3   17   18      2.72      0.00
   -1   17   18     -1.67      0.00
    1   17   18     -2.24      0.00
    3   17   18     -0.27      0.00
    5   17   18      1.96      0.00
   -6   18   18     -1.96      0.00
   -4   18   18     -2.05      0.00
   -2   18   18     -2.45      0.00
    0   18   18      3.25      0.00
    2   18   18     -2.12      0.00
    4   18   18      0.75      0.00
    6   18   18      1.60      0.00
   -5   19   18      1.00      0.00
   -3   19   18     -1.37      0.00
   -1   19   18     -0.77      0.00
    1   19   18      0.12      0.00
    3   19   18      0.73      0.00
    5   19   18     -2.62      0.00
   -6   20   18      0.85      0.00
   -4   20   18      0.93      0.00
   -2   20   18      4.11      0.00
    0   20   18      2.43      0.00
    2   20   18      1.85      0.00
    4   20   18      2.25      0.00
   -5   21   18      4.29      0.00
   -3   21   18      0.38      0.00
   -1   21   18     -2.50      0.00
    1   21   18     -1.36      0.00
    3   21   18     -0.64      0.00
    5   21   18      1.86      0.00
   -6   22   18      1.42      0.00
   -4   22   18     -0.42      0.00
   -2   22   18     -1.26      0.00
    0   22   18     -3.26      0.00
    2   22   18     -0.53      0.00
    4   22   18     -0.36      0.00
   -5   23   18     -1.21      0.00
   -3   23   18     -2.20      0.00
   -1   23   18     -0.81      0.00
    1   23   18     -1.25      0.00
    3   23   18     -0.45      0.00
    5   23   18      0.75      0.00
   -4   24   18      1.73      0.00
   -2   24   18      1.83      0.00
    0   24   18      3.17      0.00
    2   24   18      2.40      0.00
    4   24   18      3.06      0.00
   -5   25   18      3.55      0.00
   -3   25   18      1.19      0.00
   -1   25   18     -0.23      0.00
    1   25   18      0.52      0.00
    3   25   18     -1.89      0.00
   -4   26   18      1.30      0.00
   -2   26   18      2.56      0.00
    0   26   18      0.40      0.00
    2   26   18     -0.83      0.00
   -3   27   18      2.11      0.00
   -1   27   18      0.50      0.00
    1   27   18     -0.16      0.00
    3   27   18     -3.07      0.00
   -2   28   18     -0.37      0.00
    0   28   18      2.33      0.00
    2   28   18     -0.50      0.00
   -3   29   18      1.40      0.00
   -1   29   18      1.61      0.00
    1   29   18      0.24      0.00
   -2   30   18      0.78      0.00
    0   30   18      0.87      0.00
   -7    1   19      1.11      0.00
   -5    1   19     -0.11      0.00
   -3    1   19      0.03      0.00
   -1    1   19     -5.50      0.00
    1    1   19     -2.72      0.00
    3    1   19      0.56      0.00
    5    1   19      1.75      0.00
    7    1   19      1.35      0.00
   -8    2   19      1.36      0.00
   -6    2   19      0.14      0.00
   -4    2   19     -0.01      0.00
   -2    2   19      4.99      0.00
    0    2   19     -8.45      0.00
    2    2   19      0.03      0.00
    4    2   19     -2.43      0.00
    6    2   19     -0.33      0.00
   -7    3   19     -2.35      0.00
   -5    3   19      0.66      0.00
   -3    3   19      0.91      0.00
   -1    3   19      0.48      0.00
    1    3   19      2.03      0.00
    3    3   19      3.70      0.00
    5    3   19     -2.42      0.00
    7    3   19     -0.50      0.00
   -8    4   19     -1.66      0.00
   -6    4   19     -1.03      0.00
   -4    4   19      0.87      0.00
   -2    4   19      7.37      0.00
    0    4   19      2.97      0.00
    2    4   19     -0.39      0.00
    4    4   19     -2.42      0.00
    6    4   19     -0.82      0.00
   -7    5   19     -0.24      0.00
   -5    5   19     -4.63      0.00
   -3    5   19      0.27      0.00
   -1    5   19      0.95      0.00
    1    5   19     -1.98      0.00
    3    5   19      0.54      0.00
    5    5   19      2.89      0.00
    7    5   19      1.70      0.00
   -8    6   19      1.30      0.00
   -6    6   19     -0.06      0.00
   -4    6   19      1.75      0.00
   -2    6   19     -0.94      0.00
    0    6   19     -0.25      0.00
    2    6   19      3.81      0.00
    4    6   19      1.59      0.00
    6    6   19     -0.12      0.00
   -7    7   19      0.73      0.00
   -5    7   19     -0.37      0.00
   -3    7   19      1.45      0.00
   -1    7   19      1.61      0.00
    1    7   19     -3.78      0.00
    3    7   19      0.76      0.00
    5    7   19     -4.32      0.00
    7    7   19      1.81      0.00
   -8    8   19     -1.22      0.00
   -6    8   19      1.50      0.00
   -4    8   19     -1.20      0.00
   -2    8   19      0.44      0.00
    0    8   19     -3.64      0.00
    2    8   19     -0.33      0.00
    4    8   19      1.49      0.00
    6    8   19      0.60      0.00
   -7    9   19      1.63      0.00
   -5    9   19     -0.79      0.00
   -3    9   19     -1.78      0.00
   -1    9   19      3.89      0.00
    1    9   19      1.74      0.00
    3    9   19     -1.90      0.00
    5    9   19     -2.14      0.00
    7    9   19     -1.43      0.00
   -8   10   19      0.63      0.00
   -6   10   19      1.64      0.00
   -4   10   19     -0.22      0.00
   -2   10   19     -1.36      0.00
    0   10   19      1.48      0.00
    2   10   19     -3.34      0.00
    4   10   19      2.27      0.00
    6   10   19      2.33      0.00
   -7   11   19      0.10      0.00
   -5   11   19      3.25      0.00
   -3   11   19     -0.40      0.00
   -1   11   19     -1.21      0.00
    1   11   19      4.30      0.00
    3   11   19     -0.86      0.00
    5   11   19     -0.10      0.00
    7   11   19      3.52      0.00
   -6   12   19     -0.27      0.00
   -4   12   19     -0.99      0.00
   -2   12   19     -2.61      0.00
    0   12   19      2.46      0.00
    2   12   19     -1.91      0.00
    4   12   19      2.59      0.00
    6   12   19      1.30      0.00
   -7   13   19      1.32      0.00
   -5   13   19     -0.60      0.00
   -3   13   19      2.72      0.00
   -1   13   19     -3.84      0.00
    1   13   19      2.64      0.00
    3   13   19     -1.95      0.00
    5   13   19     -2.05      0.00
   -6   14   19     -2.45      0.00
   -4   14   19      2.01      0.00
   -2   14   19     -1.68      0.00
    0   14   19      0.92      0.00
    2   14   19      0.95      0.00
    4   14   19     -1.18      0.00
    6   14   19      1.57      0.00
   -7   15   19      1.05      0.00
   -5   15   19     -0.41      0.00
   -3   15   19     -3.27      0.00
   -1   15   19     -2.58      0.00
    1   15   19      1.63      0.00
    3   15   19     -1.35      0.00
    5   15   19     -0.07      0.00
   -6   16   19     -1.29      0.00
   -4   16   19      2.85      0.00
   -2   16   19     -0.27      0.00
    0   16   19     -3.06      0.00
    2   16   19      3.24      0.00
    4   16   19      0.10      0.00
    6   16   19     -2.99      0.00
   -7   17   19      1.63      0.00
   -5   17   19     -0.78      0.00
   -3   17   19     -1.26      0.00
   -1   17   19     -2.37      0.00
    1   17   19      3.19      0.00
    3   17   19      1.28      0.00
    5   17   19      0.77      0.00
   -6   18   19      0.51      0.00
   -4   18   19      1.21      0.00
   -2   18   19     -1.44      0.00
    0   18   19     -0.64      0.00
    2   18   19      0.06      0.00
    4   18   19     -1.81      0.00
    6   18   19     -2.97      0.00
   -5   19   19     -0.90      0.00
   -3   19   19     -2.17      0.00
   -1   19   19      2.61      0.00
    1   19   19     -1.40      0.00
    3   19   19     -0.36      0.00
    5   19   19      0.53      0.00
   -6   20   19     -0.54      0.00
   -4   20   19     -2.67      0.00
   -2   20   19      0.14      0.00
    0   20   19     -0.25      0.00
    2   20   19     -1.96      0.00
    4   20   19      2.38      0.00
   -5   21   19     -1.18      0.00
   -3   21   19     -1.68      0.00
   -1   21   19     -0.46      0.00
    1   21   19     -0.47      0.00
    3   21   19      0.87      0.00
    5   21   19     -0.71      0.00
   -4   22   19     -0.24      0.00
   -2   22   19      1.02      0.00
    0   22   19     -1.35      0.00
    2   22   19     -2.85      0.00
    4   22   19     -1.64      0.00
   -5   23   19      0.18      0.00
   -3   23   19      2.27      0.00
   -1   23   19     -0.37      0.00
    1   23   19      0.72      0.00
    3   23   19     -0.93      0.00
   -4   24   19      1.27      0.00
   -2   24   19     -3.54      0.00
    0   24   19     -3.31      0.00
    2   24   19     -1.55      0.00
    4   24   19      0.02      0.00
   -3   25   19     -0.48      0.00
   -1   25   19     -1.15      0.00
    1   25   19     -0.04      0.00
    3   25   19     -1.25      0.00
   -4   26   19      1.49      0.00
   -2   26   19     -0.20      0.00
    0   26   19      0.45      0.00
    2   26   19      0.10      0.00
   -3   27   19      0.86      0.00
   -1   27   19      0.69      0.00
    1   27   19      0.12      0.00
    3   27   19      2.08      0.00
   -2   28   19      3.43      0.00
    0   28   19     -0.11      0.00
    2   28   19     -0.39      0.00
   -1   29   19      1.06      0.00
    1   29   19     -2.98      0.00
    0   30   19     -0.07      0.00
   -8    0   20     -1.55      0.00
   -6    0   20     -0.18      0.00
   -4    0   20     -0.91      0.00
   -2    0   20      1.35      0.00
    0    0   20      4.50      0.00
    2    0   20     -2.96      0.00
    4    0   20     -2.09      0.00
    6    0   20      0.83      0.00
   -7    1   20     -3.71      0.00
   -5    1   20     -2.65      0.00
   -3    1   20     -4.25      0.00
   -1    1   20      4.81      0.00
    1    1   20     -0.08      0.00
    3    1   20      2.06      0.00
    5    1   20     -0.61      0.00
    7    1   20     -2.06      0.00
   -8    2   20     -0.32      0.00
   -6    2   20      0.55      0.00
   -4    2   20      0.24      0.00
   -2    2   20     -0.31      0.00
    0    2   20     -2.72      0.00
    2    2   20      1.46      0.00
    4    2   20      0.53      0.00
    6    2   20      1.55      0.00
   -7    3   20      0.91      0.00
   -5    3   20     -1.53      0.00
   -3    3   20     -0.84      0.00
   -1    3   20     -1.01      0.00
    1    3   20     -1.93      0.00
    3    3   20     -0.26      0.00
    5    3   20     -2.69      0.00
    7    3   20     -1.14      0.00
   -8    4   20     -0.54      0.00
   -6    4   20      2.53      0.00
   -4    4   20     -1.72      0.00
   -2    4   20     -3.16      0.00
    0    4   20     -4.55      0.00
    2    4   20     -2.09      0.00
    4    4   20     -2.68      0.00
    6    4   20      0.38      0.00
   -7    5   20     -2.45      0.00
   -5    5   20     -1.26      0.00
   -3    5   20     -1.39      0.00
   -1    5   20      1.49      0.00
    1    5   20     -0.71      0.00
    3    5   20     -1.90      0.00
    5    5   20     -0.26      0.00
    7    5   20     -0.85      0.00
   -8    6   20      1.30      0.00
   -6    6   20      0.20      0.00
   -4    6   20      1.38      0.00
   -2    6   20     -1.50      0.00
    0    6   20      4.41      0.00
    2    6   20      0.22      0.00
    4    6   20     -1.76      0.00
    6    6   20     -1.21      0.00
   -7    7   20     -0.22      0.00
   -5    7   20      2.58      0.00
   -3    7   20     -1.16      0.00
   -1    7   20      0.25      0.00
    1    7   20     -0.24      0.00
    3    7   20      0.78      0.00
    5    7   20      2.98      0.00
    7    7   20      4.19      0.00
   -8    8   20      1.46      0.00
   -6    8   20     -0.58      0.00
   -4    8   20      0.73      0.00
   -2    8   20     -2.21      0.00
    0    8   20     -4.87      0.00
    2    8   20      4.19      0.00
    4    8   20     -0.94      0.00
    6    8   20      0.23      0.00
   -7    9   20     -0.94      0.00
   -5    9   20      1.51      0.00
   -3    9   20      2.95      0.00
   -1    9   20     -3.02      0.00
    1    9   20      2.90      0.00
    3    9   20     -3.58      0.00
    5    9   20      0.29      0.00
    7    9   20     -0.25      0.00
   -6   10   20      1.24      0.00
   -4   10   20      3.70      0.00
   -2   10   20      7.21      0.00
    0   10   20     -0.95      0.00
    2   10   20      0.03      0.00
    4   10   20     -3.11      0.00
    6   10   20     -1.82      0.00
   -7   11   20     -1.39      0.00
   -5   11   20     -1.22      0.00
   -3   11   20     -3.11      0.00
   -1   11   20     -1.88      0.00
    1   11   20      2.90      0.00
    3   11   20      2.24      0.00
    5   11   20      0.70      0.00
   -6   12   20      0.84      0.00
   -4   12   20      0.49      0.00
   -2   12   20      3.78      0.00
    0   12   20     -5.14      0.00
    2   12   20     -0.21      0.00
    4   12   20     -1.06      0.00
    6   12   20      0.67      0.00
   -7   13   20     -1.17      0.00
   -5   13   20     -0.70      0.00
   -3   13   20      3.32      0.00
   -1   13   20      2.85      0.00
    1   13   20      1.42      0.00
    3   13   20      3.03      0.00
    5   13   20      2.22      0.00
   -6   14   20      1.45      0.00
   -4   14   20      0.68      0.00
   -2   14   20      3.85      0.00
    0   14   20     -0.99      0.00
    2   14   20      0.40      0.00
    4   14   20      1.28      0.00
    6   14   20      1.53      0.00
   -7   15   20     -3.23      0.00
   -5   15   20     -2.44      0.00
   -3   15   20      0.70      0.00
   -1   15   20      2.50      0.00
    1   15   20     -3.93      0.00
    3   15   20      3.86      0.00
    5   15   20     -0.01      0.00
   -6   16   20     -3.52      0.00
   -4   16   20     -2.04      0.00
   -2   16   20      0.37      0.00
    0   16   20     -2.55      0.00
    2   16   20     -0.40      0.00
    4   16   20      0.24      0.00
    6   16   20      2.38      0.00
   -5   17   20      1.05      0.00
   -3   17   20     -0.99      0.00
   -1   17   20      2.89      0.00
    1   17   20      0.32      0.00
    3   17   20      2.05      0.00
    5   17   20     -1.68      0.00
   -6   18   20      0.27      0.00
   -4   18   20     -0.12      0.00
   -2   18   20      2.86      0.00
    0   18   20      2.21      0.00
    2   18   20      1.31      0.00
    4   18   20      1.67      0.00
   -5   19   20      2.49      0.00
   -3   19   20     -0.15      0.00
   -1   19   20     -0.67      0.00
    1   19   20     -0.48      0.00
    3   19   20      1.00      0.00
    5   19   20      1.31      0.00
   -6   20   20      0.26      0.00
   -4   20   20     -2.28      0.00
   -2   20   20     -2.75      0.00
    0   20   20     -0.41      0.00
    2   20   20     -2.53      0.00
    4   20   20     -1.23      0.00
   -5   21   20     -1.30      0.00
   -3   21   20     -3.18      0.00
   -1   21   20     -3.53      0.00
    1   21   20     -0.75      0.00
    3   21   20      0.77      0.00
    5   21   20     -0.20      0.00
   -4   22   20     -0.65      0.00
   -2   22   20      2.71      0.00
    0   22   20      1.85      0.00
    2   22   20      2.72      0.00
    4   22   20      2.91      0.00
   -5   23   20      4.41      0.00
   -3   23   20      0.98      0.00
   -1   23   20     -1.63      0.00
    1   23   20     -0.29      0.00
    3   23   20     -0.71      0.00
   -4   24   20      1.20      0.00
   -2   24   20     -0.43      0.00
    0   24   20     -2.37      0.00
    2   24   20     -1.22      0.00
    4   24   20      1.64      0.00
   -3   25   20     -0.44      0.00
   -1   25   20     -0.92      0.00
    1   25   20     -1.50      0.00
    3   25   20     -1.37      0.00
   -4   26   20      2.11      0.00
   -2   26   20     -1.82      0.00
    0   26   20      1.34      0.00
    2   26   20      0.54      0.00
   -3   27   20     -0.03      0.00
   -1   27   20      1.11      0.00
    1   27   20      1.36      0.00
   -2   28   20      2.08      0.00
    0   28   20      1.66      0.00
    2   28   20      0.09      0.00
   -1   29   20     -0.21      0.00
    1   29   20     -0.88      0.00
   -7    1   21     -1.00      0.00
   -5    1   21      0.99      0.00
   -3    1   21      1.47      0.00
   -1    1   21     -0.47      0.00
    1    1   21      1.23      0.00
    3    1   21      1.63      0.00
    5    1   21     -1.06      0.00
    7    1   21     -1.30      0.00
   -8    2   21      0.52      0.00
   -6    2   21      1.09      0.00
   -4    2   21     -0.36      0.00
   -2    2   21      4.54      0.00
    0    2   21      0.95      0.00
    2    2   21      4.12      0.00
    4    2   21     -1.48      0.00
    6    2   21     -1.19      0.00
   -7    3   21     -0.25      0.00
   -5    3   21     -0.05      0.00
   -3    3   21      2.68      0.00
   -1    3   21     -2.58      0.00
    1    3   21     -3.69      0.00
    3    3   21     -0.45      0.00
    5    3   21      1.13      0.00
    7    3   21      1.41      0.00
   -8    4   21      3.51      0.00
   -6    4   21      1.96      0.00
   -4    4   21      0.68      0.00
   -2    4   21      3.23      0.00
    0    4   21     -4.98      0.00
    2    4   21      4.05      0.00
    4    4   21      1.07      0.00
    6    4   21      0.32      0.00
   -7    5   21      2.04      0.00
   -5    5   21      2.34      0.00
   -3    5   21      3.59      0.00
   -1    5   21     -2.94      0.00
    1    5   21      0.88      0.00
    3    5   21      1.26      0.00
    5    5   21     -5.85      0.00
    7    5   21     -1.59      0.00
   -8    6   21     -0.28      0.00
   -6    6   21      2.26      0.00
   -4    6   21      0.62      0.00
   -2    6   21      2.94      0.00
    0    6   21     -2.26      0.00
    2    6   21      0.24      0.00
    4    6   21     -1.20      0.00
    6    6   21     -0.89      0.00
   -7    7   21      3.16      0.00
   -5    7   21     -1.31      0.00
   -3    7   21     -1.70      0.00
   -1    7   21      3.99      0.00
    1    7   21      1.32      0.00
    3    7   21     -0.40      0.00
    5    7   21      0.93      0.00
    7    7   21     -0.91      0.00
   -6    8   21      2.35      0.00
   -4    8   21     -0.82      0.00
   -2    8   21      0.79      0.00
    0    8   21      1.66      0.00
    2    8   21      1.12      0.00
    4    8   21      1.54      0.00
    6    8   21     -0.49      0.00
   -7    9   21      0.87      0.00
   -5    9   21      1.08      0.00
   -3    9   21     -2.43      0.00
   -1    9   21     -0.13      0.00
    1    9   21      2.58      0.00
    3    9   21      3.44      0.00
    5    9   21     -0.93      0.00
   -6   10   21      2.69      0.00
   -4   10   21     -1.49      0.00
   -2   10   21     -2.81      0.00
    0   10   21      2.53      0.00
    2   10   21     -1.43      0.00
    4   10   21      1.93      0.00
    6   10   21      0.16      0.00
   -7   11   21      1.02      0.00
   -5   11   21     -1.36      0.00
   -3   11   21     -1.85      0.00
   -1   11   21     -1.61      0.00
    1   11   21      0.23      0.00
    3   11   21     -0.25      0.00
    5   11   21     -2.71      0.00
   -6   12   21     -0.44      0.00
   -4   12   21      0.20      0.00
   -2   12   21     -3.19      0.00
    0   12   21      2.65      0.00
    2   12   21     -3.21      0.00
    4   12   21      1.08      0.00
    6   12   21      1.31      0.00
   -7   13   21      1.14      0.00
   -5   13   21      0.88      0.00
   -3   13   21     -2.88      0.00
   -1   13   21     -1.75      0.00
    1   13   21      1.89      0.00
    3   13   21      1.01      0.00
    5   13   21     -1.03      0.00
   -6   14   21     -0.43      0.00
   -4   14   21     -0.64      0.00
   -2   14   21     -2.19      0.00
    0   14   21      0.84      0.00
    2   14   21     -1.23      0.00
    4   14   21      1.70      0.00
    6   14   21     -0.32      0.00
   -7   15   21      0.43      0.00
   -5   15   21      0.06      0.00
   -3   15   21      1.07      0.00
   -1   15   21     -2.13      0.00
    1   15   21      3.80      0.00
    3   15   21      0.67      0.00
    5   15   21     -1.36      0.00
   -6   16   21     -0.53      0.00
   -4   16   21      1.25      0.00
   -2   16   21     -0.35      0.00
    0   16   21      1.48      0.00
    2   16   21      0.81      0.00
    4   16   21     -0.22      0.00
    6   16   21     -0.63      0.00
   -5   17   21      0.71      0.00
   -3   17   21     -2.36      0.00
   -1   17   21     -2.15      0.00
    1   17   21      1.93      0.00
    3   17   21     -2.90      0.00
    5   17   21     -0.03      0.00
   -6   18   21     -1.11      0.00
   -4   18   21      0.77      0.00
   -2   18   21      1.40      0.00
    0   18   21      1.42      0.00
    2   18   21      0.46      0.00
    4   18   21      2.29      0.00
   -5   19   21      1.13      0.00
   -3   19   21     -1.13      0.00
   -1   19   21     -1.08      0.00
    1   19   21      1.85      0.00
    3   19   21      0.39      0.00
    5   19   21     -0.99      0.00
   -6   20   21      0.37      0.00
   -4   20   21      1.37      0.00
   -2   20   21     -0.18      0.00
    0   20   21     -0.55      0.00
    2   20   21     -0.11      0.00
    4   20   21     -2.03      0.00
   -5   21   21     -0.11      0.00
   -3   21   21      1.25      0.00
   -1   21   21      1.43      0.00
    1   21   21      0.35      0.00
    3   21   21     -0.92      0.00
   -4   22   21      0.62      0.00
   -2   22   21     -4.17      0.00
    0   22   21     -1.11      0.00
    2   22   21     -0.57      0.00
    4   22   21      1.88      0.00
   -5   23   21     -3.15      0.00
   -3   23   21     -0.44      0.00
   -1   23   21     -2.49      0.00
    1   23   21     -0.35      0.00
    3   23   21     -1.26      0.00
   -4   24   21      1.63      0.00
   -2   24   21     -0.17      0.00
    0   24   21      1.47      0.00
    2   24   21     -0.33      0.00
   -3   25   21      2.23      0.00
   -1   25   21     -0.55      0.00
    1   25   21     -0.06      0.00
    3   25   21     -0.30      0.00
   -4   26   21      2.69      0.00
   -2   26   21     -0.94      0.00
    0   26   21     -1.06      0.00
    2   26   21     -1.44      0.00
   -3   27   21     -1.12      0.00
   -1   27   21     -0.24      0.00
    1   27   21     -2.49      0.00
   -2   28   21     -2.64      0.00
    0   28   21     -0.86      0.00
   -1   29   21     -0.10      0.00
   -8    0   22     -1.71      0.00
   -6    0   22      1.60      0.00
   -4    0   22     -0.02      0.00
   -2    0   22      6.48      0.00
    0    0   22     -1.18      0.00
    2    0   22      1.27      0.00
    4    0   22      1.35      0.00
    6    0   22      2.29      0.00
   -7    1   22     -2.44      0.00
   -5    1   22     -0.47      0.00
   -3    1   22     -1.89      0.00
   -1    1   22      4.18      0.00
    1    1   22     -1.06      0.00
    3    1   22      1.37      0.00
    5    1   22     -0.39      0.00
    7    1   22     -2.59      0.00
   -8    2   22     -2.09      0.00
   -6    2   22      1.80      0.00
   -4    2   22     -0.10      0.00
   -2    2   22      1.09      0.00
    0    2   22      2.87      0.00
    2    2   22     -0.36      0.00
    4    2   22     -4.53      0.00
    6    2   22     -0.34      0.00
   -7    3   22     -1.41      0.00
   -5    3   22     -2.20      0.00
   -3    3   22     -1.17      0.00
   -1    3   22      3.30      0.00
    1    3   22     -1.85      0.00
    3    3   22     -1.33      0.00
    5    3   22      1.30      0.00
    7    3   22     -0.65      0.00
   -8    4   22     -1.15      0.00
   -6    4   22      1.76      0.00
   -4    4   22     -1.49      0.00
   -2    4   22     -0.19      0.00
    0    4   22      1.66      0.00
    2    4   22      3.05      0.00
    4    4   22     -0.15      0.00
    6    4   22      0.44      0.00
   -7    5   22      1.22      0.00
   -5    5   22      1.61      0.00
   -3    5   22     -2.39      0.00
   -1    5   22     -0.49      0.00
    1    5   22     -1.02      0.00
    3    5   22      0.83      0.00
    5    5   22     -0.75      0.00
   -6    6   22      3.01      0.00
   -4    6   22      0.03      0.00
   -2    6   22     -5.34      0.00
    0    6   22     -4.12      0.00
    2    6   22      1.78      0.00
    4    6   22     -0.18      0.00
    6    6   22      1.22      0.00
   -7    7   22     -0.68      0.00
   -5    7   22      0.97      0.00
   -3    7   22      0.09      0.00
   -1    7   22     -3.40      0.00
    1    7   22      2.36      0.00
    3    7   22     -1.21      0.00
    5    7   22     -1.50      0.00
   -6    8   22      1.93      0.00
   -4    8   22      2.46      0.00
   -2    8   22     -0.16      0.00
    0    8   22      0.23      0.00
    2    8   22     -0.82      0.00
    4    8   22     -1.43      0.00
    6    8   22     -0.78      0.00
   -7    9   22      0.27      0.00
   -5    9   22      1.09      0.00
   -3    9   22     -2.86      0.00
   -1    9   22     -4.69      0.00
    1    9   22      5.84      0.00
    3    9   22      2.12      0.00
    5    9   22      1.24      0.00
   -6   10   22     -0.34      0.00
   -4   10   22     -0.04      0.00
   -2   10   22     -1.03      0.00
    0   10   22     -3.72      0.00
    2   10   22      2.47      0.00
    4   10   22     -0.16      0.00
    6   10   22     -0.39      0.00
   -7   11   22      0.31      0.00
   -5   11   22      0.28      0.00
   -3   11   22      1.82      0.00
   -1   11   22     -3.74      0.00
    1   11   22      3.49      0.00
    3   11   22     -2.34      0.00
    5   11   22      1.41      0.00
   -6   12   22      1.61      0.00
   -4   12   22      2.16      0.00
   -2   12   22      0.33      0.00
    0   12   22      0.36      0.00
    2   12   22      2.98      0.00
    4   12   22     -0.82      0.00
    6   12   22     -1.12      0.00
   -7   13   22     -0.18      0.00
   -5   13   22     -1.50      0.00
   -3   13   22     -4.05      0.00
   -1   13   22     -1.73      0.00
    1   13   22     -5.75      0.00
    3   13   22      1.75      0.00
    5   13   22      0.24      0.00
   -6   14   22     -0.89      0.00
   -4   14   22     -1.24      0.00
   -2   14   22     -1.77      0.00
    0   14   22     -3.98      0.00
    2   14   22      2.41      0.00
    4   14   22     -1.79      0.00
    6   14   22     -0.86      0.00
   -5   15   22      0.08      0.00
   -3   15   22     -0.26      0.00
   -1   15   22      3.75      0.00
    1   15   22      0.52      0.00
    3   15   22      2.73      0.00
    5   15   22      1.94      0.00
   -6   16   22      2.24      0.00
   -4   16   22     -0.05      0.00
   -2   16   22      1.23      0.00
    0   16   22      0.24      0.00
    2   16   22      1.49      0.00
    4   16   22      0.38      0.00
   -5   17   22     -1.51      0.00
   -3   17   22     -1.44      0.00
   -1   17   22      1.66      0.00
    1   17   22     -0.12      0.00
    3   17   22      2.83      0.00
    5   17   22      0.58      0.00
   -6   18   22     -1.51      0.00
   -4   18   22     -3.34      0.00
   -2   18   22     -0.91      0.00
    0   18   22     -1.40      0.00
    2   18   22     -3.17      0.00
    4   18   22     -1.01      0.00
   -5   19   22     -1.02      0.00
   -3   19   22     -2.91      0.00
   -1   19   22     -2.01      0.00
    1   19   22     -0.08      0.00
    3   19   22      0.39      0.00
    5   19   22     -2.56      0.00
   -4   20   22     -1.67      0.00
   -2   20   22      2.95      0.00
    0   20   22      1.52      0.00
    2   20   22      1.82      0.00
    4   20   22      1.70      0.00
   -5   21   22      1.12      0.00
   -3   21   22     -0.02      0.00
   -1   21   22      0.57      0.00
    1   21   22      0.83      0.00
    3   21   22     -0.83      0.00
   -4   22   22      0.10      0.00
   -2   22   22     -2.86      0.00
    0   22   22     -4.44      0.00
    2   22   22     -0.46      0.00
    4   22   22     -0.37      0.00
   -5   23   22     -1.23      0.00
   -3   23   22     -1.82      0.00
   -1   23   22     -1.84      0.00
    1   23   22     -0.29      0.00
    3   23   22      1.15      0.00
   -4   24   22     -0.26      0.00
   -2   24   22     -1.67      0.00
    0   24   22      0.08      0.00
    2   24   22      3.02      0.00
   -3   25   22      0.61      0.00
   -1   25   22      1.56      0.00
    1   25   22      0.07      0.00
    3   25   22      0.90      0.00
   -2   26   22      2.02      0.00
    0   26   22      2.62      0.00
    2   26   22     -0.28      0.00
   -3   27   22      1.42      0.00
   -1   27   22     -0.36      0.00
    1   27   22     -3.68      0.00
    0   28   22      0.52      0.00
   -7    1   23     -0.46      0.00
   -5    1   23      0.25      0.00
   -3    1   23      1.73      0.00
   -1    1   23      0.04      0.00
    1    1   23     -2.03      0.00
    3    1   23     -0.03      0.00
    5    1   23     -0.32      0.00
   -6    2   23      0.55      0.00
   -4    2   23      1.21      0.00
   -2    2   23      1.46      0.00
    0    2   23     -2.77      0.00
    2    2   23      3.13      0.00
    4    2   23      2.10      0.00
    6    2   23     -0.32      0.00
   -7    3   23      0.91      0.00
   -5    3   23      1.03      0.00
   -3    3   23      3.05      0.00
   -1    3   23     -0.95      0.00
    1    3   23     -0.39      0.00
    3    3   23      1.15      0.00
    5    3   23     -2.16      0.00
   -6    4   23     -0.26      0.00
   -4    4   23      0.89      0.00
   -2    4   23      0.34      0.00
    0    4   23      0.89      0.00
    2    4   23      1.25      0.00
    4    4   23     -0.60      0.00
    6    4   23     -2.16      0.00
   -7    5   23      0.83      0.00
   -5    5   23     -1.81      0.00
   -3    5   23      3.46      0.00
   -1    5   23      1.61      0.00
    1    5   23     -1.21      0.00
    3    5   23     -1.01      0.00
    5    5   23      5.24      0.00
   -6    6   23     -0.25      0.00
   -4    6   23     -0.37      0.00
   -2    6   23      3.20      0.00
    0    6   23     -0.20      0.00
    2    6   23      1.96      0.00
    4    6   23      1.98      0.00
    6    6   23      0.53      0.00
   -7    7   23      0.70      0.00
   -5    7   23     -0.36      0.00
   -3    7   23      0.27      0.00
   -1    7   23     -2.35      0.00
    1    7   23      1.64      0.00
    3    7   23      2.52      0.00
    5    7   23     -0.88      0.00
   -6    8   23      3.19      0.00
   -4    8   23      0.75      0.00
   -2    8   23      2.34      0.00
    0    8   23      0.30      0.00
    2    8   23      0.26      0.00
    4    8   23      1.00      0.00
    6    8   23     -0.55      0.00
   -7    9   23      1.65      0.00
   -5    9   23     -0.98      0.00
   -3    9   23     -0.23      0.00
   -1    9   23      2.24      0.00
    1    9   23     -0.17      0.00
    3    9   23      0.18      0.00
    5    9   23     -1.63      0.00
   -6   10   23      1.59      0.00
   -4   10   23     -0.25      0.00
   -2   10   23      1.86      0.00
    0   10   23      2.06      0.00
    2   10   23     -2.23      0.00
    4   10   23      1.84      0.00
    6   10   23      0.05      0.00
   -7   11   23      0.22      0.00
   -5   11   23      1.27      0.00
   -3   11   23     -0.63      0.00
   -1   11   23      1.70      0.00
    1   11   23      2.42      0.00
    3   11   23      4.36      0.00
    5   11   23     -2.94      0.00
   -6   12   23      0.32      0.00
   -4   12   23     -1.00      0.00
   -2   12   23     -0.24      0.00
    0   12   23      1.80      0.00
    2   12   23     -4.19      0.00
    4   12   23      0.38      0.00
    6   12   23      0.92      0.00
   -7   13   23     -0.22      0.00
   -5   13   23      0.08      0.00
   -3   13   23      0.60      0.00
   -1   13   23      1.47      0.00
    1   13   23      0.27      0.00
    3   13   23      1.06      0.00
    5   13   23     -3.46      0.00
   -6   14   23     -1.63      0.00
   -4   14   23     -0.15      0.00
   -2   14   23     -0.09      0.00
    0   14   23      0.01      0.00
    2   14   23     -1.54      0.00
    4   14   23     -0.81      0.00
   -5   15   23      0.22      0.00
   -3   15   23     -1.90      0.00
   -1   15   23     -1.55      0.00
    1   15   23     -0.45      0.00
    3   15   23     -1.10      0.00
    5   15   23     -1.98      0.00
   -6   16   23     -0.08      0.00
   -4   16   23      0.55      0.00
   -2   16   23     -0.77      0.00
    0   16   23      4.06      0.00
    2   16   23     -1.73      0.00
    4   16   23     -0.64      0.00
   -5   17   23      0.22      0.00
   -3   17   23     -0.88      0.00
   -1   17   23     -1.56      0.00
    1   17   23      3.50      0.00
    3   17   23      1.30      0.00
    5   17   23     -1.35      0.00
   -6   18   23      2.26      0.00
   -4   18   23      1.39      0.00
   -2   18   23     -0.74      0.00
    0   18   23      2.17      0.00
    2   18   23     -1.05      0.00
    4   18   23     -1.36      0.00
   -5   19   23      0.80      0.00
   -3   19   23     -0.74      0.00
   -1   19   23     -2.16      0.00
    1   19   23      1.83      0.00
    3   19   23     -1.21      0.00
   -4   20   23     -0.42      0.00
   -2   20   23     -2.68      0.00
    0   20   23      1.01      0.00
    2   20   23     -1.82      0.00
    4   20   23      1.92      0.00
   -5   21   23      0.92      0.00
   -3   21   23     -0.30      0.00
   -1   21   23     -2.25      0.00
    1   21   23     -0.10      0.00
    3   21   23     -0.91      0.00
   -4   22   23      1.04      0.00
   -2   22   23     -0.41      0.00
    0   22   23      0.45      0.00
    2   22   23     -0.43      0.00
    4   22   23     -0.77      0.00
   -3   23   23      1.36      0.00
   -1   23   23      0.79      0.00
    1   23   23      0.49      0.00
    3   23   23     -0.35      0.00
   -4   24   23      2.35      0.00
   -2   24   23     -4.06      0.00
    0   24   23     -1.20      0.00
    2   24   23     -0.76      0.00
   -3   25   23     -2.93      0.00
   -1   25   23     -2.10      0.00
    1   25   23     -0.33      0.00
   -2   26   23     -2.03      0.00
    0   26   23      1.12      0.00
    2   26   23      1.52      0.00
   -1   27   23     -0.89      0.00
    1   27   23     -0.78      0.00
   -6    0   24      2.46      0.00
   -4    0   24     -0.52      0.00
   -2    0   24     -0.54      0.00
    0    0   24      4.24      0.00
    2    0   24      3.30      0.00
    4    0   24     -3.23      0.00
    6    0   24     -1.54      0.00
   -7    1   24      0.13      0.00
   -5    1   24     -1.38      0.00
   -3    1   24     -0.15      0.00
   -1    1   24      1.15      0.00
    1    1   24     -3.84      0.00
    3    1   24     -0.50      0.00
    5    1   24      1.45      0.00
   -6    2   24      1.61      0.00
   -4    2   24     -2.70      0.00
   -2    2   24      2.21      0.00
    0    2   24     -1.97      0.00
    2    2   24      4.80      0.00
    4    2   24      2.44      0.00
    6    2   24      1.22      0.00
   -7    3   24      1.63      0.00
   -5    3   24      0.89      0.00
   -3    3   24     -2.77      0.00
   -1    3   24     -0.96      0.00
    1    3   24      1.10      0.00
    3    3   24      0.49      0.00
    5    3   24     -1.63      0.00
   -6    4   24      2.63      0.00
   -4    4   24     -0.22      0.00
   -2    4   24     -3.18      0.00
    0    4   24      0.09      0.00
    2    4   24      0.62      0.00
    4    4   24     -2.82      0.00
    6    4   24     -0.02      0.00
   -7    5   24      1.26      0.00
   -5    5   24     -2.39      0.00
   -3    5   24     -2.04      0.00
   -1    5   24      0.57      0.00
    1    5   24      0.31      0.00
    3    5   24     -0.07      0.00
    5    5   24      0.57      0.00
   -6    6   24      1.52      0.00
   -4    6   24     -0.96      0.00
   -2    6   24     -2.29      0.00
    0    6   24      2.59      0.00
    2    6   24     -1.05      0.00
    4    6   24     -1.75      0.00
    6    6   24     -0.30      0.00
   -7    7   24      0.82      0.00
   -5    7   24     -0.41      0.00
   -3    7   24     -4.94      0.00
   -1    7   24     -2.85      0.00
    1    7   24      1.77      0.00
    3    7   24      2.55      0.00
    5    7   24      3.39      0.00
   -6    8   24     -1.19      0.00
   -4    8   24      1.10      0.00
   -2    8   24     -2.82      0.00
    0    8   24      1.05      0.00
    2    8   24      0.50      0.00
    4    8   24     -0.20      0.00
    6    8   24     -0.16      0.00
   -7    9   24     -0.53      0.00
   -5    9   24     -1.03      0.00
   -3    9   24     -0.79      0.00
   -1    9   24     -2.83      0.00
    1    9   24      1.41      0.00
    3    9   24     -2.10      0.00
    5    9   24      0.41      0.00
   -6   10   24     -0.10      0.00
   -4   10   24      2.17      0.00
   -2   10   24     -1.20      0.00
    0   10   24      2.73      0.00
    2   10   24      0.45      0.00
    4   10   24     -0.22      0.00
    6   10   24     -0.66      0.00
   -7   11   24      0.16      0.00
   -5   11   24     -1.02      0.00
   -3   11   24     -1.57      0.00
   -1   11   24     -1.45      0.00
    1   11   24     -1.94      0.00
    3   11   24      0.74      0.00
    5   11   24     -2.80      0.00
   -6   12   24     -0.80      0.00
   -4   12   24     -1.69      0.00
   -2   12   24     -1.86      0.00
    0   12   24     -1.12      0.00
    2   12   24      1.26      0.00
    4   12   24     -1.07      0.00
    6   12   24     -0.27      0.00
   -5   13   24     -0.72      0.00
   -3   13   24      2.17      0.00
   -1   13   24      3.02      0.00
    1   13   24      3.73      0.00
    3   13   24     -0.60      0.00
    5   13   24      1.23      0.00
   -6   14   24      1.39      0.00
   -4   14   24      1.50      0.00
   -2   14   24      1.89      0.00
    0   14   24      0.58      0.00
    2   14   24      1.45      0.00
    4   14   24      0.67      0.00
   -5   15   24     -1.65      0.00
   -3   15   24     -1.86      0.00
   -1   15   24     -0.99      0.00
    1   15   24     -0.72      0.00
    3   15   24     -0.93      0.00
    5   15   24      0.54      0.00
   -6   16   24     -1.80      0.00
   -4   16   24     -0.89      0.00
   -2   16   24     -0.57      0.00
    0   16   24     -1.65      0.00
    2   16   24     -0.19      0.00
    4   16   24     -0.95      0.00
   -5   17   24     -0.18      0.00
   -3   17   24      0.14      0.00
   -1   17   24      0.49      0.00
    1   17   24      0.97      0.00
    3   17   24     -1.09      0.00
    5   17   24     -0.55      0.00
   -4   18   24      0.45      0.00
   -2   18   24      0.82      0.00
    0   18   24      2.58      0.00
    2   18   24      2.89      0.00
    4   18   24      1.22      0.00
   -5   19   24     -1.41      0.00
   -3   19   24     -0.65      0.00
   -1   19   24      3.24      0.00
    1   19   24      0.51      0.00
    3   19   24     -0.48      0.00
   -4   20   24     -1.09      0.00
   -2   20   24     -3.92      0.00
    0   20   24     -3.30      0.00
    2   20   24      0.94      0.00
    4   20   24     -0.22      0.00
   -5   21   24     -2.15      0.00
   -3   21   24     -1.69      0.00
   -1   21   24     -2.19      0.00
    1   21   24     -1.06      0.00
    3   21   24      0.81      0.00
   -4   22   24     -1.08      0.00
   -2   22   24     -0.92      0.00
    0   22   24     -0.33      0.00
    2   22   24      3.36      0.00
   -3   23   24     -0.35      0.00
   -1   23   24      1.71      0.00
    1   23   24      0.00      0.00
    3   23   24     -0.29      0.00
   -4   24   24      0.65      0.00
   -2   24   24     -0.48      0.00
    0   24   24     -0.68      0.00
    2   24   24     -0.52      0.00
   -3   25   24     -0.92      0.00
   -1   25   24     -0.74      0.00
    1   25   24     -2.14      0.00
   -2   26   24     -2.05      0.00
    0   26   24     -1.28      0.00
   -1   27   24      0.68      0.00
   -7    1   25      1.26      0.00
   -5    1   25     -0.22      0.00
   -3    1   25     -0.60      0.00
   -1    1   25      0.15      0.00
    1    1   25     -0.48      0.00
    3    1   25      0.43      0.00
    5    1   25     -1.35      0.00
   -6    2   25      0.56      0.00
   -4    2   25     -0.56      0.00
   -2    2   25     -1.40      0.00
    0    2   25      0.27      0.00
    2    2   25      1.33      0.00
    4    2   25     -0.36      0.00
    6    2   25     -1.24      0.00
   -7    3   25      0.61      0.00
   -5    3   25     -0.39      0.00
   -3    3   25      2.56      0.00
   -1    3   25     -2.52      0.00
    1    3   25      1.18      0.00
    3    3   25      0.68      0.00
    5    3   25      0.02      0.00
   -6    4   25     -1.04      0.00
   -4    4   25      0.21      0.00
   -2    4   25      0.25      0.00
    0    4   25     -2.32      0.00
    2    4   25      1.49      0.00
    4    4   25      1.36      0.00
    6    4   25      0.95      0.00
   -7    5   25      0.01      0.00
   -5    5   25     -1.07      0.00
   -3    5   25     -0.31      0.00
   -1    5   25     -3.76      0.00
    1    5   25      3.26      0.00
    3    5   25      2.43      0.00
    5    5   25     -3.93      0.00
   -6    6   25      0.71      0.00
   -4    6   25      0.78      0.00
   -2    6   25     -0.20      0.00
    0    6   25     -0.65      0.00
    2    6   25     -0.79      0.00
    4    6   25      0.42      0.00
    6    6   25     -1.55      0.00
   -7    7   25      1.35      0.00
   -5    7   25     -3.33      0.00
   -3    7   25      2.30      0.00
   -1    7   25     -0.17      0.00
    1    7   25      1.98      0.00
    3    7   25     -1.78      0.00
    5    7   25      1.47      0.00
   -6    8   25     -0.97      0.00
   -4    8   25     -0.80      0.00
   -2    8   25      1.26      0.00
    0    8   25     -0.67      0.00
    2    8   25      0.37      0.00
    4    8   25      1.01      0.00
    6    8   25     -0.86      0.00
   -7    9   25      1.10      0.00
   -5    9   25     -0.21      0.00
   -3    9   25     -1.60      0.00
   -1    9   25     -0.29      0.00
    1    9   25     -0.05      0.00
    3    9   25      1.10      0.00
    5    9   25      1.05      0.00
   -6   10   25      0.07      0.00
   -4   10   25     -0.72      0.00
   -2   10   25     -0.20      0.00
    0   10   25      0.62      0.00
    2   10   25     -0.52      0.00
    4   10   25      0.37      0.00
    6   10   25     -0.89      0.00
   -5   11   25      0.57      0.00
   -3   11   25     -0.92      0.00
   -1   11   25      2.68      0.00
    1   11   25     -4.98      0.00
    3   11   25     -0.12      0.00
    5   11   25     -0.22      0.00
   -6   12   25      0.28      0.00
   -4   12   25     -1.66      0.00
   -2   12   25     -1.50      0.00
    0   12   25     -0.12      0.00
    2   12   25     -1.30      0.00
    4   12   25     -0.05      0.00
   -5   13   25     -1.38      0.00
   -3   13   25      0.55      0.00
   -1   13   25      2.30      0.00
    1   13   25     -1.94      0.00
    3   13   25      3.77      0.00
    5   13   25     -2.00      0.00
   -6   14   25      0.47      0.00
   -4   14   25     -0.63      0.00
   -2   14   25     -0.56      0.00
    0   14   25      1.52      0.00
    2   14   25     -3.49      0.00
    4   14   25     -2.20      0.00
   -5   15   25     -1.89      0.00
   -3   15   25     -0.35      0.00
   -1   15   25      1.23      0.00
    1   15   25      3.50      0.00
    3   15   25      3.32      0.00
    5   15   25     -1.78      0.00
   -6   16   25     -0.11      0.00
   -4   16   25      0.73      0.00
   -2   16   25      3.24      0.00
    0   16   25     -1.46      0.00
    2   16   25     -2.36      0.00
    4   16   25      0.75      0.00
   -5   17   25     -0.31      0.00
   -3   17   25     -0.53      0.00
   -1   17   25     -2.23      0.00
    1   17   25      1.13      0.00
    3   17   25     -0.66      0.00
   -4   18   25     -0.28      0.00
   -2   18   25      0.48      0.00
    0   18   25      2.51      0.00
    2   18   25     -2.90      0.00
    4   18   25     -0.04      0.00
   -5   19   25      0.64      0.00
   -3   19   25      0.82      0.00
   -1   19   25     -0.28      0.00
    1   19   25      0.33      0.00
    3   19   25      0.16      0.00
   -4   20   25     -0.04      0.00
   -2   20   25      1.55      0.00
    0   20   25      0.59      0.00
    2   20   25     -0.03      0.00
    4   20   25     -1.07      0.00
   -3   21   25      1.27      0.00
   -1   21   25      1.64      0.00
    1   21   25      0.31      0.00
    3   21   25      0.72      0.00
   -4   22   25     -0.62      0.00
   -2   22   25     -2.99      0.00
    0   22   25     -0.21      0.00
    2   22   25     -0.67      0.00
   -3   23   25     -0.57      0.00
   -1   23   25     -1.84      0.00
    1   23   25     -0.38      0.00
    3   23   25      0.05      0.00
   -2   24   25      0.68      0.00
    0   24   25      2.49      0.00
    2   24   25     -0.20      0.00
   -1   25   25     -0.71      0.00
    1   25   25     -0.76      0.00
    0   26   25      1.81      0.00
   -6    0   26     -3.52      0.00
   -4    0   26      0.14      0.00
   -2    0   26      1.30      0.00
    0    0   26     -3.36      0.00
    2    0   26      4.61      0.00
    4    0   26      3.42      0.00
    6    0   26     -0.54      0.00
   -7    1   26     -0.06      0.00
   -5    1   26     -0.72      0.00
   -3    1   26      1.45      0.00
   -1    1   26      0.46      0.00
    1    1   26     -0.82      0.00
    3    1   26     -0.05      0.00
    5    1   26      0.63      0.00
   -6    2   26     -0.80      0.00
   -4    2   26      1.12      0.00
   -2    2   26      0.15      0.00
    0    2   26      2.97      0.00
    2    2   26      1.23      0.00
    4    2   26     -2.24      0.00
    6    2   26     -1.03      0.00
   -7    3   26      0.41      0.00
   -5    3   26     -3.75      0.00
   -3    3   26      0.76      0.00
   -1    3   26      1.13      0.00
    1    3   26     -2.07      0.00
    3    3   26     -1.26      0.00
    5    3   26      3.77      0.00
   -6    4   26     -0.32      0.00
   -4    4   26     -2.39      0.00
   -2    4   26      0.06      0.00
    0    4   26      0.06      0.00
    2    4   26      0.78      0.00
    4    4   26      0.05      0.00
    6    4   26      1.67      0.00
   -7    5   26      1.27      0.00
   -5    5   26     -0.50      0.00
   -3    5   26     -4.15      0.00
   -1    5   26     -1.92      0.00
    1    5   26     -0.30      0.00
    3    5   26      0.42      0.00
    5    5   26      4.35      0.00
   -6    6   26     -0.58      0.00
   -4    6   26      0.97      0.00
   -2    6   26     -0.34      0.00
    0    6   26      0.44      0.00
    2    6   26      0.66      0.00
    4    6   26     -0.49      0.00
   -7    7   26      0.35      0.00
   -5    7   26     -1.97      0.00
   -3    7   26     -1.43      0.00
   -1    7   26      2.21      0.00
    1    7   26     -2.59      0.00
    3    7   26      0.69      0.00
    5    7   26     -1.05      0.00
   -6    8   26      0.58      0.00
   -4    8   26      1.27      0.00
   -2    8   26     -0.60      0.00
    0    8   26      2.37      0.00
    2    8   26     -0.88      0.00
    4    8   26     -0.10      0.00
   -7    9   26      0.64      0.00
   -5    9   26     -0.02      0.00
   -3    9   26     -0.85      0.00
   -1    9   26     -0.46      0.00
    1    9   26     -1.25      0.00
    3    9   26      1.01      0.00
    5    9   26     -3.07      0.00
   -6   10   26     -2.27      0.00
   -4   10   26      0.07      0.00
   -2   10   26     -2.35      0.00
    0   10   26     -0.59      0.00
    2   10   26     -0.95      0.00
    4   10   26     -1.72      0.00
   -5   11   26     -0.42      0.00
   -3   11   26      0.51      0.00
   -1   11   26      1.33      0.00
    1   11   26      1.62      0.00
    3   11   26     -1.38      0.00
    5   11   26      0.02      0.00
   -6   12   26     -0.27      0.00
   -4   12   26      1.76      0.00
   -2   12   26     -0.43      0.00
    0   12   26      1.08      0.00
    2   12   26      0.34      0.00
    4   12   26      0.06      0.00
   -5   13   26     -2.43      0.00
   -3   13   26     -2.27      0.00
   -1   13   26     -2.79      0.00
    1   13   26     -4.02      0.00
    3   13   26     -0.57      0.00
    5   13   26     -0.96      0.00
   -6   14   26      0.70      0.00
   -4   14   26      0.01      0.00
   -2   14   26     -4.80      0.00
    0   14   26      1.26      0.00
    2   14   26      1.29      0.00
    4   14   26     -0.67      0.00
   -5   15   26     -1.81      0.00
   -3   15   26      0.91      0.00
   -1   15   26      0.18      0.00
    1   15   26      2.39      0.00
    3   15   26     -0.40      0.00
    5   15   26      1.94      0.00
   -4   16   26      1.86      0.00
   -2   16   26      0.34      0.00
    0   16   26      4.50      0.00
    2   16   26      1.26      0.00
    4   16   26      2.49      0.00
   -5   17   26     -0.82      0.00
   -3   17   26     -2.09      0.00
   -1   17   26     -0.21      0.00
    1   17   26      1.87      0.00
    3   17   26     -0.56      0.00
   -4   18   26     -1.27      0.00
   -2   18   26     -1.78      0.00
    0   18   26     -2.62      0.00
    2   18   26     -0.64      0.00
    4   18   26      1.24      0.00
   -5   19   26      0.41      0.00
   -3   19   26      0.05      0.00
   -1   19   26     -0.09      0.00
    1   19   26      0.24      0.00
    3   19   26     -0.23      0.00
   -4   20   26     -0.77      0.00
   -2   20   26     -0.25      0.00
    0   20   26     -0.13      0.00
    2   20   26      2.06      0.00
   -3   21   26     -0.08      0.00
   -1   21   26      3.51      0.00
    1   21   26      0.69      0.00
    3   21   26     -0.80      0.00
   -4   22   26     -0.54      0.00
   -2   22   26     -2.27      0.00
    0   22   26     -2.87      0.00
    2   22   26      2.20      0.00
   -3   23   26     -1.52      0.00
   -1   23   26     -0.79      0.00
    1   23   26     -1.50      0.00
   -2   24   26     -2.16      0.00
    0   24   26     -1.18      0.00
    2   24   26      3.24      0.00
   -1   25   26      0.97      0.00
    1   25   26      0.52      0.00
   -7    1   27      0.13      0.00
   -5    1   27      0.33      0.00
   -3    1   27      1.72      0.00
   -1    1   27     -1.93      0.00
    1    1   27      3.15      0.00
    3    1   27      0.33      0.00
    5    1   27     -0.75      0.00
   -6    2   27     -1.35      0.00
   -4    2   27      0.90      0.00
   -2    2   27      0.28      0.00
    0    2   27     -1.26      0.00
    2    2   27     -0.94      0.00
    4    2   27     -1.00      0.00
    6    2   27      0.39      0.00
   -7    3   27     -0.79      0.00
   -5    3   27     -1.18      0.00
   -3    3   27     -0.65      0.00
   -1    3   27      0.57      0.00
    1    3   27      1.87      0.00
    3    3   27      0.75      0.00
    5    3   27     -3.60      0.00
   -6    4   27      1.03      0.00
   -4    4   27     -0.13      0.00
   -2    4   27      0.56      0.00
    0    4   27      3.23      0.00
    2    4   27     -3.50      0.00
    4    4   27      0.30      0.00
   -7    5   27     -0.58      0.00
   -5    5   27     -3.22      0.00
   -3    5   27      2.66      0.00
   -1    5   27     -1.93      0.00
    1    5   27      1.56      0.00
    3    5   27     -2.79      0.00
    5    5   27      2.54      0.00
   -6    6   27     -2.76      0.00
   -4    6   27      0.00      0.00
   -2    6   27      0.10      0.00
    0    6   27      0.90      0.00
    2    6   27     -2.03      0.00
    4    6   27      0.53      0.00
   -5    7   27     -1.06      0.00
   -3    7   27     -0.88      0.00
   -1    7   27     -1.01      0.00
    1    7   27     -0.18      0.00
    3    7   27      0.02      0.00
    5    7   27      0.62      0.00
   -6    8   27     -1.17      0.00
   -4    8   27     -0.61      0.00
   -2    8   27      0.96      0.00
    0    8   27     -0.14      0.00
    2    8   27      0.36      0.00
    4    8   27      1.45      0.00
   -5    9   27     -1.37      0.00
   -3    9   27      2.13      0.00
   -1    9   27      1.77      0.00
    1    9   27     -1.18      0.00
    3    9   27     -0.80      0.00
    5    9   27     -1.33      0.00
   -6   10   27      0.33      0.00
   -4   10   27     -1.09      0.00
   -2   10   27     -1.10      0.00
    0   10   27     -0.88      0.00
    2   10   27     -0.01      0.00
    4   10   27      0.06      0.00
   -5   11   27     -1.42      0.00
   -3   11   27      1.79      0.00
   -1   11   27      2.12      0.00
    1   11   27      0.44      0.00
    3   11   27      1.79      0.00
    5   11   27     -0.75      0.00
   -6   12   27     -0.18      0.00
   -4   12   27     -0.51      0.00
   -2   12   27     -0.56      0.00
    0   12   27     -1.41      0.00
    2   12   27     -1.80      0.00
    4   12   27     -2.28      0.00
   -5   13   27     -0.97      0.00
   -3   13   27     -1.10      0.00
   -1   13   27      0.37      0.00
    1   13   27      1.05      0.00
    3   13   27      1.29      0.00
    5   13   27      1.32      0.00
   -6   14   27     -0.47      0.00
   -4   14   27      1.21      0.00
   -2   14   27      1.46      0.00
    0   14   27     -3.94      0.00
    2   14   27     -0.54      0.00
    4   14   27      1.64      0.00
   -5   15   27     -0.97      0.00
   -3   15   27      0.07      0.00
   -1   15   27     -0.86      0.00
    1   15   27      0.59      0.00
    3   15   27      1.28      0.00
   -4   16   27      0.24      0.00
   -2   16   27     -1.98      0.00
    0   16   27      1.02      0.00
    2   16   27      1.05      0.00
    4   16   27      0.21      0.00
   -5   17   27      0.23      0.00
   -3   17   27      1.23      0.00
   -1   17   27      0.32      0.00
    1   17   27      1.37      0.00
    3   17   27      2.14      0.00
   -4   18   27     -0.30      0.00
   -2   18   27      1.46      0.00
    0   18   27     -0.56      0.00
    2   18   27      2.48      0.00
    4   18   27      1.78      0.00
   -3   19   27      1.05      0.00
   -1   19   27     -0.12      0.00
    1   19   27     -0.53      0.00
    3   19   27      1.43      0.00
   -4   20   27     -1.80      0.00
   -2   20   27     -0.88      0.00
    0   20   27      0.50      0.00
    2   20   27     -0.69      0.00
   -3   21   27      0.11      0.00
   -1   21   27     -1.32      0.00
    1   21   27     -0.38      0.00
    3   21   27      0.67      0.00
   -2   22   27      2.15      0.00
    0   22   27      0.95      0.00
    2   22   27     -2.04      0.00
   -3   23   27      0.66      0.00
   -1   23   27     -0.22      0.00
    1   23   27      1.28      0.00
   -2   24   27     -0.70      0.00
    0   24   27      0.33      0.00
   -6    0   28      0.27      0.00
   -4    0   28      1.69      0.00
   -2    0   28      1.69      0.00
    0    0   28      1.20      0.00
    2    0   28      1.71      0.00
    4    0   28     -0.96      0.00
   -7    1   28      0.24      0.00
   -5    1   28      0.12      0.00
   -3    1   28      1.92      0.00
   -1    1   28     -0.80      0.00
    1    1   28      0.33      0.00
    3    1   28      0.14      0.00
    5    1   28      0.18      0.00
   -6    2   28     -2.24      0.00
   -4    2   28      0.20      0.00
   -2    2   28     -1.14      0.00
    0    2   28     -3.51      0.00
    2    2   28      1.12      0.00
    4    2   28      0.58      0.00
   -5    3   28      0.38      0.00
   -3    3   28     -0.99      0.00
   -1    3   28     -2.56      0.00
    1    3   28      2.00      0.00
    3    3   28      0.06      0.00
    5    3   28      2.40      0.00
   -6    4   28     -2.44      0.00
   -4    4   28      1.16      0.00
   -2    4   28      1.31      0.00
    0    4   28     -0.99      0.00
    2    4   28      0.68      0.00
    4    4   28     -1.57      0.00
   -5    5   28     -3.66      0.00
   -3    5   28     -0.05      0.00
   -1    5   28      2.08      0.00
    1    5   28     -2.56      0.00
    3    5   28     -0.12      0.00
    5    5   28      2.93      0.00
   -6    6   28     -1.15      0.00
   -4    6   28      0.24      0.00
   -2    6   28      0.37      0.00
    0    6   28      0.39      0.00
    2    6   28      0.56      0.00
    4    6   28      1.04      0.00
   -5    7   28     -0.36      0.00
   -3    7   28     -2.74      0.00
   -1    7   28      0.43      0.00
    1    7   28     -4.36      0.00
    3    7   28     -1.15      0.00
    5    7   28      5.34      0.00
   -6    8   28     -3.19      0.00
   -4    8   28      0.88      0.00
   -2    8   28     -1.73      0.00
    0    8   28     -0.73      0.00
    2    8   28      0.93      0.00
    4    8   28      0.72      0.00
   -5    9   28     -0.80      0.00
   -3    9   28      0.04      0.00
   -1    9   28      3.88      0.00
    1    9   28     -3.68      0.00
    3    9   28      1.32      0.00
    5    9   28      1.20      0.00
   -6   10   28      0.12      0.00
   -4   10   28      1.42      0.00
   -2   10   28     -0.16      0.00
    0   10   28      3.25      0.00
    2   10   28      0.37      0.00
    4   10   28      0.50      0.00
   -5   11   28     -2.26      0.00
   -3   11   28     -0.47      0.00
   -1   11   28      0.00      0.00
    1   11   28     -2.76      0.00
    3   11   28      1.47      0.00
    5   11   28     -4.06      0.00
   -6   12   28      0.38      0.00
   -4   12   28      0.68      0.00
   -2   12   28     -4.11      0.00
    0   12   28      0.15      0.00
    2   12   28      0.61      0.00
    4   12   28     -0.78      0.00
   -5   13   28     -2.11      0.00
   -3   13   28      0.56      0.00
   -1   13   28      1.62      0.00
    1   13   28      3.27      0.00
    3   13   28     -0.31      0.00
   -4   14   28      2.15      0.00
   -2   14   28      2.37      0.00
    0   14   28      1.27      0.00
    2   14   28     -0.02      0.00
    4   14   28      1.94      0.00
   -5   15   28     -0.83      0.00
   -3   15   28     -3.04      0.00
   -1   15   28     -2.38      0.00
    1   15   28     -1.11      0.00
    3   15   28     -0.24      0.00
   -4   16   28     -0.34      0.00
   -2   16   28     -0.98      0.00
    0   16   28     -1.83      0.00
    2   16   28     -0.02      0.00
    4   16   28      0.11      0.00
   -5   17   28      0.53      0.00
   -3   17   28      1.09      0.00
   -1   17   28     -0.82      0.00
    1   17   28     -0.50      0.00
    3   17   28      0.05      0.00
   -4   18   28     -0.22      0.00
   -2   18   28      0.27      0.00
    0   18   28      2.81      0.00
    2   18   28      0.52      0.00
   -3   19   28      0.77      0.00
   -1   19   28      1.10      0.00
    1   19   28      0.52      0.00
    3   19   28      0.69      0.00
   -4   20   28     -0.43      0.00
   -2   20   28     -2.35      0.00
    0   20   28     -2.75      0.00
    2   20   28      0.81      0.00
   -3   21   28      0.64      0.00
   -1   21   28     -0.34      0.00
    1   21   28     -1.24      0.00
   -2   22   28     -0.61      0.00
    0   22   28     -0.96      0.00
    2   22   28      1.39      0.00
   -1   23   28      0.81      0.00
    1   23   28      1.46      0.00
    0   24   28     -0.82      0.00
   -5    1   29      0.11      0.00
   -3    1   29     -1.86      0.00
   -1    1   29      1.44      0.00
    1    1   29     -0.46      0.00
    3    1   29     -0.39      0.00
    5    1   29     -0.61      0.00
   -6    2   29      2.73      0.00
   -4    2   29     -1.11      0.00
   -2    2   29      0.83      0.00
    0    2   29      2.31      0.00
    2    2   29     -0.91      0.00
    4    2   29      2.10      0.00
   -5    3   29     -1.26      0.00
   -3    3   29     -0.50      0.00
   -1    3   29     -1.58      0.00
    1    3   29      1.54      0.00
    3    3   29     -1.50      0.00
    5    3   29      1.36      0.00
   -6    4   29     -0.28      0.00
   -4    4   29      0.12      0.00
   -2    4   29     -1.83      0.00
    0    4   29      0.52      0.00
    2    4   29     -2.11      0.00
    4    4   29      0.46      0.00
   -5    5   29     -1.59      0.00
   -3    5   29     -1.16      0.00
   -1    5   29      0.33      0.00
    1    5   29     -0.58      0.00
    3    5   29      0.63      0.00
    5    5   29     -2.15      0.00
   -6    6   29      0.99      0.00
   -4    6   29     -1.57      0.00
   -2    6   29     -0.07      0.00
    0    6   29      2.10      0.00
    2    6   29     -1.11      0.00
    4    6   29      2.17      0.00
   -5    7   29     -2.30      0.00
   -3    7   29      1.99      0.00
   -1    7   29     -1.49      0.00
    1    7   29      1.11      0.00
    3    7   29     -1.84      0.00
   -6    8   29     -0.74      0.00
   -4    8   29     -0.67      0.00
   -2    8   29     -2.34      0.00
    0    8   29      0.08      0.00
    2    8   29     -0.64      0.00
    4    8   29      0.09      0.00
   -5    9   29     -0.48      0.00
   -3    9   29     -0.26      0.00
   -1    9   29     -1.09      0.00
    1    9   29      1.49      0.00
    3    9   29     -0.01      0.00
   -6   10   29     -0.72      0.00
   -4   10   29     -1.26      0.00
   -2   10   29     -2.79      0.00
    0   10   29     -0.60      0.00
    2   10   29      1.15      0.00
    4   10   29     -0.59      0.00
   -5   11   29     -1.88      0.00
   -3   11   29     -0.99      0.00
   -1   11   29      0.30      0.00
    1   11   29     -0.43      0.00
    3   11   29      2.12      0.00
   -4   12   29      1.30      0.00
   -2   12   29     -2.18      0.00
    0   12   29      1.02      0.00
    2   12   29      0.81      0.00
    4   12   29      1.58      0.00
   -5   13   29     -1.78      0.00
   -3   13   29     -0.61      0.00
   -1   13   29      0.25      0.00
    1   13   29      1.71      0.00
    3   13   29      1.42      0.00
   -4   14   29     -0.60      0.00
   -2   14   29     -1.69      0.00
    0   14   29      1.46      0.00
    2   14   29      0.51      0.00
    4   14   29      0.42      0.00
   -5   15   29      0.84      0.00
   -3   15   29     -0.57      0.00
   -1   15   29      0.23      0.00
    1   15   29      3.39      0.00
    3   15   29      1.81      0.00
   -4   16   29     -0.07      0.00
   -2   16   29      2.54      0.00
    0   16   29     -3.08      0.00
    2   16   29      0.10      0.00
   -3   17   29      0.31      0.00
   -1   17   29      0.04      0.00
    1   17   29      2.15      0.00
    3   17   29      0.99      0.00
   -4   18   29     -1.95      0.00
   -2   18   29     -1.22      0.00
    0   18   29     -0.91      0.00
    2   18   29      1.73      0.00
   -3   19   29      2.09      0.00
   -1   19   29     -0.45      0.00
    1   19   29      0.37      0.00
   -2   20   29     -0.29      0.00
    0   20   29     -0.28      0.00
    2   20   29      1.80      0.00
   -3   21   29      0.93      0.00
   -1   21   29     -0.01      0.00
    1   21   29      0.37      0.00
   -2   22   29     -0.76      0.00
    0   22   29      0.75      0.00
   -1   23   29     -1.77      0.00
   -6    0   30     -1.07      0.00
   -4    0   30      1.93      0.00
   -2    0   30     -1.46      0.00
    0    0   30     -3.64      0.00
    2    0   30     -2.87      0.00
    4    0   30     -0.51      0.00
   -5    1   30      1.07      0.00
   -3    1   30      0.90      0.00
   -1    1   30     -0.96      0.00
    1    1   30      1.50      0.00
    3    1   30     -0.67      0.00
    5    1   30     -0.57      0.00
   -6    2   30      0.21      0.00
   -4    2   30      0.39      0.00
   -2    2   30      2.54      0.00
    0    2   30     -0.18      0.00
    2    2   30     -0.16      0.00
    4    2   30     -1.04      0.00
   -5    3   30     -0.01      0.00
   -3    3   30      0.72      0.00
   -1    3   30      0.28      0.00
    1    3   30     -0.16      0.00
    3    3   30     -1.19      0.00
    5    3   30      1.71      0.00
   -6    4   30     -0.10      0.00
   -4    4   30     -0.85      0.00
   -2    4   30      0.01      0.00
    0    4   30      0.19      0.00
    2    4   30     -0.33      0.00
    4    4   30      0.34      0.00
   -5    5   30      0.31      0.00
   -3    5   30     -2.89      0.00
   -1    5   30     -0.74      0.00
    1    5   30     -1.14      0.00
    3    5   30     -0.23      0.00
   -6    6   30     -2.86      0.00
   -4    6   30      0.88      0.00
   -2    6   30     -0.59      0.00
    0    6   30     -1.79      0.00
    2    6   30      2.20      0.00
    4    6   30     -0.46      0.00
   -5    7   30     -1.96      0.00
   -3    7   30      0.99      0.00
   -1    7   30      3.91      0.00
    1    7   30     -1.78      0.00
    3    7   30      2.98      0.00
   -6    8   30     -0.40      0.00
   -4    8   30      1.91      0.00
   -2    8   30      1.19      0.00
    0    8   30      1.75      0.00
    2    8   30      2.04      0.00
    4    8   30     -0.06      0.00
   -5    9   30     -0.73      0.00
   -3    9   30     -0.83      0.00
   -1    9   30      0.11      0.00
    1    9   30     -1.20      0.00
    3    9   30     -0.65      0.00
   -4   10   30      1.39      0.00
   -2   10   30     -2.42      0.00
    0   10   30     -1.05      0.00
    2   10   30      0.71      0.00
    4   10   30     -0.07      0.00
   -5   11   30     -0.72      0.00
   -3   11   30     -0.23      0.00
   -1   11   30      1.24      0.00
    1   11   30      1.95      0.00
    3   11   30     -0.52      0.00
   -4   12   30      1.93      0.00
   -2   12   30      0.92      0.00
    0   12   30      0.10      0.00
    2   12   30      1.08      0.00
    4   12   30      1.29      0.00
   -5   13   30     -0.13      0.00
   -3   13   30     -3.59      0.00
   -1   13   30     -1.34      0.00
    1   13   30     -1.04      0.00
    3   13   30      1.28      0.00
   -4   14   30      0.11      0.00
   -2   14   30     -3.45      0.00
    0   14   30     -2.06      0.00
    2   14   30      3.55      0.00
   -3   15   30     -0.37      0.00
   -1   15   30     -1.22      0.00
    1   15   30     -0.21      0.00
    3   15   30      0.38      0.00
   -4   16   30     -1.20      0.00
   -2   16   30     -0.48      0.00
    0   16   30      2.93      0.00
    2   16   30      1.43      0.00
   -3   17   30     -0.92      0.00
   -1   17   30     -1.05      0.00
    1   17   30     -1.67      0.00
    3   17   30      1.87      0.00
   -4   18   30     -1.24      0.00
   -2   18   30     -1.52      0.00
    0   18   30     -1.37      0.00
    2   18   30     -1.03      0.00
   -3   19   30     -0.91      0.00
   -1   19   30     -0.55      0.00
    1   19   30     -1.62      0.00
   -2   20   30      0.49      0.00
    0   20   30      0.65      0.00
   -1   21   30     -0.14      0.00
    1   21   30      2.83      0.00
    0   22   30     -3.27      0.00
   -5    1   31     -1.79      0.00
   -3    1   31     -0.27      0.00
   -1    1   31     -1.11      0.00
    1    1   31      0.43      0.00
    3    1   31      0.52      0.00
   -6    2   31     -1.61      0.00
   -4    2   31      0.70      0.00
   -2    2   31     -1.05      0.00
    0    2   31      1.06      0.00
    2    2   31     -0.60      0.00
    4    2   31     -0.74      0.00
   -5    3   31     -1.63      0.00
   -3    3   31     -1.61      0.00
   -1    3   31     -0.18      0.00
    1    3   31      0.02      0.00
    3    3   31     -0.70      0.00
   -6    4   31      0.65      0.00
   -4    4   31     -1.53      0.00
   -2    4   31      0.28      0.00
    0    4   31      3.40      0.00
    2    4   31      0.51      0.00
    4    4   31      3.35      0.00
   -5    5   31     -2.75      0.00
   -3    5   31      0.41      0.00
   -1    5   31      0.09      0.00
    1    5   31     -1.20      0.00
    3    5   31     -3.18      0.00
   -6    6   31      0.13      0.00
   -4    6   31      0.19      0.00
   -2    6   31     -1.22      0.00
    0    6   31      2.81      0.00
    2    6   31     -1.26      0.00
    4    6   31      1.59      0.00
   -5    7   31     -1.60      0.00
   -3    7   31     -0.62      0.00
   -1    7   31      0.52      0.00
    1    7   31      0.00      0.00
    3    7   31     -0.79      0.00
   -4    8   31     -1.09      0.00
   -2    8   31     -1.56      0.00
    0    8   31      2.14      0.00
    2    8   31      0.23      0.00
    4    8   31      0.33      0.00
   -5    9   31     -1.29      0.00
   -3    9   31      0.37      0.00
   -1    9   31      2.31      0.00
    1    9   31      1.22      0.00
    3    9   31      1.29      0.00
   -4   10   31      1.01      0.00
   -2   10   31     -0.98      0.00
    0   10   31      2.10      0.00
    2   10   31     -0.11      0.00
   -5   11   31     -0.15      0.00
   -3   11   31     -1.87      0.00
   -1   11   31      0.63      0.00
    1   11   31      2.13      0.00
    3   11   31     -1.11      0.00
   -4   12   31     -1.53      0.00
   -2   12   31     -1.82      0.00
    0   12   31     -0.47      0.00
    2   12   31      0.50      0.00
   -5   13   31      0.56      0.00
   -3   13   31     -1.55      0.00
   -1   13   31      1.58      0.00
    1   13   31     -0.18      0.00
    3   13   31      1.75      0.00
   -4   14   31      0.22      0.00
   -2   14   31      0.28      0.00
    0   14   31     -1.51      0.00
    2   14   31     -0.08      0.00
   -3   15   31     -1.12      0.00
   -1   15   31     -1.77      0.00
    1   15   31      1.43      0.00
    3   15   31      1.50      0.00
   -4   16   31     -1.67      0.00
   -2   16   31     -1.59      0.00
    0   16   31      1.13      0.00
    2   16   31      2.26      0.00
   -3   17   31      1.93      0.00
   -1   17   31     -2.07      0.00
    1   17   31      1.42      0.00
   -2   18   31     -1.75      0.00
    0   18   31     -0.56      0.00
    2   18   31      0.89      0.00
   -3   19   31      0.61      0.00
   -1   19   31      0.24      0.00
    1   19   31      1.71      0.00
   -2   20   31     -0.68      0.00
    0   20   31      0.10      0.00
   -1   21   31     -0.23      0.00
   -6    0   32      1.96      0.00
   -4    0   32     -1.17      0.00
   -2    0   32      1.25      0.00
    0    0   32     -1.48      0.00
    2    0   32      0.22      0.00
    4    0   32      1.78      0.00
   -5    1   32      1.02      0.00
   -3    1   32     -2.19      0.00
   -1    1   32      0.21      0.00
    1    1   32      0.22      0.00
    3    1   32     -1.00      0.00
   -4    2   32     -0.76      0.00
   -2    2   32     -1.13      0.00
    0    2   32     -0.28      0.00
    2    2   32     -2.62      0.00
    4    2   32      0.08      0.00
   -5    3   32     -1.49      0.00
   -3    3   32     -2.89      0.00
   -1    3   32     -0.86      0.00
    1    3   32     -0.40      0.00
    3    3   32      0.48      0.00
   -4    4   32     -1.57      0.00
   -2    4   32     -0.76      0.00
    0    4   32      0.40      0.00
    2    4   32      0.83      0.00
    4    4   32     -2.45      0.00
   -5    5   32     -0.91      0.00
   -3    5   32      0.28      0.00
   -1    5   32      1.39      0.00
    1    5   32      0.82      0.00
    3    5   32      0.71      0.00
   -4    6   32     -0.90      0.00
   -2    6   32      0.68      0.00
    0    6   32      1.24      0.00
    2    6   32      1.69      0.00
    4    6   32     -1.14      0.00
   -5    7   32     -0.06      0.00
   -3    7   32     -1.75      0.00
   -1    7   32     -0.72      0.00
    1    7   32     -0.20      0.00
    3    7   32     -0.58      0.00
   -4    8   32      0.97      0.00
   -2    8   32     -1.41      0.00
    0    8   32      0.18      0.00
    2    8   32      0.50      0.00
   -5    9   32     -1.03      0.00
   -3    9   32      1.04      0.00
   -1    9   32      2.67      0.00
    1    9   32      0.54      0.00
    3    9   32      0.86      0.00
   -4   10   32      1.74      0.00
   -2   10   32      1.24      0.00
    0   10   32      2.39      0.00
    2   10   32      0.18      0.00
   -5   11   32      0.80      0.00
   -3   11   32     -1.86      0.00
   -1   11   32      0.66      0.00
    1   11   32     -1.21      0.00
    3   11   32     -0.53      0.00
   -4   12   32      0.33      0.00
   -2   12   32      0.05      0.00
    0   12   32     -0.02      0.00
    2   12   32     -0.32      0.00
   -3   13   32     -1.59      0.00
   -1   13   32     -0.88      0.00
    1   13   32      0.77      0.00
    3   13   32     -1.71      0.00
   -4   14   32     -0.89      0.00
   -2   14   32      1.24      0.00
    0   14   32     -1.06      0.00
    2   14   32     -0.47      0.00
   -3   15   32     -1.90      0.00
   -1   15   32     -0.12      0.00
    1   15   32     -0.24      0.00
   -2   16   32     -2.18      0.00
    0   16   32     -3.12      0.00
    2   16   32      1.44      0.00
   -3   17   32     -0.54      0.00
   -1   17   32     -1.05      0.00
    1   17   32     -1.64      0.00
   -2   18   32     -1.58      0.00
    0   18   32      2.46      0.00
   -1   19   32      0.07      0.00
   -5    1   33      1.72      0.00
   -3    1   33     -1.12      0.00
   -1    1   33     -1.11      0.00
    1    1   33      1.82      0.00
    3    1   33     -1.02      0.00
   -4    2   33     -1.45      0.00
   -2    2   33     -0.46      0.00
    0    2   33      1.83      0.00
    2    2   33      1.97      0.00
    4    2   33      1.26      0.00
   -5    3   33     -1.43      0.00
   -3    3   33      0.35      0.00
   -1    3   33      0.44      0.00
    1    3   33     -0.05      0.00
    3    3   33      0.47      0.00
   -4    4   33      1.59      0.00
   -2    4   33     -0.04      0.00
    0    4   33      2.46      0.00
    2    4   33      0.70      0.00
    4    4   33     -0.08      0.00
   -5    5   33     -2.25      0.00
   -3    5   33     -0.86      0.00
   -1    5   33     -0.61      0.00
    1    5   33      0.84      0.00
    3    5   33     -0.86      0.00
   -4    6   33      0.51      0.00
   -2    6   33     -0.24      0.00
    0    6   33      1.14      0.00
    2    6   33      0.94      0.00
   -5    7   33     -0.13      0.00
   -3    7   33      1.08      0.00
   -1    7   33      1.69      0.00
    1    7   33     -0.33      0.00
    3    7   33     -1.72      0.00
   -4    8   33      1.09      0.00
   -2    8   33      1.76      0.00
    0    8   33      1.81      0.00
    2    8   33     -0.09      0.00
   -5    9   33      0.56      0.00
   -3    9   33     -2.43      0.00
   -1    9   33     -1.16      0.00
    1    9   33      1.67      0.00
    3    9   33     -2.17      0.00
   -4   10   33     -1.00      0.00
   -2   10   33     -1.73      0.00
    0   10   33     -0.69      0.00
    2   10   33      0.44      0.00
   -3   11   33     -1.62      0.00
   -1   11   33      3.78      0.00
    1   11   33     -0.19      0.00
    3   11   33      2.47      0.00
   -4   12   33      0.00      0.00
   -2   12   33     -1.67      0.00
    0   12   33     -0.22      0.00
    2   12   33      0.67      0.00
   -3   13   33     -2.79      0.00
   -1   13   33     -0.25      0.00
    1   13   33     -0.62      0.00
   -2   14   33     -1.67      0.00
    0   14   33      1.44      0.00
    2   14   33      1.08      0.00
   -3   15   33     -0.25      0.00
   -1   15   33      0.25      0.00
    1   15   33     -1.59      0.00
   -2   16   33     -1.18      0.00
    0   16   33      0.16      0.00
   -1   17   33     -0.20      0.00
    1   17   33      1.87      0.00
    0   18   33      0.26      0.00
   -4    0   34     -0.01      0.00
   -2    0   34     -0.05      0.00
    0    0   34      1.34      0.00
    2    0   34     -2.35      0.00
   -5    1   34     -1.67      0.00
   -3    1   34     -3.14      0.00
   -1    1   34     -1.27      0.00
    1    1   34     -1.65      0.00
    3    1   34     -0.73      0.00
   -4    2   34     -1.73      0.00
   -2    2   34      0.20      0.00
    0    2   34      0.52      0.00
    2    2   34     -0.24      0.00
   -5    3   34     -0.32      0.00
   -3    3   34     -1.15      0.00
   -1    3   34      1.60      0.00
    1    3   34     -0.62      0.00
    3    3   34     -2.41      0.00
   -4    4   34     -1.69      0.00
   -2    4   34      1.32      0.00
    0    4   34      0.96      0.00
    2    4   34     -0.72      0.00
   -5    5   34     -2.24      0.00
   -3    5   34     -1.90      0.00
   -1    5   34      1.26      0.00
    1    5   34     -0.86      0.00
    3    5   34      0.28      0.00
   -4    6   34      0.00      0.00
   -2    6   34      0.39      0.00
    0    6   34      1.30      0.00
    2    6   34     -1.72      0.00
   -3    7   34     -0.12      0.00
   -1    7   34      2.83      0.00
    1    7   34      1.11      0.00
    3    7   34      1.44      0.00
   -4    8   34     -0.14      0.00
   -2    8   34      0.77      0.00
    0    8   34     -0.26      0.00
    2    8   34      0.20      0.00
   -3    9   34     -0.67      0.00
   -1    9   34      0.36      0.00
    1    9   34     -2.03      0.00
    3    9   34     -0.10      0.00
   -4   10   34     -0.57      0.00
   -2   10   34     -0.49      0.00
    0   10   34      0.01      0.00
    2   10   34     -0.83      0.00
   -3   11   34     -0.36      0.00
   -1   11   34     -0.93      0.00
    1   11   34     -0.96      0.00
   -2   12   34     -0.25      0.00
    0   12   34     -1.30      0.00
    2   12   34      0.67      0.00
   -3   13   34     -0.95      0.00
   -1   13   34     -1.55      0.00
    1   13   34     -0.63      0.00
   -2   14   34     -0.60      0.00
    0   14   34     -1.18      0.00
   -1   15   34     -3.39      0.00
    1   15   34     -1.23      0.00
   -2   16   34     -0.74      0.00
    0   16   34      1.14      0.00
   -1   17   34      0.88      0.00
   -3    1   35      1.59      0.00
   -1    1   35      1.64      0.00
    1    1   35     -0.48      0.00
    3    1   35      1.73      0.00
   -4    2   35     -0.27      0.00
   -2    2   35      0.44      0.00
    0    2   35      2.78      0.00
    2    2   35      1.94      0.00
   -3    3   35     -0.78      0.00
   -1    3   35     -2.08      0.00
    1    3   35      2.37      0.00
    3    3   35     -1.09      0.00
   -4    4   35     -0.93      0.00
   -2    4   35     -0.53      0.00
    0    4   35      0.22      0.00
    2    4   35      1.83      0.00
   -3    5   35      2.84      0.00
   -1    5   35      1.62      0.00
    1    5   35     -0.05      0.00
    3    5   35     -1.23      0.00
   -4    6   35      1.31      0.00
   -2    6   35      2.91      0.00
    0    6   35      0.42      0.00
    2    6   35      0.46      0.00
   -3    7   35     -0.77      0.00
   -1    7   35     -1.26      0.00
    1    7   35      1.07      0.00
   -4    8   35      0.68      0.00
   -2    8   35      0.96      0.00
    0    8   35     -0.39      0.00
    2    8   35     -1.22      0.00
   -3    9   35     -0.16      0.00
   -1    9   35      2.97      0.00
    1    9   35     -1.19      0.00
   -2   10   35      1.67      0.00
    0   10   35      0.57      0.00
    2   10   35     -0.41      0.00
   -3   11   35     -3.07      0.00
   -1   11   35     -0.47      0.00
    1   11   35     -0.18      0.00
   -2   12   35     -0.28      0.00
    0   12   35     -1.01      0.00
   -3   13   35     -1.04      0.00
   -1   13   35      2.31      0.00
    1   13   35     -0.02      0.00
   -2   14   35     -2.28      0.00
    0   14   35     -0.99      0.00
   -1   15   35      0.05      0.00
   -4    0   36     -1.05      0.00
   -2    0   36     -0.24      0.00
    0    0   36     -0.50      0.00
    2    0   36     -0.73      0.00
   -3    1   36     -1.56      0.00
   -1    1   36     -1.46      0.00
    1    1   36     -1.29      0.00
   -4    2   36     -0.04      0.00
   -2    2   36      0.90      0.00
    0    2   36     -0.04      0.00
    2    2   36      0.04      0.00
   -3    3   36     -1.56      0.00
   -1    3   36     -0.18      0.00
    1    3   36     -1.63      0.00
   -4    4   36      0.22      0.00
   -2    4   36      1.90      0.00
    0    4   36      0.76      0.00
    2    4   36     -1.27      0.00
   -3    5   36     -1.37      0.00
   -1    5   36      0.65      0.00
    1    5   36     -0.95      0.00
   -4    6   36     -0.27      0.00
   -2    6   36      0.99      0.00
    0    6   36     -1.29      0.00
    2    6   36      0.52      0.00
   -3    7   36     -0.47      0.00
   -1    7   36     -0.24      0.00
    1    7   36     -1.23      0.00
   -2    8   36     -0.46      0.00
    0    8   36      0.52      0.00
    2    8   36     -1.70      0.00
   -3    9   36     -0.42      0.00
   -1    9   36     -0.04      0.00
    1    9   36      0.44      0.00
   -2   10   36     -1.73      0.00
    0   10   36     -1.54      0.00
   -1   11   36      0.22      0.00
    1   11   36     -1.72      0.00
   -2   12   36     -0.51      0.00
    0   12   36      0.20      0.00
   -1   13   36     -1.57      0.00
   -3    1   37     -1.18      0.00
   -1    1   37     -1.42      0.00
    1    1   37      0.58      0.00
   -2    2   37     -0.12      0.00
    0    2   37     -0.67      0.00
    2    2   37      0.84      0.00
   -3    3   37      2.42      0.00
   -1    3   37      3.56      0.00
    1    3   37      1.17      0.00
   -2    4   37      2.12      0.00
    0    4   37     -0.06      0.00
    2    4   37      1.84      0.00
   -3    5   37     -1.26      0.00
   -1    5   37     -1.35      0.00
    1    5   37      1.71      0.00
   -2    6   37      0.05      0.00
    0    6   37     -1.82      0.00
   -3    7   37      0.74      0.00
   -1    7   37      0.82      0.00
    1    7   37     -1.37      0.00
   -2    8   37      0.21      0.00
    0    8   37     -1.06      0.00
   -1    9   37     -1.45      0.00
    1    9   37      0.27      0.00
   -2   10   37     -0.14      0.00
    0   10   37     -0.67      0.00
   -1   11   37     -0.16      0.00
   -2    0   38      0.45      0.00
    0    0   38      1.43      0.00
   -3    1   38     -0.50      0.00
   -1    1   38     -1.45      0.00
    1    1   38     -0.66      0.00
   -2    2   38      1.38      0.00
    0    2   38      0.29      0.00
   -1    3   38     -1.16      0.00
    1    3   38     -1.00      0.00
   -2    4   38      0.40      0.00
    0    4   38     -2.24      0.00
   -1    5   38      0.20      0.00
   -2    6   38      1.32      0.00
    0    6   38      0.49      0.00
   -1    7   38     -1.01      0.00
   -1    1   39      3.17      0.00
   -1    3   39     -0.25      0.00
    1    1    0    -11.93      0.00
    0    2    0    103.18      0.00
    5   29    0     -0.20      0.00
    0    2    1     54.05      0.00
    9    7    1     -2.58      0.00
   -6   26    1     -0.07      0.00
   -5   29    1     -1.80      0.00
    5   29    1     -0.12      0.00
    0    0    2     15.57      0.00
    6   26    2      0.01      0.00
    0    6    3    -44.56      0.00
   -5   29    3      0.14      0.00
   -1    1    4     79.66      0.00
   -5   29    4     -1.15      0.00
    1    3    5     37.62      0.00
    9    3    5     -2.72      0.00
   -5   29    5     -2.09      0.00
   -9    7    6     -1.52      0.00
    1    5    7     24.77      0.00
    0    6    7     19.31      0.00
   -6   26    7     -1.46      0.00
   -9    7    8     -0.49      0.00
    0    8    9      3.04      0.00
    6   24   10      0.11      0.00
    8   12   11      0.33      0.00
   -8   16   11      1.71      0.00
    7   19   11     -0.58      0.00
   -9    3   12     -2.62      0.00
   -7   21   12      2.78      0.00
    8   10   13      0.33      0.00
   -2   32   13     -1.67      0.00
    6   22   14      0.51      0.00
    4   28   14     -2.45      0.00
   -8   14   15     -0.31      0.00
    5   25   15      0.29      0.00
    0   32   15      0.01      0.00
    8    2   16      0.11      0.00
    8    4   16     -6.03      0.00
    3   29   16     -0.81      0.00
   -8   12   17     -0.52      0.00
    6   20   17     -1.74      0.00
    4   26   18      2.77      0.00
    4   24   21     -1.21      0.00
    7    5   22      0.75      0.00
   -7   15   22      0.71      0.00
   -2   28   22      0.34      0.00
    5   19   23      0.84      0.00
    0   28   23      1.60      0.00
   -6   18   24      0.09      0.00
   -7   11   25      1.11      0.00
   -3   25   25      1.50      0.00
   -2   26   25     -0.27      0.00
    6    6   26      1.27      0.00
    6    8   26      0.24      0.00
   -6   16   26      1.62      0.00
    6    4   27     -0.91      0.00
   -7    7   27     -0.75      0.00
   -1   25   27     -1.79      0.00
   -7    3   28      0.31      0.00
    5    7   29     -1.76      0.00
    5    9   29      0.70      0.00
    5    5   30      5.03      0.00
    5    7   30      0.55      0.00
   -5   15   30      0.49      0.00
    2   20   30     -1.86      0.00
    4   10   31     -0.12      0.00
    4   12   31     -0.79      0.00
   -6    2   32      1.77      0.00
    4    8   32     -0.08      0.00
    1   19   32      0.74      0.00
    4    6   33      1.53      0.00
   -4   14   33     -2.75      0.00
   -2   18   33      0.69      0.00
   -4   12   34     -0.63      0.00
    2   14   34      0.70      0.00
   -3   15   34     -1.16      0.00
   -4   10   35      1.02      0.00
   -3   11   36      0.26      0.00
   -3    3   38     -0.37      0.00
    1    5   38      0.15      0.00
    0    8   38     -0.72      0.00
    0    2   39      0.56      0.00
    0    0    0      0.00      0.00
# SQUEEZE RESULTS (Version =  31017)
# Note: Data are Listed for all Voids in the P1 Unit Cell
# i.e. Centre of Gravity, Solvent Accessible Volume,
# Recovered number of Electrons in the Void and
# Details about the Squeezed Material
loop_
  _platon_squeeze_void_nr
  _platon_squeeze_void_average_x
  _platon_squeeze_void_average_y
  _platon_squeeze_void_average_z
  _platon_squeeze_void_volume
  _platon_squeeze_void_count_electrons
  _platon_squeeze_void_content
   1 -0.007  0.000  0.000       273        79 ' '
   2  0.897  0.000  0.500       273        79 ' '
   3  0.943  0.183  0.750       206        54 ' '
   4  0.655  0.317  0.250       206        54 ' '
   5  0.643  0.500  0.500       273        79 ' '
   6  0.315  0.500  1.000       273        79 ' '
   7  0.443  0.683  0.750       206        54 ' '
   8  0.155  0.817  0.250       206        54 ' '
# Missing Reflections Below sin(th)/lambda = 0.25
loop_
  _platon_missing_refln_index_h
  _platon_missing_refln_index_k
  _platon_missing_refln_index_l
  _platon_missing_refln_theta
    1    1    0     2.987
    0    2    0     1.536
    0    2    1     1.680
    0    0    2     1.360
    0    6    3     5.046
   -1    1    4     3.856
    1    3    5     5.205
    1    5    7     6.965
    0    6    7     6.639
    0    8    9     8.705
_platon_squeeze_void_probe_radius                  1.20
_platon_squeeze_details
)
TITL 2_a.res in C2/c
CELL    7.0890   26.5130   30.0780     90.00     95.35     90.00
SPGR C2/c
# Solvent Accessible Volume =      1905
# Electrons Found in S.A.V. =       530
# Note: Atoms in Void are Labelled as Cxxx and Qxxx for all Others
C101 0.753 0.044 0.449 !       1.88 eA-3
Q102 0.409 0.482 0.281 !       1.74 eA-3
C103 0.500 0.367 0.248 !       1.70 eA-3
C104 0.902 0.420 0.584 !       1.56 eA-3
C105 0.620 0.302 0.255 !       1.42 eA-3
C106 0.601 0.276 0.250 !       1.27 eA-3
C107 0.500 0.328 0.252 !       1.21 eA-3
C108 0.336 0.344 0.252 !       1.17 eA-3
C109 0.086 0.057 0.084 !       1.06 eA-3
C110 0.665 0.197 0.740 !       1.04 eA-3
C111 0.808 0.087 0.476 !       0.98 eA-3
C112 0.180 0.024 0.089 !       0.98 eA-3
C113 0.459 0.011 0.492 !       0.97 eA-3
C114 1.000 0.320 0.246 !       0.95 eA-3
C115 0.150 0.347 0.243 !       0.94 eA-3
C116 0.719 0.371 0.248 !       0.94 eA-3
Q117 0.967 0.007 0.212 !       0.92 eA-3
Q118 0.033 0.139 0.244 !       0.84 eA-3
C119 0.220 0.277 0.260 !       0.76 eA-3
Q120 0.500 0.008 0.245 !       0.68 eA-3
C121 0.166 0.502 0.455 !       0.66 eA-3
Q122 0.593 0.261 0.727 !       0.65 eA-3
Q123 0.940 0.224 0.252 !       0.57 eA-3
Q124 0.623 0.039 0.240 !       0.57 eA-3
Q125 0.443 0.142 0.275 !       0.56 eA-3
Q126 0.738 0.498 0.712 !       0.54 eA-3
Q127 0.637 0.243 0.709 !       0.53 eA-3
Q128 0.904 0.100 0.250 !       0.53 eA-3
C129 0.052 0.009 0.491 !       0.53 eA-3
Q130 0.872 0.133 0.226 !       0.53 eA-3
Q131 0.720 0.009 0.927 !       0.52 eA-3
Q132 0.245 0.112-0.002 !       0.52 eA-3
Q133 0.071 0.339 0.209 !       0.52 eA-3
C134 0.430 0.426 0.009 !       0.52 eA-3
Q135 0.042 0.312 0.772 !       0.51 eA-3
Q136 0.287 0.274 0.994 !       0.51 eA-3
C137 0.906 0.029 0.487 !       0.51 eA-3
C138 0.182 0.014 0.534 !       0.50 eA-3
)
;
_shelx_fab_checksum              62501
loop_
_space_group_symop_operation_xyz
'x, y, z'
'-x, y, -z+1/2'
'x+1/2, y+1/2, z'
'-x+1/2, y+1/2, -z+1/2'
'-x, -y, -z'
'x, -y, z-1/2'
'-x+1/2, -y+1/2, -z'
'x+1/2, -y+1/2, z-1/2'
loop_
_atom_site_label
_atom_site_type_symbol
_atom_site_fract_x
_atom_site_fract_y
_atom_site_fract_z
_atom_site_U_iso_or_equiv
_atom_site_adp_type
_atom_site_occupancy
_atom_site_site_symmetry_order
_atom_site_calc_flag
_atom_site_refinement_flags_posn
_atom_site_refinement_flags_adp
_atom_site_refinement_flags_occupancy
_atom_site_disorder_assembly
_atom_site_disorder_group
C1 C -0.089(2) 0.5118(5) 0.3095(5) 0.093(4) Uani 0.705(10) 1 d . U P A 1
C2 C -0.1106(12) 0.4676(3) 0.3396(3) 0.080(3) Uani 0.705(10) 1 d G U P A 1
C3 C 0.0296(10) 0.4308(3) 0.3446(3) 0.091(4) Uani 0.705(10) 1 d G U P A 1
H3A H 0.138166 0.433037 0.327904 0.109 Uiso 0.705(10) 1 d R U P A 1
C4 C 0.0125(12) 0.3909(3) 0.3739(3) 0.095(5) Uani 0.705(10) 1 d G U P A 1
H4A H 0.109267 0.365487 0.377388 0.114 Uiso 0.705(10) 1 d R U P A 1
C5 C -0.1448(13) 0.3877(3) 0.3981(3) 0.081(4) Uani 0.705(10) 1 d G U P A 1
C6 C -0.2850(11) 0.4244(4) 0.3931(3) 0.091(4) Uani 0.705(10) 1 d G U P A 1
H6A H -0.393579 0.422226 0.409798 0.109 Uiso 0.705(10) 1 d R U P A 1
C7 C -0.2679(12) 0.4644(3) 0.3638(3) 0.108(5) Uani 0.705(10) 1 d G U P A 1
H7A H -0.364678 0.489785 0.360309 0.129 Uiso 0.705(10) 1 d R U P A 1
O1 O -0.2313(14) 0.5416(3) 0.3000(3) 0.100(3) Uani 0.705(10) 1 d . U P A 1
O2 O 0.068(2) 0.5172(5) 0.2952(5) 0.117(4) Uani 0.705(10) 1 d . U P A 1
C8 C -0.1584(13) 0.3441(3) 0.4282(2) 0.081(2) Uani 0.705(10) 1 d . . P A 1
C1' C 0.130(2) 0.5071(6) 0.3144(6) 0.073(8) Uani 0.295(10) 1 d D U P A 2
C2' C 0.0618(19) 0.4659(5) 0.3427(5) 0.064(6) Uani 0.295(10) 1 d DG U P A 2
C3' C 0.159(2) 0.4203(5) 0.3449(6) 0.079(7) Uani 0.295(10) 1 d DG U P A 2
H3'A H 0.265377 0.415536 0.327773 0.095 Uiso 0.295(10) 1 d R U P A 2
C4' C 0.103(2) 0.3816(5) 0.3719(7) 0.075(8) Uani 0.295(10) 1 d G U P A 2
H4'A H 0.169866 0.350157 0.373432 0.090 Uiso 0.295(10) 1 d R U P A 2
C5' C -0.051(2) 0.3885(4) 0.3967(5) 0.046(5) Uani 0.295(10) 1 d G U P A 2
C6' C -0.1485(18) 0.4341(5) 0.3946(5) 0.050(5) Uani 0.295(10) 1 d G U P A 2
H6'A H -0.254784 0.438889 0.411700 0.060 Uiso 0.295(10) 1 d R U P A 2
C7' C -0.0920(19) 0.4728(4) 0.3676(5) 0.068(7) Uani 0.295(10) 1 d DG U P A 2
H7'A H -0.159263 0.504271 0.366048 0.082 Uiso 0.295(10) 1 d R U P A 2
O1' O 0.006(4) 0.5404(11) 0.3085(7) 0.102(8) Uani 0.295(10) 1 d D U P A 2
O2' O 0.289(3) 0.5014(7) 0.2997(6) 0.091(7) Uani 0.295(10) 1 d D U P A 2
C8' C -0.1584(13) 0.3441(3) 0.4282(2) 0.081(2) Uani 0.295(10) 1 d . . P A 2
C9 C -0.0213(12) 0.3370(3) 0.4648(3) 0.079(2) Uani 1 1 d . . . . .
C10 C 0.1543(18) 0.3667(5) 0.4751(4) 0.118(4) Uani 1 1 d . . . . .
H10A H 0.202280 0.392150 0.458136 0.141 Uiso 1 1 calc R U . . .
C11 C 0.2277(15) 0.3485(4) 0.5140(3) 0.107(3) Uani 1 1 d . . . . .
H11A H 0.337032 0.360699 0.529878 0.128 Uiso 1 1 calc R U . . .
C12 C 0.1172(11) 0.3080(3) 0.5281(3) 0.076(2) Uani 1 1 d . . . . .
C13 C 0.1517(9) 0.2809(4) 0.5679(2) 0.075(2) Uani 1 1 d . . . . .
C14 C 0.3043(12) 0.2927(6) 0.6027(3) 0.058(4) Uani 0.74(3) 1 d G U P B 1
C15 C 0.4943(14) 0.2846(7) 0.5970(3) 0.083(5) Uani 0.74(3) 1 d G U P B 1
H15 H 0.527907 0.266388 0.572527 0.100 Uiso 0.74(3) 1 calc R U P B 1
C16 C 0.6341(10) 0.3037(7) 0.6279(4) 0.088(5) Uani 0.74(3) 1 d G U P B 1
H16 H 0.761243 0.298331 0.624118 0.106 Uiso 0.74(3) 1 calc R U P B 1
C17 C 0.5839(9) 0.3309(7) 0.6645(3) 0.057(4) Uani 0.74(3) 1 d G U P B 1
C18 C 0.3939(10) 0.3390(6) 0.6702(2) 0.060(4) Uani 0.74(3) 1 d G U P B 1
H18 H 0.360354 0.357234 0.694700 0.072 Uiso 0.74(3) 1 calc R U P B 1
C19 C 0.2541(8) 0.3199(6) 0.6393(3) 0.070(4) Uani 0.74(3) 1 d G U P B 1
H19 H 0.127014 0.325291 0.643110 0.084 Uiso 0.74(3) 1 calc R U P B 1
C14' C 0.311(3) 0.3138(10) 0.5973(7) 0.032(6) Uani 0.26(3) 1 d G U P B 2
C15' C 0.500(3) 0.2998(8) 0.5965(7) 0.056(8) Uani 0.26(3) 1 d G U P B 2
H15' H 0.534870 0.277840 0.574598 0.067 Uiso 0.26(3) 1 calc R U P B 2
C16' C 0.636(2) 0.3187(8) 0.6283(9) 0.052(8) Uani 0.26(3) 1 d G U P B 2
H16' H 0.762598 0.309392 0.627774 0.062 Uiso 0.26(3) 1 calc R U P B 2
C17' C 0.584(2) 0.3516(9) 0.6610(7) 0.027(6) Uani 0.26(3) 1 d G U P B 2
C18' C 0.396(2) 0.3656(13) 0.6619(8) 0.052(7) Uani 0.26(3) 1 d G U P B 2
H18' H 0.360689 0.387597 0.683761 0.062 Uiso 0.26(3) 1 calc R U P B 2
C19' C 0.259(2) 0.3467(14) 0.6300(9) 0.090(13) Uani 0.26(3) 1 d G U P B 2
H19' H 0.132957 0.356046 0.630586 0.109 Uiso 0.26(3) 1 calc R U P B 2
C20 C 0.7345(7) 0.3597(4) 0.69619(19) 0.070(2) Uani 1 1 d . U . . .
C21 C 0.0407(10) 0.2411(3) 0.5816(2) 0.073(2) Uani 1 1 d . . . . .
C22 C 0.0759(13) 0.2142(5) 0.6224(3) 0.098(3) Uani 1 1 d . . . . .
H22A H 0.174679 0.219925 0.644421 0.118 Uiso 1 1 calc R U . . .
C23 C -0.0595(17) 0.1789(4) 0.6234(3) 0.098(3) Uani 1 1 d . . . . .
H23A H -0.071116 0.155959 0.646364 0.118 Uiso 1 1 calc R U . . .
C24 C -0.1836(12) 0.1825(3) 0.5828(2) 0.072(2) Uani 1 1 d . . . . .
Cd1 Cd 1.000000 0.4171(6) 0.750000 0.0402(18) Uani 0.45(4) 2 d S T P C 1
Cd2 Cd 0.4734(3) 0.45516(6) 0.75715(7) 0.0522(8) Uani 0.301(2) 1 d . . P C 1
N1 N -0.0325(8) 0.3005(2) 0.49687(18) 0.0660(14) Uani 1 1 d . . . . .
N2 N -0.1174(8) 0.2203(2) 0.55894(18) 0.0676(16) Uani 1 1 d . . . . .
H2A H -0.166873 0.230057 0.533177 0.081 Uiso 1 1 calc R U . . .
O3 O 0.9051(7) 0.3496(3) 0.6933(2) 0.099(2) Uani 1 1 d . . . . .
O4 O 0.6831(7) 0.3876(3) 0.72620(16) 0.0917(19) Uani 1 1 d . . . . .
Cd1' Cd 1.0257(8) 0.4000(7) 0.7470(2) 0.0390(18) Uani 0.274(19) 1 d . . P C 2
loop_
_atom_site_aniso_label
_atom_site_aniso_U_11
_atom_site_aniso_U_22
_atom_site_aniso_U_33
_atom_site_aniso_U_23
_atom_site_aniso_U_13
_atom_site_aniso_U_12
C1 0.104(9) 0.070(7) 0.093(8) -0.003(6) -0.046(7) 0.010(7)
C2 0.074(7) 0.083(7) 0.078(7) -0.001(6) -0.020(6) 0.015(5)
C3 0.067(7) 0.087(8) 0.118(10) 0.017(8) 0.002(7) 0.012(6)
C4 0.073(9) 0.093(8) 0.118(11) 0.017(8) 0.009(8) 0.036(7)
C5 0.056(7) 0.111(9) 0.073(7) -0.013(6) -0.017(6) 0.016(7)
C6 0.086(9) 0.107(8) 0.079(7) 0.012(6) 0.012(6) 0.043(7)
C7 0.094(9) 0.129(10) 0.097(9) -0.020(8) -0.005(7) 0.038(8)
O1 0.099(6) 0.082(5) 0.107(7) -0.017(4) -0.050(5) 0.021(4)
O2 0.097(8) 0.110(8) 0.141(11) 0.015(8) -0.003(8) 0.015(6)
C8 0.101(6) 0.088(5) 0.047(4) -0.006(3) -0.019(4) 0.023(4)
C1' 0.046(12) 0.083(15) 0.091(16) 0.008(12) 0.015(11) -0.023(11)
C2' 0.050(11) 0.090(14) 0.051(10) -0.006(10) -0.006(8) -0.011(10)
C3' 0.061(12) 0.096(15) 0.083(14) -0.007(12) 0.018(11) 0.012(11)
C4' 0.065(14) 0.081(14) 0.080(14) 0.020(11) 0.015(12) 0.017(12)
C5' 0.024(10) 0.053(10) 0.059(11) 0.002(9) -0.004(9) -0.005(8)
C6' 0.033(9) 0.064(11) 0.055(10) 0.009(8) 0.015(8) 0.004(8)
C7' 0.081(14) 0.077(12) 0.051(11) 0.017(10) 0.032(11) -0.003(11)
O1' 0.145(17) 0.120(15) 0.047(9) 0.025(10) 0.042(11) -0.003(14)
O2' 0.086(11) 0.100(11) 0.077(10) 0.061(9) -0.042(8) -0.029(9)
C8' 0.101(6) 0.088(5) 0.047(4) -0.006(3) -0.019(4) 0.023(4)
C9 0.079(5) 0.092(5) 0.062(4) -0.016(4) -0.013(4) -0.002(4)
C10 0.130(9) 0.124(8) 0.093(7) -0.006(6) -0.023(6) -0.045(7)
C11 0.101(7) 0.134(8) 0.079(6) -0.017(5) -0.023(5) -0.045(6)
C12 0.057(4) 0.110(6) 0.057(4) -0.026(4) -0.014(3) -0.002(4)
C13 0.045(3) 0.137(7) 0.038(3) -0.024(4) -0.015(3) 0.026(4)
C14 0.047(5) 0.082(9) 0.040(5) -0.013(5) -0.013(4) 0.007(6)
C15 0.052(6) 0.126(11) 0.068(7) -0.052(7) -0.008(5) 0.016(6)
C16 0.050(7) 0.137(11) 0.075(9) -0.055(8) -0.013(6) 0.032(7)
C17 0.052(5) 0.067(9) 0.046(5) -0.014(5) -0.019(4) 0.025(5)
C18 0.049(5) 0.095(10) 0.037(4) -0.023(5) 0.006(3) 0.002(5)
C19 0.044(5) 0.108(11) 0.056(6) -0.028(6) -0.004(4) 0.012(5)
C14' 0.029(10) 0.031(12) 0.034(11) -0.007(8) -0.004(8) 0.009(8)
C15' 0.047(11) 0.065(10) 0.057(11) -0.026(8) 0.016(8) 0.012(8)
C16' 0.019(11) 0.093(16) 0.042(15) -0.023(11) 0.000(10) 0.021(9)
C17' 0.023(9) 0.017(11) 0.043(11) -0.008(8) 0.010(7) 0.002(7)
C18' 0.031(8) 0.063(11) 0.060(10) -0.009(8) -0.002(7) -0.002(8)
C19' 0.078(18) 0.11(2) 0.09(2) -0.054(18) 0.011(15) -0.028(17)
C20 0.027(3) 0.149(6) 0.035(3) -0.020(3) -0.003(2) 0.008(3)
C21 0.049(3) 0.128(6) 0.037(3) -0.022(3) -0.014(3) 0.026(4)
C22 0.067(5) 0.176(10) 0.047(4) -0.002(5) -0.025(4) 0.029(6)
C23 0.104(8) 0.140(9) 0.045(4) 0.000(4) -0.019(4) 0.038(6)
C24 0.072(5) 0.099(5) 0.040(3) -0.009(3) -0.013(3) 0.014(4)
Cd1 0.0311(14) 0.058(4) 0.0300(18) 0.000 -0.0032(10) 0.000
Cd2 0.0339(14) 0.0786(10) 0.0438(16) -0.0067(7) 0.0021(8) 0.0015(6)
N1 0.058(3) 0.092(4) 0.044(3) -0.013(3) -0.015(2) 0.007(3)
N2 0.055(3) 0.105(4) 0.039(3) -0.016(3) -0.017(2) 0.014(3)
O3 0.046(3) 0.172(6) 0.073(3) -0.051(4) -0.020(2) 0.015(3)
O4 0.043(2) 0.189(6) 0.043(3) -0.039(3) 0.005(2) -0.014(3)
Cd1' 0.017(2) 0.070(4) 0.0310(14) -0.0141(15) 0.0093(14) -0.0028(13)
loop_
_atom_type_symbol
_atom_type_description
_atom_type_scat_dispersion_real
_atom_type_scat_dispersion_imag
_atom_type_scat_source
C C 0.0033 0.0016 'International Tables Vol C Tables 4.2.6.8 and 6.1.1.4'
H H 0.0000 0.0000 'International Tables Vol C Tables 4.2.6.8 and 6.1.1.4'
N N 0.0061 0.0033 'International Tables Vol C Tables 4.2.6.8 and 6.1.1.4'
O O 0.0106 0.0060 'International Tables Vol C Tables 4.2.6.8 and 6.1.1.4'
Cd Cd -0.8075 1.2024 'International Tables Vol C Tables 4.2.6.8 and 6.1.1.4'
loop_
_geom_angle_atom_site_label_1
_geom_angle_atom_site_label_2
_geom_angle_atom_site_label_3
_geom_angle
_geom_angle_site_symmetry_1
_geom_angle_site_symmetry_3
O2 C1 O1 124.1(17) . .
O2 C1 C2 116.6(12) . .
O1 C1 C2 119.3(16) . .
O2 C1 Cd1 54.4(10) . 5_666
O1 C1 Cd1 69.8(9) . 5_666
C2 C1 Cd1 170.3(11) . 5_666
C3 C2 C7 120.0 . .
C3 C2 C1 120.1(9) . .
C7 C2 C1 119.8(9) . .
C4 C3 C2 120.0 . .
C4 C3 H3A 120.0 . .
C2 C3 H3A 120.0 . .
C3 C4 C5 120.0 . .
C3 C4 H4A 120.0 . .
C5 C4 H4A 120.0 . .
C6 C5 C4 120.0 . .
C6 C5 C8 121.9(6) . .
C4 C5 C8 118.1(6) . .
C5 C6 C7 120.0 . .
C5 C6 H6A 120.0 . .
C7 C6 H6A 120.0 . .
C6 C7 C2 120.0 . .
C6 C7 H7A 120.0 . .
C2 C7 H7A 120.0 . .
C1 O1 Cd2 134.2(8) . 5_566
C1 O1 Cd2 141.2(8) . 6_465
Cd2 O1 Cd2 14.69(8) 5_566 6_465
C1 O1 Cd1 82.1(11) . 5_666
Cd2 O1 Cd1 91.1(4) 5_566 5_666
Cd2 O1 Cd1 104.3(4) 6_465 5_666
C1 O2 Cd1 98.7(10) . 5_666
C24 C8 C9 128.6(8) 7_456 .
C24 C8 C5 111.1(7) 7_456 .
C9 C8 C5 120.2(9) . .
O1' C1' O2' 132.6(17) . .
O1' C1' C2' 109.9(14) . .
O2' C1' C2' 117.4(13) . .
C3' C2' C7' 120.0 . .
C3' C2' C1' 118.6(7) . .
C7' C2' C1' 121.4(7) . .
C4' C3' C2' 120.0 . .
C4' C3' H3'A 120.0 . .
C2' C3' H3'A 120.0 . .
C5' C4' C3' 120.0 . .
C5' C4' H4'A 120.0 . .
C3' C4' H4'A 120.0 . .
C4' C5' C6' 120.0 . .
C4' C5' C8' 127.6(8) . .
C6' C5' C8' 112.1(8) . .
C7' C6' C5' 120.0 . .
C7' C6' H6'A 120.0 . .
C5' C6' H6'A 120.0 . .
C6' C7' C2' 120.0 . .
C6' C7' H7'A 120.0 . .
C2' C7' H7'A 120.0 . .
C1' O1' Cd1' 118.5(14) . 6_465
Cd1' O1' Cd1' 9.5(2) 5_666 6_465
C24 C8' C9 128.6(8) 7_456 .
C24 C8' C5' 128.5(8) 7_456 .
C9 C8' C5' 102.2(9) . .
N1 C9 C8 124.1(8) . .
N1 C9 C8' 124.1(8) . .
N1 C9 C10 109.3(7) . .
C8 C9 C10 126.7(9) . .
C8' C9 C10 126.7(9) . .
C11 C10 C9 104.1(9) . .
C11 C10 H10A 127.9 . .
C9 C10 H10A 127.9 . .
C10 C11 C12 111.0(8) . .
C10 C11 H11A 124.5 . .
C12 C11 H11A 124.5 . .
N1 C12 C13 125.2(8) . .
N1 C12 C11 108.6(8) . .
C13 C12 C11 126.1(7) . .
C12 C13 C21 125.6(6) . .
C12 C13 C14 124.0(10) . .
C21 C13 C14 110.4(9) . .
C12 C13 C14' 104.2(12) . .
C21 C13 C14' 128.8(11) . .
C15 C14 C19 120.0 . .
C15 C14 C13 122.5(6) . .
C19 C14 C13 116.7(6) . .
C14 C15 C16 120.0 . .
C14 C15 H15 120.0 . .
C16 C15 H15 120.0 . .
C17 C16 C15 120.0 . .
C17 C16 H16 120.0 . .
C15 C16 H16 120.0 . .
C18 C17 C16 120.0 . .
C18 C17 C20 117.7(5) . .
C16 C17 C20 121.7(5) . .
C19 C18 C17 120.0 . .
C19 C18 H18 120.0 . .
C17 C18 H18 120.0 . .
C18 C19 C14 120.0 . .
C18 C19 H19 120.0 . .
C14 C19 H19 120.0 . .
C15' C14' C19' 120.0 . .
C15' C14' C13 118.0(13) . .
C19' C14' C13 120.3(13) . .
C14' C15' C16' 120.0 . .
C14' C15' H15' 120.0 . .
C16' C15' H15' 120.0 . .
C17' C16' C15' 120.0 . .
C17' C16' H16' 120.0 . .
C15' C16' H16' 120.0 . .
C18' C17' C16' 120.0 . .
C18' C17' C20 126.3(14) . .
C16' C17' C20 112.6(14) . .
C17' C18' C19' 120.0 . .
C17' C18' H18' 120.0 . .
C19' C18' H18' 120.0 . .
C18' C19' C14' 120.0 . .
C18' C19' H19' 120.0 . .
C14' C19' H19' 120.0 . .
O4 C20 O3 121.8(6) . .
O4 C20 C17' 111.8(10) . .
O3 C20 C17' 124.7(9) . .
O4 C20 C17 120.1(5) . .
O3 C20 C17 117.7(6) . .
O4 C20 Cd1' 59.0(4) . 2_756
O3 C20 Cd1' 62.9(4) . 2_756
C17 C20 Cd1' 174.6(8) . 2_756
N2 C21 C13 127.7(6) . .
N2 C21 C22 107.3(9) . .
C13 C21 C22 125.0(7) . .
C23 C22 C21 107.5(7) . .
C23 C22 H22A 126.3 . .
C21 C22 H22A 126.3 . .
C22 C23 C24 108.5(9) . .
C22 C23 H23A 125.7 . .
C24 C23 H23A 125.7 . .
C8 C24 N2 125.9(7) 7_456 .
C8 C24 C23 127.4(9) 7_456 .
N2 C24 C23 106.6(8) . .
O2 Cd1 O2 77.5(10) 6_666 5_666
O2 Cd1 O4 125.0(5) 6_666 .
O2 Cd1 O4 86.0(5) 5_666 .
O2 Cd1 O4 86.0(4) 6_666 2_756
O2 Cd1 O4 125.0(5) 5_666 2_756
O4 Cd1 O4 142.2(8) . 2_756
O2 Cd1 O3 173.9(7) 6_666 .
O2 Cd1 O3 96.5(4) 5_666 .
O4 Cd1 O3 52.3(3) . .
O4 Cd1 O3 98.7(5) 2_756 .
O2 Cd1 O3 96.5(4) 6_666 2_756
O2 Cd1 O3 173.9(7) 5_666 2_756
O4 Cd1 O3 98.7(5) . 2_756
O4 Cd1 O3 52.3(3) 2_756 2_756
O3 Cd1 O3 89.5(6) . 2_756
O2 Cd1 O1 84.9(6) 6_666 5_666
O2 Cd1 O1 54.9(5) 5_666 5_666
O4 Cd1 O1 126.1(2) . 5_666
O4 Cd1 O1 71.7(2) 2_756 5_666
O3 Cd1 O1 92.9(3) . 5_666
O3 Cd1 O1 123.6(3) 2_756 5_666
O2 Cd1 O1 54.9(5) 6_666 6_666
O2 Cd1 O1 84.9(6) 5_666 6_666
O4 Cd1 O1 71.7(2) . 6_666
O4 Cd1 O1 126.1(2) 2_756 6_666
O3 Cd1 O1 123.6(3) . 6_666
O3 Cd1 O1 92.9(3) 2_756 6_666
O1 Cd1 O1 129.6(8) 5_666 6_666
Cd2 Cd2 O4 122.1(2) 2_656 2_656
Cd2 Cd2 O1 86.6(6) 2_656 5_566
O4 Cd2 O1 81.0(3) 2_656 5_566
Cd2 Cd2 O1 78.8(6) 2_656 6_666
O4 Cd2 O1 110.4(3) 2_656 6_666
O1 Cd2 O1 164.69(14) 5_566 6_666
Cd2 Cd2 O4 46.5(2) 2_656 .
O4 Cd2 O4 80.4(3) 2_656 .
O1 Cd2 O4 99.9(3) 5_566 .
O1 Cd2 O4 73.0(3) 6_666 .
C12 N1 C9 106.8(7) . .
C24 N2 C21 110.1(6) . .
C24 N2 H2A 124.9 . .
C21 N2 H2A 124.9 . .
C20 O3 Cd1' 97.5(5) . .
C20 O3 Cd1' 87.6(4) . 2_756
C20 O3 Cd1 90.0(5) . .
C20 O4 Cd1' 91.5(5) . 2_756
C20 O4 Cd2 147.0(6) . 2_656
C20 O4 Cd1 94.6(4) . .
Cd2 O4 Cd1 98.2(4) 2_656 .
C20 O4 Cd1' 85.2(4) . .
Cd1' O4 Cd1' 7.2(3) 2_756 .
C20 O4 Cd2 153.8(5) . .
Cd2 O4 Cd2 11.43(6) 2_656 .
Cd1 O4 Cd2 102.7(4) . .
Cd1' Cd1' O3 91.0(15) 2_756 .
O4 Cd1' O3 118.1(7) 2_756 .
O4 Cd1' O3 59.1(4) 2_756 2_756
O3 Cd1' O3 105.4(8) . 2_756
O4 Cd1' O1' 113.6(9) 2_756 5_666
O3 Cd1' O1' 83.0(9) . 5_666
O3 Cd1' O1' 170.6(10) 2_756 5_666
O4 Cd1' O1' 86.4(8) 2_756 6_666
O3 Cd1' O1' 154.1(8) . 6_666
O3 Cd1' O1' 78.7(8) 2_756 6_666
Cd1' Cd1' O4 40.3(17) 2_756 .
O4 Cd1' O4 162.1(9) 2_756 .
O3 Cd1' O4 55.2(2) . .
O3 Cd1' O4 105.0(4) 2_756 .
O1' Cd1' O4 83.1(9) 5_666 .
O1' Cd1' O4 98.9(8) 6_666 .
O4 Cd1' C20 29.5(2) 2_756 2_756
O3 Cd1' C20 115.4(8) . 2_756
O3 Cd1' C20 29.6(2) 2_756 2_756
O4 Cd1' C20 134.2(5) . 2_756
loop_
_geom_bond_atom_site_label_1
_geom_bond_atom_site_label_2
_geom_bond_distance
_geom_bond_site_symmetry_2
C1 O2 1.24(2) .
C1 O1 1.293(16) .
C1 C2 1.497(18) .
C1 Cd1 2.71(2) 5_666
C2 C3 1.3900 .
C2 C7 1.3900 .
C3 C4 1.3900 .
C3 H3A 0.9599 .
C4 C5 1.3900 .
C4 H4A 0.9600 .
C5 C6 1.3900 .
C5 C8 1.477(10) .
C6 C7 1.3900 .
C6 H6A 0.9601 .
C7 H7A 0.9600 .
O1 Cd2 2.314(8) 5_566
O1 Cd2 2.355(8) 6_465
O1 Cd1 2.570(14) 5_666
O2 Cd1 2.234(18) 5_666
C8 C24 1.339(12) 7_456
C8 C9 1.411(11) .
C1' O1' 1.25(2) .
C1' O2' 1.26(2) .
C1' C2' 1.494(10) .
C2' C3' 1.3900 .
C2' C7' 1.3900 .
C3' C4' 1.3900 .
C3' H3'A 0.9599 .
C4' C5' 1.3900 .
C4' H4'A 0.9601 .
C5' C6' 1.3900 .
C5' C8' 1.732(14) .
C6' C7' 1.3900 .
C6' H6'A 0.9599 .
C7' H7'A 0.9601 .
O1' Cd1' 2.30(3) 5_666
O1' Cd1' 2.45(2) 6_465
C8' C24 1.339(12) 7_456
C8' C9 1.411(11) .
C9 N1 1.373(11) .
C9 C10 1.480(13) .
C10 C11 1.326(15) .
C10 H10A 0.9300 .
C11 C12 1.417(13) .
C11 H11A 0.9300 .
C12 N1 1.365(9) .
C12 C13 1.398(12) .
C13 C21 1.400(13) .
C13 C14 1.467(9) .
C13 C14' 1.625(18) .
C14 C15 1.3900 .
C14 C19 1.3900 .
C15 C16 1.3900 .
C15 H15 0.9300 .
C16 C17 1.3900 .
C16 H16 0.9300 .
C17 C18 1.3900 .
C17 C20 1.561(11) .
C18 C19 1.3900 .
C18 H18 0.9300 .
C19 H19 0.9300 .
C14' C15' 1.3900 .
C14' C19' 1.3900 .
C15' C16' 1.3900 .
C15' H15' 0.9300 .
C16' C17' 1.3900 .
C16' H16' 0.9300 .
C17' C18' 1.3900 .
C17' C20 1.445(17) .
C18' C19' 1.3900 .
C18' H18' 0.9300 .
C19' H19' 0.9300 .
C20 O4 1.247(9) .
C20 O3 1.250(8) .
C20 Cd1' 2.531(13) 2_756
C21 N2 1.372(9) .
C21 C22 1.421(12) .
C22 C23 1.343(16) .
C22 H22A 0.9300 .
C23 C24 1.439(11) .
C23 H23A 0.9300 .
C24 N2 1.343(10) .
Cd1 O4 2.424(7) .
Cd1 O4 2.424(7) 2_756
Cd1 O3 2.521(13) .
Cd1 O3 2.521(13) 2_756
Cd2 Cd2 0.598(2) 2_656
Cd2 O4 2.190(7) 2_656
Cd2 O4 2.559(6) .
N2 H2A 0.8600 .
O3 Cd1' 2.207(11) .
O3 Cd1' 2.254(14) 2_756
O4 Cd1' 2.170(10) 2_756
O4 Cd1' 2.473(7) .
Cd1' Cd1' 0.421(9) 2_756
loop_
_geom_torsion_atom_site_label_1
_geom_torsion_atom_site_label_2
_geom_torsion_atom_site_label_3
_geom_torsion_atom_site_label_4
_geom_torsion
_geom_torsion_site_symmetry_1
_geom_torsion_site_symmetry_4
O2 C1 C2 C3 -10.0(16) . .
O1 C1 C2 C3 169.9(9) . .
O2 C1 C2 C7 167.5(11) . .
O1 C1 C2 C7 -12.6(14) . .
C7 C2 C3 C4 0.0 . .
C1 C2 C3 C4 177.5(9) . .
C2 C3 C4 C5 0.0 . .
C3 C4 C5 C6 0.0 . .
C3 C4 C5 C8 179.0(8) . .
C4 C5 C6 C7 0.0 . .
C8 C5 C6 C7 -178.9(9) . .
C5 C6 C7 C2 0.0 . .
C3 C2 C7 C6 0.0 . .
C1 C2 C7 C6 -177.5(9) . .
O2 C1 O1 Cd2 87.5(19) . 5_566
C2 C1 O1 Cd2 -92.4(17) . 5_566
Cd1 C1 O1 Cd2 83.8(13) 5_666 5_566
O2 C1 O1 Cd2 106.8(19) . 6_465
C2 C1 O1 Cd2 -73(2) . 6_465
Cd1 C1 O1 Cd2 103.0(16) 5_666 6_465
O2 C1 O1 Cd1 3.8(15) . 5_666
C2 C1 O1 Cd1 -176.1(11) . 5_666
O1 C1 O2 Cd1 -4.3(17) . 5_666
C2 C1 O2 Cd1 175.6(9) . 5_666
C6 C5 C8 C24 57.8(9) . 7_456
C4 C5 C8 C24 -121.2(7) . 7_456
C6 C5 C8 C9 -118.1(9) . .
C4 C5 C8 C9 62.9(10) . .
O1' C1' C2' C3' 165.7(16) . .
O2' C1' C2' C3' -11(2) . .
O1' C1' C2' C7' -16(2) . .
O2' C1' C2' C7' 167.1(15) . .
C7' C2' C3' C4' 0.0 . .
C1' C2' C3' C4' 178.2(15) . .
C2' C3' C4' C5' 0.0 . .
C3' C4' C5' C6' 0.0 . .
C3' C4' C5' C8' 173.6(13) . .
C4' C5' C6' C7' 0.0 . .
C8' C5' C6' C7' -174.5(12) . .
C5' C6' C7' C2' 0.0 . .
C3' C2' C7' C6' 0.0 . .
C1' C2' C7' C6' -178.2(15) . .
O2' C1' O1' Cd1' 17(4) . 5_666
C2' C1' O1' Cd1' -159(2) . 5_666
O2' C1' O1' Cd1' 14(3) . 6_465
C2' C1' O1' Cd1' -162.0(17) . 6_465
C4' C5' C8' C24 -99.1(13) . 7_456
C6' C5' C8' C24 74.9(13) . 7_456
C4' C5' C8' C9 71.5(11) . .
C6' C5' C8' C9 -114.5(10) . .
C24 C8 C9 N1 -1.6(14) 7_456 .
C5 C8 C9 N1 173.5(8) . .
C24 C8 C9 C10 178.3(10) 7_456 .
C5 C8 C9 C10 -6.6(14) . .
C24 C8' C9 N1 -1.6(14) 7_456 .
C5' C8' C9 N1 -172.2(8) . .
C24 C8' C9 C10 178.3(10) 7_456 .
C5' C8' C9 C10 7.7(13) . .
N1 C9 C10 C11 -4.6(12) . .
C8 C9 C10 C11 175.5(10) . .
C8' C9 C10 C11 175.5(10) . .
C9 C10 C11 C12 2.9(13) . .
C10 C11 C12 N1 -0.2(13) . .
C10 C11 C12 C13 -178.8(9) . .
N1 C12 C13 C21 1.3(12) . .
C11 C12 C13 C21 179.6(9) . .
N1 C12 C13 C14 -174.4(8) . .
C11 C12 C13 C14 3.9(13) . .
N1 C12 C13 C14' -166.1(10) . .
C11 C12 C13 C14' 12.2(13) . .
C12 C13 C14 C15 -70.6(11) . .
C21 C13 C14 C15 113.2(7) . .
C12 C13 C14 C19 99.4(9) . .
C21 C13 C14 C19 -76.8(9) . .
C19 C14 C15 C16 0.0 . .
C13 C14 C15 C16 169.7(11) . .
C14 C15 C16 C17 0.0 . .
C15 C16 C17 C18 0.0 . .
C15 C16 C17 C20 -171.0(10) . .
C16 C17 C18 C19 0.0 . .
C20 C17 C18 C19 171.4(10) . .
C17 C18 C19 C14 0.0 . .
C15 C14 C19 C18 0.0 . .
C13 C14 C19 C18 -170.3(11) . .
C12 C13 C14' C15' -96.6(17) . .
C21 C13 C14' C15' 96.6(17) . .
C12 C13 C14' C19' 98.3(13) . .
C21 C13 C14' C19' -68.5(16) . .
C19' C14' C15' C16' 0.0 . .
C13 C14' C15' C16' -165.1(17) . .
C14' C15' C16' C17' 0.0 . .
C15' C16' C17' C18' 0.0 . .
C15' C16' C17' C20 168.6(15) . .
C16' C17' C18' C19' 0.0 . .
C20 C17' C18' C19' -166.9(17) . .
C17' C18' C19' C14' 0.0 . .
C15' C14' C19' C18' 0.0 . .
C13 C14' C19' C18' 164.8(17) . .
C18' C17' C20 O4 -9.5(18) . .
C16' C17' C20 O4 -177.2(12) . .
C18' C17' C20 O3 -175.1(15) . .
C16' C17' C20 O3 17(2) . .
C18' C17' C20 Cd1' -62(4) . 2_756
C16' C17' C20 Cd1' 130(3) . 2_756
C18 C17 C20 O4 2.1(13) . .
C16 C17 C20 O4 173.3(7) . .
C18 C17 C20 O3 174.8(8) . .
C16 C17 C20 O3 -14.0(12) . .
C12 C13 C21 N2 1.9(12) . .
C14 C13 C21 N2 178.1(7) . .
C14' C13 C21 N2 166.2(12) . .
C12 C13 C21 C22 -179.2(8) . .
C14 C13 C21 C22 -3.0(11) . .
C14' C13 C21 C22 -14.9(15) . .
N2 C21 C22 C23 -0.4(10) . .
C13 C21 C22 C23 -179.5(8) . .
C21 C22 C23 C24 0.4(10) . .
C22 C23 C24 C8 -176.2(9) . 7_456
C22 C23 C24 N2 -0.2(10) . .
C13 C12 N1 C9 175.9(7) . .
C11 C12 N1 C9 -2.7(9) . .
C8 C9 N1 C12 -175.6(8) . .
C8' C9 N1 C12 -175.6(8) . .
C10 C9 N1 C12 4.5(10) . .
C8 C24 N2 C21 176.0(7) 7_456 .
C23 C24 N2 C21 -0.1(8) . .
C13 C21 N2 C24 179.4(7) . .
C22 C21 N2 C24 0.3(8) . .
O4 C20 O3 Cd1' -5.4(11) . .
C17' C20 O3 Cd1' 158.8(14) . .
Cd1' C20 O3 Cd1' -4.1(2) 2_756 .
O4 C20 O3 Cd1' -1.3(10) . 2_756
C17' C20 O3 Cd1' 162.9(15) . 2_756
O4 C20 O3 Cd1 -11.3(10) . .
C17 C20 O3 Cd1 176.1(9) . .
O3 C20 O4 Cd1' 1.4(11) . 2_756
C17' C20 O4 Cd1' -164.7(12) . 2_756
O3 C20 O4 Cd2 124.6(8) . 2_656
C17 C20 O4 Cd2 -62.9(15) . 2_656
O3 C20 O4 Cd1 11.8(10) . .
C17 C20 O4 Cd1 -175.7(10) . .
O3 C20 O4 Cd1' 4.8(10) . .
C17' C20 O4 Cd1' -161.2(12) . .
Cd1' C20 O4 Cd1' 3.44(19) 2_756 .
O3 C20 O4 Cd2 143.4(9) . .
C17 C20 O4 Cd2 -44.1(19) . .
