#------------------------------------------------------------------------------
#$Date: 2019-11-07 22:29:26 +0200 (Thu, 07 Nov 2019) $
#$Revision: 223800 $
#$URL: file:///home/coder/svn-repositories/cod/cif/7/70/00/7700026.cif $
#------------------------------------------------------------------------------
#
# This file is available in the Crystallography Open Database (COD),
# http://www.crystallography.net/
#
# All data on this site have been placed in the public domain by the
# contributors.
#
data_7700026
loop_
_publ_author_name
'Li, Qi'
'Luo, Yanping'
'Ding, Yue'
'Wang, Yina'
'Wang, Yuxin'
'Du, Hongbin'
'Yuan, Rongxin'
'Bao, Jianchun'
'Fang, Min'
'Wu, Yong'
_publ_section_title
;
 Charge, adsorption, water stability and bandgap tuning of an anionic
 Cd(ii) porphyrinic metal-organic framework.
;
_journal_issue                   24
_journal_name_full
'Dalton transactions (Cambridge, England : 2003)'
_journal_page_first              8678
_journal_page_last               8692
_journal_paper_doi               10.1039/c9dt00478e
_journal_volume                  48
_journal_year                    2019
_chemical_formula_moiety         '0.5(C192 H104 Cd6.54 N16 O32)'
_chemical_formula_sum            'C113.76 H102.04 Cd3.31 N14.38 O23'
_chemical_formula_weight         2390.46
_space_group_crystal_system      monoclinic
_space_group_IT_number           15
_space_group_name_Hall           '-C 2yc'
_space_group_name_H-M_alt        'C 1 2/c 1'
_symmetry_space_group_name_Hall  '-C 2yc'
_symmetry_space_group_name_H-M   'C 1 2/c 1'
_atom_sites_solution_hydrogens   geom
_atom_sites_solution_primary     dual
_audit_creation_date             2019-04-26
_audit_creation_method
;
Olex2 1.2
(compiled 2018.05.29 svn.r3508 for OlexSys, GUI svn.r5506)
;
_audit_update_record
;
2019-04-26 deposited with the CCDC.    2019-05-17 downloaded from the CCDC.
;
_cell_angle_alpha                90
_cell_angle_beta                 95.216(3)
_cell_angle_gamma                90
_cell_formula_units_Z            2
_cell_length_a                   7.0923(16)
_cell_length_b                   26.431(6)
_cell_length_c                   30.165(8)
_cell_measurement_reflns_used    5610
_cell_measurement_temperature    296(2)
_cell_measurement_theta_max      18.92
_cell_measurement_theta_min      2.55
_cell_volume                     5631(2)
_computing_cell_refinement       'SAINT V8.38A (Bruker, 2016)'
_computing_data_reduction        'SAINT V8.38A (Bruker, 2016)'
_computing_molecular_graphics    'Olex2 (Dolomanov et al., 2009)'
_computing_publication_material  'Olex2 (Dolomanov et al., 2009)'
_computing_structure_refinement  'ShelXL (Sheldrick, 2015)'
_computing_structure_solution    'XT (Sheldrick, 2015)'
_diffrn_ambient_temperature      296.15
_diffrn_measured_fraction_theta_full 0.998
_diffrn_measured_fraction_theta_max 0.990
_diffrn_measurement_device_type  'Bruker APEX-II CCD'
_diffrn_measurement_method       '\f and \w scans'
_diffrn_radiation_monochromator  graphite
_diffrn_radiation_type           MoK\a
_diffrn_radiation_wavelength     0.71073
_diffrn_reflns_av_R_equivalents  0.1403
_diffrn_reflns_av_unetI/netI     0.0842
_diffrn_reflns_Laue_measured_fraction_full 0.998
_diffrn_reflns_Laue_measured_fraction_max 0.990
_diffrn_reflns_limit_h_max       9
_diffrn_reflns_limit_h_min       -9
_diffrn_reflns_limit_k_max       33
_diffrn_reflns_limit_k_min       -33
_diffrn_reflns_limit_l_max       38
_diffrn_reflns_limit_l_min       -38
_diffrn_reflns_number            57091
_diffrn_reflns_point_group_measured_fraction_full 0.998
_diffrn_reflns_point_group_measured_fraction_max 0.990
_diffrn_reflns_theta_full        25.242
_diffrn_reflns_theta_max         27.139
_diffrn_reflns_theta_min         1.683
_diffrn_source                   'fine-focus sealed tube'
_diffrn_standards_number         0
_exptl_absorpt_coefficient_mu    0.694
_exptl_absorpt_correction_T_max  0.7455
_exptl_absorpt_correction_T_min  0.6780
_exptl_absorpt_correction_type   multi-scan
_exptl_absorpt_process_details
'SADABS-2016/2 (Bruker,2016/2) was used for absorption correction. wR2(int) was 0.0697 before and 0.0597 after correction. The Ratio of minimum to maximum transmission is 0.9095. The \l/2 correction factor is Not present.'
_exptl_crystal_colour            'metallic dark violet'
_exptl_crystal_colour_lustre     metallic
_exptl_crystal_colour_modifier   dark
_exptl_crystal_colour_primary    violet
_exptl_crystal_density_diffrn    1.410
_exptl_crystal_description       block
_exptl_crystal_F_000             2416
_exptl_crystal_size_max          0.053
_exptl_crystal_size_mid          0.032
_exptl_crystal_size_min          0.012
_platon_squeeze_details
;
TITL mo_3_collect_0ma_a.res in C2/c
CELL    7.0923   26.4310   30.1650     90.00     95.22     90.00
SPGR C2/c
# Solvent Accessible Volume =      1859
# Electrons Found in S.A.V. =       505
# Note: Atoms in Void are Labelled as Cxxx and Qxxx for all Others
C101 0.280 0.450 0.949 !       2.08 eA-3
C102 1.000 0.125 0.755 !       2.04 eA-3
Q103 0.909 0.383 0.740 !       2.00 eA-3
C104 0.401 0.266 0.250 !       1.80 eA-3
Q105 0.910 0.018 0.775 !       1.74 eA-3
C106 0.501 0.289 0.250 !       1.66 eA-3
C107 0.850 0.201 0.744 !       1.62 eA-3
C108 1.000 0.328 0.255 !       1.61 eA-3
C109 0.435 0.320 0.246 !       1.59 eA-3
Q110 0.426 0.119 0.264 !       1.55 eA-3
C111 0.569 0.386 0.229 !       1.52 eA-3
C112 0.685 0.086 0.431 !       1.51 eA-3
Q113 0.970 0.218 0.267 !       1.46 eA-3
C114 0.111 0.418 0.908 !       1.44 eA-3
C115 0.650 0.359 0.251 !       1.42 eA-3
C116 0.850 0.141 0.749 !       1.42 eA-3
C117 0.810 0.033 0.416 !       1.41 eA-3
C118 0.223 0.298 0.250 !       1.40 eA-3
C119 0.875 0.350 0.249 !       1.38 eA-3
C120 1.000 0.289 0.250 !       1.36 eA-3
Q121 0.500 0.492 0.745 !       1.35 eA-3
C122 0.076 0.431 0.921 !       1.34 eA-3
C123 0.784 0.173 0.745 !       1.31 eA-3
C124 0.889 0.048 0.422 !       1.31 eA-3
C125 0.434 0.383 0.231 !       1.24 eA-3
Q126 0.442 0.068 0.274 !       1.23 eA-3
C127 0.253 0.358 0.256 !       1.21 eA-3
C128 0.889 0.065 0.468 !       1.18 eA-3
C129 0.599 0.180 0.758 !       1.17 eA-3
Q130 0.999 0.023 0.748 !       1.15 eA-3
C131 0.248 0.370 0.232 !       1.14 eA-3
Q132 0.553 0.500 0.291 !       1.14 eA-3
C133 0.687 0.421 0.519 !       1.11 eA-3
C134 0.627 0.342 0.226 !       1.10 eA-3
Q135 1.000 0.484 0.753 !       1.08 eA-3
C136 1.001 0.258 0.247 !       1.07 eA-3
C137 0.658 0.494 0.562 !       1.04 eA-3
Q138 0.500 0.445 0.253 !       1.04 eA-3
C139 0.092 0.012 0.093 !       1.02 eA-3
Q140 0.411 0.047 0.240 !       1.01 eA-3
C141 0.464 0.015 0.033 !       1.01 eA-3
C142 0.994 0.008 0.063 !       1.00 eA-3
C143 0.301 0.482 0.969 !       0.99 eA-3
Q144 0.991 0.073 0.412 !       0.99 eA-3
C145 0.280 0.257 0.252 !       0.98 eA-3
C146 0.987 0.367 0.264 !       0.97 eA-3
C147 0.906 0.492 0.010 !       0.97 eA-3
C148 0.781 0.242 0.748 !       0.97 eA-3
C149 0.491 0.501 0.530 !       0.96 eA-3
Q150 0.999 0.422 0.247 !       0.96 eA-3
C151 0.619 0.101 0.443 !       0.95 eA-3
C152 0.481 0.451 0.550 !       0.95 eA-3
C153 0.748 0.117 0.444 !       0.93 eA-3
C154 0.940 0.267 0.219 !       0.93 eA-3
C155 0.852 0.284 0.232 !       0.92 eA-3
C156 0.872 0.091 0.430 !       0.92 eA-3
C157 0.649 0.242 0.742 !       0.92 eA-3
C158 0.469 0.018 0.493 !       0.92 eA-3
C159 0.349 0.227 0.789 !       0.92 eA-3
Q160 0.026 0.068 0.273 !       0.92 eA-3
C161 0.500 0.500 0.000 !       0.91 eA-3
C162 0.267 0.092 0.031 !       0.89 eA-3
Q163 0.247 0.244 0.210 !       0.88 eA-3
Q164 0.138 0.226 0.219 !       0.88 eA-3
C165 0.062 0.022 0.547 !       0.87 eA-3
C166 0.296 0.452 0.990 !       0.87 eA-3
Q167 0.321 0.132 0.272 !       0.87 eA-3
Q168 0.500 0.180 0.251 !       0.86 eA-3
C169 0.907 0.014 0.016 !       0.86 eA-3
Q170 0.595 0.059 0.393 !       0.83 eA-3
Q171 0.626 0.120 0.414 !       0.83 eA-3
Q172 0.841 0.064 0.235 !       0.80 eA-3
Q173 0.689 0.259 0.312 !       0.80 eA-3
Q174 0.803 0.048 0.087 !       0.80 eA-3
C175 0.088 0.491 0.015 !       0.80 eA-3
Q176 0.428 0.327 0.205 !       0.79 eA-3
Q177 0.282 0.437 0.272 !       0.79 eA-3
Q178 0.532 0.317 0.210 !       0.79 eA-3
C179 0.302 0.076 0.006 !       0.78 eA-3
Q180 0.379 0.068 0.432 !       0.78 eA-3
C181 0.095 0.025 0.452 !       0.78 eA-3
Q182 0.375 0.421 0.227 !       0.78 eA-3
Q183 0.504 0.023 0.762 !       0.78 eA-3
Q184 0.509 0.081 0.444 !       0.77 eA-3
C185 0.356 0.257 0.280 !       0.77 eA-3
Q186 0.037 0.239 0.212 !       0.77 eA-3
C187 0.820 0.452 0.493 !       0.76 eA-3
C188 0.679 0.382 0.525 !       0.76 eA-3
Q189 0.970 0.131 0.800 !       0.76 eA-3
C190 0.235 0.399 0.255 !       0.76 eA-3
Q191 0.756 0.008 0.392 !       0.75 eA-3
Q192 0.943 0.151 0.257 !       0.75 eA-3
Q193 0.332 0.283 0.164 !       0.75 eA-3
Q194 0.978 0.173 0.219 !       0.74 eA-3
C195 0.058 0.461 0.541 !       0.74 eA-3
Q196 0.069 0.014 0.408 !       0.73 eA-3
Q197 0.933 0.202 0.289 !       0.73 eA-3
Q198 0.346 0.360 0.924 !       0.73 eA-3
Q199 0.901 0.024 0.557 !       0.72 eA-3
;
_refine_diff_density_max         1.420
_refine_diff_density_min         -1.170
_refine_diff_density_rms         0.102
_refine_ls_extinction_method     none
_refine_ls_goodness_of_fit_ref   1.034
_refine_ls_hydrogen_treatment    constr
_refine_ls_matrix_type           full
_refine_ls_number_parameters     448
_refine_ls_number_reflns         6182
_refine_ls_number_restraints     806
_refine_ls_restrained_S_all      0.986
_refine_ls_R_factor_all          0.1720
_refine_ls_R_factor_gt           0.0923
_refine_ls_shift/su_max          0.001
_refine_ls_shift/su_mean         0.000
_refine_ls_structure_factor_coef Fsqd
_refine_ls_weighting_details
'w=1/[\s^2^(Fo^2^)+(0.0859P)^2^+52.8405P] where P=(Fo^2^+2Fc^2^)/3'
_refine_ls_weighting_scheme      calc
_refine_ls_wR_factor_gt          0.2055
_refine_ls_wR_factor_ref         0.2488
_reflns_Friedel_coverage         0.000
_reflns_number_gt                3224
_reflns_number_total             6182
_reflns_threshold_expression     'I > 2\s(I)'
_iucr_refine_instructions_details
;
TITL mo_3_collect_0ma_a.res in C2/c
    mo_3_collect_0ma_sq.res
    created by SHELXL-2018/3 at 11:50:16 on 26-Apr-2019
REM Old TITL mo_3_collect_0ma in C2/c
REM SHELXT solution in C2/c
REM R1 0.362, Rweak 0.101, Alpha 0.173, Orientation as input
REM Formula found by SHELXT: C48 N13 O8 Cd2
CELL 0.71073 7.0923 26.4307 30.1654 90 95.216 90
ZERR 2 0.0016 0.0061 0.0075 0 0.003 0
LATT 7
SYMM -X,+Y,0.5-Z
SFAC C H Cd N O
UNIT 227.52 164.08 6.62 28.76 46
DFIX 1.5 C18A C17A
DFIX 1.5 C24A C21A
DFIX 1.24 O3A C24A
DFIX 1.24 O4A C24A
DFIX 1.24 O3B C24B
DFIX 1.24 O4B C24B
DELU $C $N $O
SIMU 0.02 0.04 1.7 $C $N $O
ISOR 0.01 0.02 O3A

L.S. 5 0 71
PLAN  50
SIZE 0.053 0.032 0.012
TEMP 23
FREE C1 Cd1
BOND $H
ABIN
fmap 2
acta
OMIT -1 7 2
OMIT 3 7 4
OMIT 0 8 2
OMIT 0 8 4
OMIT 0 6 2
OMIT 0 6 0
OMIT 0 4 0
OMIT 1 1 2
OMIT 0 2 7
REM <olex2.extras>
REM <HklSrc "%.\\mo_3_collect_0ma_sq.hkl">
REM </olex2.extras>

WGHT    0.085900   52.840500
FVAR       0.18005   0.79234   0.31742
CD1   3    1.500000    0.906982    0.750000    10.50000    0.05250    0.10813 =
         0.03197    0.00000   -0.00547    0.00000
CD2   3   -0.500000    0.454388    0.750000    31.00000    0.07924    0.05388 =
         0.10991    0.00000   -0.05335    0.00000
O2    5    1.184647    0.886424    0.726561    11.00000    0.04841    0.16465 =
         0.04628   -0.03602    0.00434   -0.00146
O1    5    1.402790    0.849247    0.693313    11.00000    0.05063    0.14649 =
         0.08001   -0.03766   -0.02025    0.02403
N1    4    0.467683    0.801161    0.496339    11.00000    0.06779    0.08348 =
         0.04702   -0.01404   -0.01575   -0.00050
AFIX  43
H1    2    0.381553    0.778274    0.496489    11.00000   -1.20000
AFIX   0
C12   1    0.478710    0.837027    0.464683    11.00000    0.09635    0.07663 =
         0.05129   -0.01632   -0.01553   -0.00651
C10   1    0.731237    0.848498    0.514051    11.00000    0.09974    0.12936 =
         0.08114   -0.01954   -0.02717   -0.03314
AFIX  43
H10   2    0.842268    0.860363    0.529331    11.00000   -1.20000
AFIX   0
C11   1    0.650610    0.867101    0.474815    11.00000    0.12544    0.10480 =
         0.07722   -0.01509   -0.01713   -0.03809
AFIX  43
H11   2    0.695058    0.893300    0.458010    11.00000   -1.20000
AFIX   0
C9    1    0.617029    0.807390    0.528218    11.00000    0.06370    0.10054 =
         0.05226   -0.02612   -0.01391   -0.00101
C8    1    0.649256    0.781371    0.567338    11.00000    0.05146    0.11198 =
         0.04574   -0.02568   -0.00997    0.01470
C1    1    1.233021    0.858286    0.696534    11.00000    0.04608    0.13584 =
         0.04509   -0.02830   -0.00689    0.01385
PART 1
O4B   5    0.228403    0.457110    0.699668   -31.00000    0.11759    0.06961 =
         0.09861   -0.01225   -0.05734    0.03643
O3B   5   -0.062719    0.482041    0.705430   -31.00000    0.10591    0.08401 =
         0.11156    0.00633   -0.01502   -0.00163
N2B   4    0.386146    0.720970    0.560046   -31.00000    0.05313    0.08707 =
         0.03447   -0.01500   -0.01199    0.02146
C16B  1    0.328910    0.683617    0.582721   -31.00000    0.05796    0.09762 =
         0.04710   -0.01270   -0.01626    0.01132
C19B  1    0.285631    0.575425    0.608037   -31.00000    0.07547    0.10376 =
         0.07778   -0.00078   -0.00761    0.03657
AFIX  43
H19B  2    0.389718    0.577599    0.591476   -31.00000   -1.20000
AFIX   0
C15B  1    0.453541    0.681774    0.624402   -31.00000    0.06875    0.11212 =
         0.04676   -0.00571   -0.02182    0.01095
AFIX  43
H15B  2    0.444218    0.659202    0.647752   -31.00000   -1.20000
AFIX   0
C23B  1   -0.002278    0.608785    0.626473   -31.00000    0.07135    0.06721 =
         0.09636    0.00860    0.00150    0.02132
AFIX  43
H23B  2   -0.091626    0.634626    0.624093   -31.00000   -1.20000
AFIX   0
C21B  1    0.111519    0.531699    0.660486   -31.00000    0.07449    0.07532 =
         0.08138    0.00178   -0.02249    0.02077
C13B  1    0.549807    0.745004    0.581015   -31.00000    0.04649    0.09629 =
         0.04357   -0.02329   -0.01400    0.02126
C18B  1    0.144254    0.611270    0.602914   -31.00000    0.07092    0.08247 =
         0.06436   -0.00636   -0.00876    0.01994
C14B  1    0.582694    0.718410    0.622673   -31.00000    0.06034    0.11394 =
         0.05035   -0.01552   -0.02109    0.00966
AFIX  43
H14B  2    0.678655    0.725588    0.644876   -31.00000   -1.20000
AFIX   0
C24B  1    0.091081    0.486186    0.691411   -31.00000    0.09175    0.07238 =
         0.08010   -0.00620   -0.03702    0.01444
C22B  1   -0.026997    0.568176    0.655050   -31.00000    0.07335    0.08127 =
         0.09426    0.01590    0.00071    0.02291
AFIX  43
H22B  2   -0.135322    0.565853    0.670143   -31.00000   -1.20000
AFIX   0
C20B  1    0.272491    0.537557    0.636887   -31.00000    0.07820    0.10465 =
         0.08534    0.00173   -0.01528    0.03952
AFIX  43
H20B  2    0.371673    0.514587    0.641486   -31.00000   -1.20000
AFIX   0
C17B  1    0.174040    0.655036    0.571232   -31.00000    0.06052    0.08306 =
         0.05468   -0.01001   -0.01490    0.01571
PART 0
PART 2
O4A   5   -0.039888    0.455220    0.692303    31.00000    0.10172    0.07589 =
         0.06928    0.00205   -0.01046   -0.01732
O3A   5   -0.318428    0.504106    0.704700    31.00000    0.08745    0.07942 =
         0.07476    0.04543   -0.02579   -0.02326
N2A   4    0.370647    0.721584    0.553542    31.00000    0.05164    0.09475 =
         0.04497   -0.01628   -0.00959    0.01536
C13A  1    0.521782    0.733583    0.581523    31.00000    0.05240    0.10129 =
         0.03996   -0.02138   -0.00839    0.01947
C21A  1   -0.069114    0.528200    0.657284    31.00000    0.07159    0.07758 =
         0.07734    0.01155   -0.00483    0.01535
C14A  1    0.556648    0.701698    0.620288    31.00000    0.06412    0.10564 =
         0.04624   -0.01726   -0.01887    0.01483
AFIX  43
H14A  2    0.662246    0.703129    0.640919    31.00000   -1.20000
AFIX   0
C19A  1    0.146262    0.564042    0.604139    31.00000    0.06577    0.08640 =
         0.06949    0.00457   -0.00134    0.02190
AFIX  43
H19A  2    0.248689    0.558641    0.587541    31.00000   -1.20000
AFIX   0
C22A  1   -0.153110    0.581202    0.654856    31.00000    0.07213    0.07566 =
         0.08934    0.01727    0.00751    0.01214
AFIX  43
H22A  2   -0.247821    0.589533    0.672967    31.00000   -1.20000
AFIX   0
C15A  1    0.405249    0.668526    0.621439    31.00000    0.06900    0.10248 =
         0.04847   -0.01226   -0.01508    0.01098
AFIX  43
H15A  2    0.387674    0.644107    0.642876    31.00000   -1.20000
AFIX   0
C17A  1    0.112583    0.654313    0.572747    31.00000    0.05609    0.07809 =
         0.04506   -0.01292    0.00073    0.02069
C23A  1   -0.094830    0.615207    0.627848    31.00000    0.06747    0.07185 =
         0.08393    0.01133    0.00937    0.01324
AFIX  43
H23A  2   -0.160949    0.645634    0.626728    31.00000   -1.20000
AFIX   0
C18A  1    0.047475    0.612330    0.601443    31.00000    0.06296    0.07822 =
         0.06345   -0.00360    0.00107    0.02241
C16A  1    0.283153    0.679964    0.582813    31.00000    0.05823    0.09150 =
         0.04524   -0.01297   -0.01001    0.01700
C24A  1   -0.161346    0.491203    0.687747    31.00000    0.10113    0.08171 =
         0.06915    0.02148   -0.02557   -0.01105
C20A  1    0.085377    0.524638    0.632507    31.00000    0.07100    0.08336 =
         0.08063    0.00992   -0.00718    0.02016
AFIX  43
H20A  2    0.154589    0.494707    0.634324    31.00000   -1.20000
AFIX  66
PART 0
PART 3
C3B   1    0.895766    0.839766    0.670338    21.00000    0.04518    0.14059 =
         0.04034   -0.03338    0.00572    0.01091
AFIX  43
H3B   2    0.862454    0.856207    0.695744    21.00000   -1.20000
AFIX  65
C2B   1    1.085529    0.833690    0.663403    21.00000    0.04922    0.14359 =
         0.04409   -0.03788   -0.01272    0.02573
C7B   1    1.135318    0.809117    0.625431    21.00000    0.03916    0.13526 =
         0.05499   -0.03361   -0.00294    0.02742
AFIX  43
H7B   2    1.262282    0.805052    0.620791    21.00000   -1.20000
AFIX  65
C6B   1    0.995344    0.790620    0.594394    21.00000    0.05061    0.13986 =
         0.04369   -0.04404   -0.00159    0.01845
AFIX  43
H6B   2    1.028657    0.774179    0.568988    21.00000   -1.20000
AFIX  65
C5B   1    0.805580    0.796696    0.601329    21.00000    0.04638    0.13092 =
         0.04618   -0.03193   -0.01376    0.02316
C4B   1    0.755789    0.821269    0.639300    21.00000    0.04708    0.13541 =
         0.04731   -0.03055    0.00131    0.01403
AFIX  43
H4B   2    0.628824    0.825334    0.643940    21.00000   -1.20000
AFIX  66
PART 0
PART 4
C5A   1    0.808105    0.808133    0.599081   -21.00000    0.04925    0.12975 =
         0.04881   -0.03422   -0.01011    0.01903
C6A   1    0.979781    0.782919    0.607165   -21.00000    0.05038    0.13477 =
         0.05081   -0.03663   -0.00658    0.02086
AFIX  43
H6A   2    1.002440    0.753560    0.591506   -21.00000   -1.20000
AFIX  65
C7A   1    1.117592    0.801587    0.638651   -21.00000    0.04446    0.14022 =
         0.04551   -0.03696   -0.00363    0.02363
AFIX  43
H7A   2    1.232454    0.784717    0.644060   -21.00000   -1.20000
AFIX  65
C2A   1    1.083727    0.845468    0.662055   -21.00000    0.04466    0.13631 =
         0.04678   -0.03702   -0.00270    0.01795
C3A   1    0.912052    0.870683    0.653971   -21.00000    0.04574    0.13552 =
         0.04791   -0.03940   -0.00778    0.01943
AFIX  43
H3A   2    0.889395    0.900042    0.669630   -21.00000   -1.20000
AFIX  65
C4A   1    0.774240    0.852016    0.622485   -21.00000    0.04912    0.13255 =
         0.04649   -0.03732   -0.00664    0.01645
AFIX  43
H4A   2    0.659378    0.868886    0.617076   -21.00000   -1.20000
AFIX   0
HKLF 4




REM  mo_3_collect_0ma_a.res in C2/c
REM wR2 = 0.2488, GooF = S = 1.034, Restrained GooF = 0.986 for all data
REM R1 = 0.0923 for 3224 Fo > 4sig(Fo) and 0.1720 for all 6182 data
REM 448 parameters refined using 806 restraints

END  
     
WGHT      0.0859     52.8706 

REM Highest difference peak  1.420,  deepest hole -1.170,  1-sigma level  0.102
Q1    1  -0.4090  0.5189  0.7225  11.00000  0.05    1.42
Q2    1   1.5823  0.8824  0.7559  11.00000  0.05    1.27
Q3    1  -0.5294  0.4399  0.7673  11.00000  0.05    0.99
Q4    1  -0.4582  0.4908  0.7901  11.00000  0.05    0.84
Q5    1   1.4582  0.9209  0.7722  11.00000  0.05    0.61
Q6    1  -0.4725  0.4811  0.7679  11.00000  0.05    0.55
Q7    1   1.6187  0.9104  0.7905  11.00000  0.05    0.49
Q8    1  -0.2994  0.4835  0.6886  11.00000  0.05    0.45
Q9    1   0.0047  0.4401  0.6940  11.00000  0.05    0.42
Q10   1   0.2090  0.7720  0.5082  11.00000  0.05    0.41
Q11   1   1.2993  0.9195  0.7425  11.00000  0.05    0.41
Q12   1   1.2986  0.8601  0.7357  11.00000  0.05    0.39
Q13   1   0.3428  0.7384  0.5276  11.00000  0.05    0.37
Q14   1   0.0537  0.4600  0.7051  11.00000  0.05    0.36
Q15   1  -0.3201  0.4403  0.7603  11.00000  0.05    0.34
Q16   1  -0.3859  0.4519  0.7015  11.00000  0.05    0.34
Q17   1   1.0353  0.8725  0.7365  11.00000  0.05    0.33
Q18   1   1.3048  0.8746  0.7699  11.00000  0.05    0.33
Q19   1  -0.0985  0.4584  0.7411  11.00000  0.05    0.33
Q20   1   1.2831  0.8910  0.7657  11.00000  0.05    0.32
Q21   1  -0.2597  0.4879  0.7073  11.00000  0.05    0.30
Q22   1   1.1919  0.9224  0.7263  11.00000  0.05    0.29
Q23   1   1.2150  0.9417  0.5551  11.00000  0.05    0.28
Q24   1   0.9747  0.8308  0.7269  11.00000  0.05    0.28
Q25   1   1.5419  0.8503  0.7277  11.00000  0.05    0.28
Q26   1   1.5000  0.8378  0.7500  10.50000  0.05    0.27
Q27   1  -0.1161  0.4854  0.6830  11.00000  0.05    0.27
Q28   1   0.1405  0.4258  0.7010  11.00000  0.05    0.27
Q29   1   0.1580  0.4614  0.7389  11.00000  0.05    0.27
Q30   1  -0.2850  0.6491  0.6131  11.00000  0.05    0.27
Q31   1  -0.2187  0.5703  0.7074  11.00000  0.05    0.27
Q32   1   0.7688  0.7777  0.6025  11.00000  0.05    0.27
Q33   1   0.9881  0.8097  0.6686  11.00000  0.05    0.27
Q34   1   1.5789  0.8391  0.7191  11.00000  0.05    0.26
Q35   1   1.0550  0.8526  0.7415  11.00000  0.05    0.26
Q36   1   0.7242  0.8322  0.4746  11.00000  0.05    0.26
Q37   1   0.3198  0.7108  0.5618  11.00000  0.05    0.26
Q38   1   0.8878  0.8737  0.7217  11.00000  0.05    0.26
Q39   1   0.5819  0.8601  0.4772  11.00000  0.05    0.26
Q40   1   0.7877  0.8061  0.6243  11.00000  0.05    0.25
Q41   1   0.8068  0.8022  0.6642  11.00000  0.05    0.25
Q42   1   0.5979  0.7525  0.7425  11.00000  0.05    0.25
Q43   1   0.5827  0.6456  0.5714  11.00000  0.05    0.25
Q44   1   1.1547  0.9003  0.7498  11.00000  0.05    0.25
Q45   1   1.0566  0.8659  0.6273  11.00000  0.05    0.25
Q46   1   0.7491  0.8871  0.4141  11.00000  0.05    0.24
Q47   1   0.5749  0.7557  0.5525  11.00000  0.05    0.24
Q48   1   0.4366  0.5807  0.6702  11.00000  0.05    0.24
Q49   1   1.2221  0.9128  0.7100  11.00000  0.05    0.24
Q50   1   0.8645  0.7219  0.5756  11.00000  0.05    0.24

  REM The information below was added by Olex2.
  REM
  REM R1 = 0.0923 for 3224 Fo > 4sig(Fo) and 0.1720 for all 57864 data
  REM n/a parameters refined using n/a restraints
  REM Highest difference peak 1.42, deepest hole -1.17
  REM Mean Shift 0, Max Shift -0.001.

  REM +++ Tabular Listing of Refinement Information +++
  REM R1_all = 0.1720
  REM R1_gt = 0.0923
  REM wR_ref = 0.2488
  REM GOOF = 1.034
  REM Shift_max = -0.001
  REM Shift_mean = 0
  REM Reflections_all = 57864
  REM Reflections_gt = 3224
  REM Parameters = n/a
  REM Hole = -1.17
  REM Peak = 1.42
  REM Flack = n/a

  
;
_cod_data_source_file            c9dt00478e2.cif
_cod_data_source_block           mo_3_collect_0ma_sq
_cod_depositor_comments
'Adding full bibliography for 7700026--7700027.cif.'
_cod_database_code               7700026
_shelx_shelxl_version_number     2018/3
_shelx_space_group_comment
;
The symmetry employed for this shelxl refinement is uniquely defined
by the following loop, which should always be used as a source of
symmetry information in preference to the above space-group names.
They are only intended as comments.
;
_shelx_estimated_absorpt_t_max   0.992
_shelx_estimated_absorpt_t_min   0.964
_olex2_refinement_description
;
1. Fixed Uiso
 At 1.2 times of:
  All C(H) groups, All N(H) groups
2. Restrained distances
 C18A-C17A
 1.5 with sigma of 0.02
 C24A-C21A
 1.5 with sigma of 0.02
 O3A-C24A
 1.24 with sigma of 0.02
 O4A-C24A
 1.24 with sigma of 0.02
 O3B-C24B
 1.24 with sigma of 0.02
 O4B-C24B
 1.24 with sigma of 0.02
3. Rigid bond restraints
 C12, C10, C11, C9, C8, C1, C16B, C19B, C15B, C23B, C21B, C13B, C18B, C14B,
 C24B, C22B, C20B, C17B, C13A, C21A, C14A, C19A, C22A, C15A, C17A, C23A, C18A,
 C16A, C24A, C20A, C3B, C2B, C7B, C6B, C5B, C4B, C5A, C6A, C7A, C2A, C3A, C4A,
 N1, N2B, N2A, O2, O1, O4B, O3B, O4A, O3A
 with sigma for 1-2 distances of 0.01 and sigma for 1-3 distances of 0.01
4. Uiso/Uaniso restraints and constraints
C12 \\sim C10 \\sim C11 \\sim C9 \\sim C8 \\sim C1 \\sim C16B \\sim C19B \\sim
C15B \\sim C23B \\sim C21B \\sim C13B \\sim C18B \\sim C14B \\sim C24B \\sim
C22B \\sim C20B \\sim C17B \\sim C13A \\sim C21A \\sim C14A \\sim C19A \\sim
C22A \\sim C15A \\sim C17A \\sim C23A \\sim C18A \\sim C16A \\sim C24A \\sim
C20A \\sim C3B \\sim C2B \\sim C7B \\sim C6B \\sim C5B \\sim C4B \\sim C5A
\\sim C6A \\sim C7A \\sim C2A \\sim C3A \\sim C4A \\sim N1 \\sim N2B \\sim N2A
\\sim O2 \\sim O1 \\sim O4B \\sim O3B \\sim O4A \\sim O3A: within 1.7A with
sigma of 0.02 and sigma for terminal atoms of 0.04
Uanis(O3A) \\sim Ueq: with sigma of 0.01 and sigma for terminal atoms of 0.02
5. Others
 Sof(C5A)=Sof(C6A)=Sof(H6A)=Sof(C7A)=Sof(H7A)=Sof(C2A)=Sof(C3A)=Sof(H3A)=
 Sof(C4A)=Sof(H4A)=1-FVAR(1)
 Sof(C3B)=Sof(H3B)=Sof(C2B)=Sof(C7B)=Sof(H7B)=Sof(C6B)=Sof(H6B)=Sof(C5B)=
 Sof(C4B)=Sof(H4B)=FVAR(1)
 Sof(O4B)=Sof(O3B)=Sof(N2B)=Sof(C16B)=Sof(C19B)=Sof(H19B)=Sof(C15B)=Sof(H15B)=
 Sof(C23B)=Sof(H23B)=Sof(C21B)=Sof(C13B)=Sof(C18B)=Sof(C14B)=Sof(H14B)=
 Sof(C24B)=Sof(C22B)=Sof(H22B)=Sof(C20B)=Sof(H20B)=Sof(C17B)=1-FVAR(2)
 Sof(Cd2)=Sof(O4A)=Sof(O3A)=Sof(N2A)=Sof(C13A)=Sof(C21A)=Sof(C14A)=Sof(H14A)=
 Sof(C19A)=Sof(H19A)=Sof(C22A)=Sof(H22A)=Sof(C15A)=Sof(H15A)=Sof(C17A)=
 Sof(C23A)=Sof(H23A)=Sof(C18A)=Sof(C16A)=Sof(C24A)=Sof(C20A)=Sof(H20A)=FVAR(2)
6.a Aromatic/amide H refined with riding coordinates:
 N1(H1), C10(H10), C11(H11), C19B(H19B), C15B(H15B), C23B(H23B), C14B(H14B),
 C22B(H22B), C20B(H20B), C14A(H14A), C19A(H19A), C22A(H22A), C15A(H15A),
 C23A(H23A), C20A(H20A), C3B(H3B), C7B(H7B), C6B(H6B), C4B(H4B), C6A(H6A),
 C7A(H7A), C3A(H3A), C4A(H4A)
6.b Fitted hexagon refined as free rotating group:
 C3B(C2B,C7B,C6B,C5B,C4B), C5A(C6A,C7A,C2A,C3A,C4A)
;
_shelx_fab_file
;
 2 0 2 -16.09 0.00
 4 0 4 0.94 0.00
 6 0 6 1.37 0.00
 8 0 8 6.27 0.00
 1 1 1 -27.28 0.00
 3 1 3 4.14 0.00
 5 1 5 0.02 0.00
 7 1 7 -0.58 0.00
 2 2 2 -6.25 0.00
 4 2 4 1.91 0.00
 6 2 6 -2.81 0.00
 8 2 8 -3.91 0.00
 1 3 1 -61.11 0.00
 3 3 3 5.08 0.00
 5 3 5 -0.44 0.00
 7 3 7 -5.36 0.00
 0 4 0 60.16 0.00
 2 4 2 -1.23 0.00
 4 4 4 -2.75 0.00
 6 4 6 -0.65 0.00
 8 4 8 -2.51 0.00
 1 5 1 -46.22 0.00
 3 5 3 11.03 0.00
 5 5 5 -4.18 0.00
 7 5 7 -3.91 0.00
 0 6 0 -29.74 0.00
 2 6 2 2.89 0.00
 4 6 4 -4.84 0.00
 6 6 6 -3.52 0.00
 8 6 8 1.72 0.00
 1 7 1 -28.35 0.00
 3 7 3 0.60 0.00
 5 7 5 0.82 0.00
 7 7 7 -1.68 0.00
 0 8 0 -24.85 0.00
 2 8 2 2.24 0.00
 4 8 4 -0.57 0.00
 6 8 6 3.35 0.00
 8 8 8 3.86 0.00
 1 9 1 2.24 0.00
 3 9 3 -0.69 0.00
 5 9 5 -0.83 0.00
 7 9 7 2.33 0.00
 0 10 0 -19.89 0.00
 2 10 2 9.51 0.00
 4 10 4 2.71 0.00
 6 10 6 1.05 0.00
 8 10 8 -0.56 0.00
 1 11 1 6.10 0.00
 3 11 3 0.13 0.00
 5 11 5 -0.21 0.00
 7 11 7 -2.28 0.00
 0 12 0 -16.92 0.00
 2 12 2 6.67 0.00
 4 12 4 0.23 0.00
 6 12 6 6.63 0.00
 8 12 8 4.01 0.00
 1 13 1 4.57 0.00
 3 13 3 -1.11 0.00
 5 13 5 -0.01 0.00
 7 13 7 1.16 0.00
 0 14 0 1.50 0.00
 2 14 2 -0.46 0.00
 4 14 4 4.20 0.00
 6 14 6 -2.01 0.00
 1 15 1 -2.65 0.00
 3 15 3 0.22 0.00
 5 15 5 0.77 0.00
 7 15 7 0.23 0.00
 0 16 0 6.03 0.00
 2 16 2 0.17 0.00
 4 16 4 0.65 0.00
 6 16 6 1.15 0.00
 1 17 1 6.27 0.00
 3 17 3 -1.95 0.00
 5 17 5 3.50 0.00
 7 17 7 -1.67 0.00
 0 18 0 -0.08 0.00
 2 18 2 2.21 0.00
 4 18 4 -0.53 0.00
 6 18 6 -5.59 0.00
 1 19 1 4.43 0.00
 3 19 3 -0.39 0.00
 5 19 5 5.12 0.00
 7 19 7 8.04 0.00
 0 20 0 2.81 0.00
 2 20 2 -1.88 0.00
 4 20 4 1.22 0.00
 6 20 6 5.60 0.00
 1 21 1 0.13 0.00
 3 21 3 -0.57 0.00
 5 21 5 3.56 0.00
 0 22 0 2.72 0.00
 2 22 2 -0.93 0.00
 4 22 4 2.20 0.00
 6 22 6 -0.60 0.00
 1 23 1 0.23 0.00
 3 23 3 -4.04 0.00
 5 23 5 9.99 0.00
 0 24 0 5.56 0.00
 2 24 2 -4.62 0.00
 4 24 4 1.66 0.00
 6 24 6 -4.53 0.00
 1 25 1 -5.44 0.00
 3 25 3 4.89 0.00
 5 25 5 -6.63 0.00
 0 26 0 2.32 0.00
 2 26 2 3.11 0.00
 4 26 4 -5.51 0.00
 1 27 1 0.04 0.00
 3 27 3 -1.49 0.00
 5 27 5 2.70 0.00
 0 28 0 2.03 0.00
 2 28 2 -0.35 0.00
 4 28 4 0.89 0.00
 1 29 1 1.83 0.00
 3 29 3 1.87 0.00
 0 30 0 -7.85 0.00
 2 30 2 0.70 0.00
 1 31 1 -3.88 0.00
 3 31 3 6.58 0.00
 0 32 0 -8.93 0.00
 2 32 2 2.19 0.00
 1 33 1 3.70 0.00
 7 1 6 -0.61 0.00
 5 1 4 1.00 0.00
 3 1 2 -4.00 0.00
 1 1 0 34.35 0.00
 1 1 2 -78.21 0.00
 3 1 4 0.11 0.00
 5 1 6 -6.05 0.00
 7 1 8 -2.73 0.00
 8 2 7 -6.19 0.00
 6 2 5 1.75 0.00
 4 2 3 3.70 0.00
 2 2 1 9.74 0.00
 0 2 1 75.28 0.00
 2 2 3 1.81 0.00
 4 2 5 -1.25 0.00
 6 2 7 -0.66 0.00
 8 2 9 3.27 0.00
 7 3 6 -1.20 0.00
 5 3 4 0.76 0.00
 3 3 2 2.61 0.00
 1 3 0 8.34 0.00
 1 3 2 -16.42 0.00
 3 3 4 1.85 0.00
 5 3 6 1.19 0.00
 7 3 8 -0.92 0.00
 8 4 7 -0.50 0.00
 6 4 5 0.78 0.00
 4 4 3 2.53 0.00
 2 4 1 10.34 0.00
 0 4 1 -119.05 0.00
 2 4 3 1.10 0.00
 4 4 5 -0.20 0.00
 6 4 7 -0.58 0.00
 8 4 9 -4.66 0.00
 7 5 6 0.39 0.00
 5 5 4 3.66 0.00
 3 5 2 6.75 0.00
 1 5 0 10.38 0.00
 1 5 2 17.75 0.00
 3 5 4 6.95 0.00
 5 5 6 4.83 0.00
 7 5 8 -1.58 0.00
 8 6 7 0.41 0.00
 6 6 5 0.94 0.00
 4 6 3 1.75 0.00
 2 6 1 0.32 0.00
 0 6 1 -16.96 0.00
 2 6 3 6.91 0.00
 4 6 5 0.36 0.00
 6 6 7 -1.40 0.00
 8 6 9 -2.82 0.00
 7 7 6 0.97 0.00
 5 7 4 3.71 0.00
 3 7 2 4.27 0.00
 1 7 0 7.40 0.00
 1 7 2 8.39 0.00
 3 7 4 11.24 0.00
 5 7 6 9.14 0.00
 7 7 8 0.22 0.00
 8 8 7 -0.59 0.00
 6 8 5 -3.35 0.00
 4 8 3 0.07 0.00
 2 8 1 -0.53 0.00
 0 8 1 -7.41 0.00
 2 8 3 7.11 0.00
 4 8 5 0.98 0.00
 6 8 7 -3.80 0.00
 8 8 9 -0.53 0.00
 7 9 6 -1.38 0.00
 5 9 4 1.68 0.00
 3 9 2 4.90 0.00
 1 9 0 10.86 0.00
 1 9 2 -7.68 0.00
 3 9 4 0.90 0.00
 5 9 6 6.43 0.00
 7 9 8 3.10 0.00
 8 10 7 -2.60 0.00
 6 10 5 -6.33 0.00
 4 10 3 -0.33 0.00
 2 10 1 6.58 0.00
 0 10 1 9.84 0.00
 2 10 3 1.98 0.00
 4 10 5 -0.48 0.00
 6 10 7 -3.23 0.00
 8 10 9 -3.38 0.00
 7 11 6 2.67 0.00
 5 11 4 0.58 0.00
 3 11 2 -0.16 0.00
 1 11 0 -18.19 0.00
 1 11 2 7.05 0.00
 3 11 4 -0.41 0.00
 5 11 6 1.43 0.00
 7 11 8 -2.17 0.00
 8 12 7 -3.69 0.00
 6 12 5 -2.33 0.00
 4 12 3 -1.84 0.00
 2 12 1 2.85 0.00
 0 12 1 -0.81 0.00
 2 12 3 4.91 0.00
 4 12 5 -2.85 0.00
 6 12 7 -5.05 0.00
 8 12 9 -2.82 0.00
 7 13 6 0.43 0.00
 5 13 4 1.97 0.00
 3 13 2 0.37 0.00
 1 13 0 -11.19 0.00
 1 13 2 3.61 0.00
 3 13 4 -0.84 0.00
 5 13 6 2.04 0.00
 7 13 8 -2.36 0.00
 6 14 5 -3.38 0.00
 4 14 3 -0.08 0.00
 2 14 1 0.08 0.00
 0 14 1 -6.58 0.00
 2 14 3 1.97 0.00
 4 14 5 -2.32 0.00
 6 14 7 -3.48 0.00
 7 15 6 -2.66 0.00
 5 15 4 2.77 0.00
 3 15 2 -0.55 0.00
 1 15 0 -1.27 0.00
 1 15 2 -0.35 0.00
 3 15 4 -2.22 0.00
 5 15 6 0.05 0.00
 7 15 8 5.91 0.00
 6 16 5 -1.71 0.00
 4 16 3 -4.12 0.00
 2 16 1 -2.67 0.00
 0 16 1 0.20 0.00
 2 16 3 -0.29 0.00
 4 16 5 2.31 0.00
 6 16 7 -5.70 0.00
 7 17 6 7.58 0.00
 5 17 4 2.89 0.00
 3 17 2 -1.33 0.00
 1 17 0 3.60 0.00
 1 17 2 -2.54 0.00
 3 17 4 -0.12 0.00
 5 17 6 2.90 0.00
 7 17 8 3.67 0.00
 6 18 5 -3.74 0.00
 4 18 3 1.47 0.00
 2 18 1 -3.01 0.00
 0 18 1 4.22 0.00
 2 18 3 -5.33 0.00
 4 18 5 -0.44 0.00
 6 18 7 -0.49 0.00
 7 19 6 2.57 0.00
 5 19 4 3.05 0.00
 3 19 2 0.05 0.00
 1 19 0 1.44 0.00
 1 19 2 -1.60 0.00
 3 19 4 0.36 0.00
 5 19 6 5.40 0.00
 7 19 8 3.85 0.00
 6 20 5 2.05 0.00
 4 20 3 3.33 0.00
 2 20 1 0.56 0.00
 0 20 1 0.49 0.00
 2 20 3 -3.90 0.00
 4 20 5 0.59 0.00
 6 20 7 -8.37 0.00
 5 21 4 11.73 0.00
 3 21 2 -1.03 0.00
 1 21 0 0.05 0.00
 1 21 2 -0.05 0.00
 3 21 4 2.75 0.00
 5 21 6 2.74 0.00
 6 22 5 -9.00 0.00
 4 22 3 0.94 0.00
 2 22 1 1.27 0.00
 0 22 1 -1.52 0.00
 2 22 3 0.83 0.00
 4 22 5 6.96 0.00
 6 22 7 2.62 0.00
 5 23 4 6.28 0.00
 3 23 2 0.20 0.00
 1 23 0 -0.50 0.00
 1 23 2 -0.10 0.00
 3 23 4 2.83 0.00
 5 23 6 6.21 0.00
 6 24 5 -0.25 0.00
 4 24 3 0.51 0.00
 2 24 1 2.49 0.00
 0 24 1 -1.42 0.00
 2 24 3 1.80 0.00
 4 24 5 7.90 0.00
 5 25 4 0.27 0.00
 3 25 2 5.47 0.00
 1 25 0 -5.13 0.00
 1 25 2 -0.61 0.00
 3 25 4 -1.56 0.00
 5 25 6 -1.10 0.00
 4 26 3 -3.02 0.00
 2 26 1 4.75 0.00
 0 26 1 -1.81 0.00
 2 26 3 -1.52 0.00
 4 26 5 3.23 0.00
 5 27 4 0.33 0.00
 3 27 2 -3.22 0.00
 1 27 0 2.90 0.00
 1 27 2 -5.98 0.00
 3 27 4 6.65 0.00
 5 27 6 -6.17 0.00
 4 28 3 2.23 0.00
 2 28 1 -0.55 0.00
 0 28 1 -2.65 0.00
 2 28 3 2.72 0.00
 4 28 5 -10.49 0.00
 3 29 2 5.70 0.00
 1 29 0 0.68 0.00
 1 29 2 2.13 0.00
 3 29 4 -5.95 0.00
 4 30 3 -0.99 0.00
 2 30 1 -1.08 0.00
 0 30 1 3.99 0.00
 2 30 3 -2.17 0.00
 3 31 2 -1.30 0.00
 1 31 0 3.71 0.00
 1 31 2 -2.44 0.00
 3 31 4 -0.06 0.00
 2 32 1 -7.76 0.00
 0 32 1 -4.88 0.00
 2 32 3 4.82 0.00
 1 33 0 0.40 0.00
 1 33 2 -1.28 0.00
 8 0 6 -6.30 0.00
 6 0 4 -0.03 0.00
 4 0 2 5.00 0.00
 2 0 0 -7.25 0.00
 2 0 4 7.52 0.00
 4 0 6 3.09 0.00
 6 0 8 -2.07 0.00
 8 0 10 -8.81 0.00
 7 1 5 -2.61 0.00
 5 1 3 -1.24 0.00
 3 1 1 -1.67 0.00
 -1 1 1 65.14 0.00
 1 1 3 -19.60 0.00
 3 1 5 4.84 0.00
 5 1 7 1.30 0.00
 7 1 9 -0.18 0.00
 8 2 6 2.44 0.00
 6 2 4 1.85 0.00
 4 2 2 -0.31 0.00
 2 2 0 -3.34 0.00
 0 2 2 262.87 0.00
 2 2 4 2.60 0.00
 4 2 6 -0.93 0.00
 6 2 8 0.80 0.00
 8 2 10 0.02 0.00
 7 3 5 -0.31 0.00
 5 3 3 -2.59 0.00
 3 3 1 2.27 0.00
 -1 3 1 89.58 0.00
 1 3 3 -34.28 0.00
 3 3 5 10.58 0.00
 5 3 7 -3.22 0.00
 7 3 9 0.31 0.00
 8 4 6 0.52 0.00
 6 4 4 -0.54 0.00
 4 4 2 -3.66 0.00
 2 4 0 7.61 0.00
 0 4 2 46.57 0.00
 2 4 4 0.95 0.00
 4 4 6 -1.97 0.00
 6 4 8 -2.72 0.00
 8 4 10 4.20 0.00
 7 5 5 -3.37 0.00
 5 5 3 -1.95 0.00
 3 5 1 -3.68 0.00
 -1 5 1 47.45 0.00
 1 5 3 -13.08 0.00
 3 5 5 -0.16 0.00
 5 5 7 1.90 0.00
 7 5 9 -1.90 0.00
 8 6 6 2.89 0.00
 6 6 4 3.62 0.00
 4 6 2 -2.43 0.00
 2 6 0 -0.56 0.00
 0 6 2 -7.64 0.00
 2 6 4 2.76 0.00
 4 6 6 -3.56 0.00
 6 6 8 -1.89 0.00
 8 6 10 0.03 0.00
 7 7 5 -1.51 0.00
 5 7 3 -0.88 0.00
 3 7 1 5.38 0.00
 -1 7 1 -5.71 0.00
 1 7 3 -7.22 0.00
 3 7 5 -0.29 0.00
 5 7 7 -4.16 0.00
 7 7 9 -1.01 0.00
 8 8 6 2.12 0.00
 6 8 4 -2.96 0.00
 4 8 2 0.34 0.00
 2 8 0 7.90 0.00
 0 8 2 -22.92 0.00
 2 8 4 10.48 0.00
 4 8 6 0.45 0.00
 6 8 8 -4.67 0.00
 8 8 10 0.43 0.00
 7 9 5 0.39 0.00
 5 9 3 1.27 0.00
 3 9 1 2.28 0.00
 -1 9 1 1.88 0.00
 1 9 3 -18.87 0.00
 3 9 5 0.98 0.00
 5 9 7 0.59 0.00
 7 9 9 -0.91 0.00
 8 10 6 5.96 0.00
 6 10 4 0.92 0.00
 4 10 2 2.78 0.00
 2 10 0 5.12 0.00
 0 10 2 -9.28 0.00
 2 10 4 4.67 0.00
 4 10 6 2.10 0.00
 6 10 8 1.42 0.00
 8 10 10 1.89 0.00
 7 11 5 6.33 0.00
 5 11 3 1.17 0.00
 3 11 1 3.61 0.00
 -1 11 1 -1.20 0.00
 1 11 3 -2.91 0.00
 3 11 5 0.08 0.00
 5 11 7 -2.33 0.00
 7 11 9 4.64 0.00
 8 12 6 -1.97 0.00
 6 12 4 -1.32 0.00
 4 12 2 3.53 0.00
 2 12 0 1.17 0.00
 0 12 2 7.61 0.00
 2 12 4 -4.58 0.00
 4 12 6 2.93 0.00
 6 12 8 -2.11 0.00
 7 13 5 -4.39 0.00
 5 13 3 0.40 0.00
 3 13 1 1.98 0.00
 -1 13 1 -5.11 0.00
 1 13 3 6.88 0.00
 3 13 5 2.82 0.00
 5 13 7 0.19 0.00
 7 13 9 0.68 0.00
 8 14 6 2.98 0.00
 6 14 4 4.27 0.00
 4 14 2 -1.89 0.00
 2 14 0 1.28 0.00
 0 14 2 -0.75 0.00
 2 14 4 -2.60 0.00
 4 14 6 -2.13 0.00
 6 14 8 4.68 0.00
 7 15 5 -2.84 0.00
 5 15 3 0.23 0.00
 3 15 1 -0.73 0.00
 -1 15 1 -7.48 0.00
 1 15 3 9.70 0.00
 3 15 5 -1.47 0.00
 5 15 7 3.96 0.00
 7 15 9 0.36 0.00
 6 16 4 -2.99 0.00
 4 16 2 1.09 0.00
 2 16 0 5.49 0.00
 0 16 2 -4.60 0.00
 2 16 4 0.10 0.00
 4 16 6 3.59 0.00
 6 16 8 -3.41 0.00
 7 17 5 4.89 0.00
 5 17 3 2.60 0.00
 3 17 1 -2.06 0.00
 -1 17 1 0.21 0.00
 1 17 3 -1.29 0.00
 3 17 5 0.96 0.00
 5 17 7 2.60 0.00
 7 17 9 3.65 0.00
 6 18 4 3.88 0.00
 4 18 2 0.62 0.00
 2 18 0 0.69 0.00
 0 18 2 1.61 0.00
 2 18 4 3.65 0.00
 4 18 6 0.75 0.00
 6 18 8 2.13 0.00
 7 19 5 -1.53 0.00
 5 19 3 1.81 0.00
 3 19 1 -3.08 0.00
 -1 19 1 -2.91 0.00
 1 19 3 0.56 0.00
 3 19 5 0.39 0.00
 5 19 7 7.04 0.00
 6 20 4 -0.41 0.00
 4 20 2 -4.89 0.00
 2 20 0 -0.61 0.00
 0 20 2 1.79 0.00
 2 20 4 0.98 0.00
 4 20 6 -1.67 0.00
 6 20 8 -7.17 0.00
 5 21 3 9.28 0.00
 3 21 1 -2.01 0.00
 -1 21 1 -4.80 0.00
 1 21 3 -0.57 0.00
 3 21 5 0.33 0.00
 5 21 7 2.99 0.00
 6 22 4 4.68 0.00
 4 22 2 -2.71 0.00
 2 22 0 -4.93 0.00
 0 22 2 4.02 0.00
 2 22 4 -2.20 0.00
 4 22 6 -0.55 0.00
 6 22 8 -2.06 0.00
 5 23 3 -3.46 0.00
 3 23 1 3.32 0.00
 -1 23 1 -0.41 0.00
 1 23 3 -1.64 0.00
 3 23 5 6.39 0.00
 5 23 7 -8.98 0.00
 6 24 4 1.05 0.00
 4 24 2 1.89 0.00
 2 24 0 1.61 0.00
 0 24 2 3.08 0.00
 2 24 4 1.46 0.00
 4 24 6 -1.82 0.00
 5 25 3 6.11 0.00
 3 25 1 -3.14 0.00
 -1 25 1 -4.93 0.00
 1 25 3 5.20 0.00
 3 25 5 -0.39 0.00
 5 25 7 4.61 0.00
 4 26 2 11.15 0.00
 2 26 0 -1.77 0.00
 0 26 2 2.86 0.00
 2 26 4 -3.48 0.00
 4 26 6 3.12 0.00
 5 27 3 -2.70 0.00
 3 27 1 5.58 0.00
 -1 27 1 0.83 0.00
 1 27 3 3.12 0.00
 3 27 5 1.91 0.00
 5 27 7 -2.05 0.00
 4 28 2 5.21 0.00
 2 28 0 -0.34 0.00
 0 28 2 -4.05 0.00
 2 28 4 -3.96 0.00
 4 28 6 3.02 0.00
 3 29 1 4.68 0.00
 -1 29 1 3.27 0.00
 1 29 3 -0.14 0.00
 3 29 5 -1.82 0.00
 4 30 2 -0.92 0.00
 2 30 0 -0.29 0.00
 0 30 2 -0.76 0.00
 2 30 4 -5.16 0.00
 3 31 1 -1.50 0.00
 -1 31 1 -3.40 0.00
 1 31 3 1.72 0.00
 3 31 5 -6.08 0.00
 2 32 0 -2.17 0.00
 0 32 2 -1.57 0.00
 2 32 4 2.44 0.00
 -1 33 1 0.51 0.00
 1 33 3 -7.02 0.00
 7 1 4 3.29 0.00
 5 1 2 1.53 0.00
 3 1 0 -4.30 0.00
 -1 1 2 70.71 0.00
 1 1 4 -69.49 0.00
 3 1 6 4.94 0.00
 5 1 8 -1.56 0.00
 7 1 10 -0.51 0.00
 8 2 5 1.86 0.00
 6 2 3 -0.15 0.00
 4 2 1 1.07 0.00
 -2 2 1 4.88 0.00
 0 2 3 -216.09 0.00
 2 2 5 4.96 0.00
 4 2 7 -2.81 0.00
 6 2 9 -1.49 0.00
 8 2 11 -7.47 0.00
 7 3 4 2.38 0.00
 5 3 2 1.31 0.00
 3 3 0 -1.69 0.00
 -1 3 2 51.15 0.00
 1 3 4 -50.34 0.00
 3 3 6 5.87 0.00
 5 3 8 -2.61 0.00
 7 3 10 -1.61 0.00
 8 4 5 -2.00 0.00
 6 4 3 2.54 0.00
 4 4 1 3.87 0.00
 -2 4 1 6.08 0.00
 0 4 3 -62.41 0.00
 2 4 5 6.32 0.00
 4 4 7 -2.50 0.00
 6 4 9 1.60 0.00
 8 4 11 2.05 0.00
 7 5 4 -1.86 0.00
 5 5 2 1.27 0.00
 3 5 0 1.86 0.00
 -1 5 2 -2.28 0.00
 1 5 4 -19.89 0.00
 3 5 6 3.84 0.00
 5 5 8 3.67 0.00
 7 5 10 1.17 0.00
 8 6 5 0.18 0.00
 6 6 3 -2.94 0.00
 4 6 1 1.14 0.00
 -2 6 1 1.05 0.00
 0 6 3 -62.47 0.00
 2 6 5 2.73 0.00
 4 6 7 0.87 0.00
 6 6 9 1.84 0.00
 8 6 11 4.47 0.00
 7 7 4 -3.37 0.00
 5 7 2 -1.38 0.00
 3 7 0 5.40 0.00
 -1 7 2 0.32 0.00
 1 7 4 2.91 0.00
 3 7 6 -5.12 0.00
 5 7 8 3.69 0.00
 7 7 10 1.62 0.00
 8 8 5 2.32 0.00
 6 8 3 -2.00 0.00
 4 8 1 -0.98 0.00
 -2 8 1 2.99 0.00
 0 8 3 -11.21 0.00
 2 8 5 7.02 0.00
 4 8 7 1.03 0.00
 6 8 9 0.59 0.00
 8 8 11 -1.61 0.00
 7 9 4 3.71 0.00
 5 9 2 2.13 0.00
 3 9 0 4.00 0.00
 -1 9 2 -19.38 0.00
 1 9 4 11.51 0.00
 3 9 6 1.50 0.00
 5 9 8 2.42 0.00
 7 9 10 -1.78 0.00
 8 10 5 -1.63 0.00
 6 10 3 -1.74 0.00
 4 10 1 -1.85 0.00
 -2 10 1 3.07 0.00
 0 10 3 -6.18 0.00
 2 10 5 7.53 0.00
 4 10 7 -0.04 0.00
 6 10 9 -2.71 0.00
 8 10 11 -0.35 0.00
 7 11 4 -1.46 0.00
 5 11 2 2.27 0.00
 3 11 0 2.20 0.00
 -1 11 2 2.17 0.00
 1 11 4 -0.28 0.00
 3 11 6 -0.84 0.00
 5 11 8 1.74 0.00
 7 11 10 0.36 0.00
 8 12 5 -4.75 0.00
 6 12 3 -0.18 0.00
 4 12 1 2.31 0.00
 -2 12 1 -5.86 0.00
 0 12 3 7.20 0.00
 2 12 5 -2.21 0.00
 4 12 7 0.63 0.00
 6 12 9 -6.13 0.00
 7 13 4 -1.58 0.00
 5 13 2 0.42 0.00
 3 13 0 -3.34 0.00
 -1 13 2 -0.85 0.00
 1 13 4 -0.91 0.00
 3 13 6 -2.37 0.00
 5 13 8 -2.50 0.00
 7 13 10 3.22 0.00
 8 14 5 -4.36 0.00
 6 14 3 1.60 0.00
 4 14 1 -4.28 0.00
 -2 14 1 -4.97 0.00
 0 14 3 10.37 0.00
 2 14 5 0.00 0.00
 4 14 7 0.35 0.00
 6 14 9 -8.11 0.00
 7 15 4 0.55 0.00
 5 15 2 2.03 0.00
 3 15 0 -2.63 0.00
 -1 15 2 -2.49 0.00
 1 15 4 1.70 0.00
 3 15 6 1.34 0.00
 5 15 8 2.16 0.00
 7 15 10 -0.15 0.00
 6 16 3 -3.66 0.00
 4 16 1 1.02 0.00
 -2 16 1 1.69 0.00
 0 16 3 4.11 0.00
 2 16 5 -3.15 0.00
 4 16 7 -2.38 0.00
 6 16 9 -2.93 0.00
 7 17 4 -4.24 0.00
 5 17 2 -0.26 0.00
 3 17 0 -0.67 0.00
 -1 17 2 0.77 0.00
 1 17 4 -0.75 0.00
 3 17 6 0.91 0.00
 5 17 8 -1.01 0.00
 7 17 10 0.83 0.00
 6 18 3 -0.33 0.00
 4 18 1 -4.42 0.00
 -2 18 1 1.13 0.00
 0 18 3 0.54 0.00
 2 18 5 -1.49 0.00
 4 18 7 -0.01 0.00
 6 18 9 -5.96 0.00
 7 19 4 6.39 0.00
 5 19 2 3.63 0.00
 3 19 0 3.19 0.00
 -1 19 2 5.87 0.00
 1 19 4 -5.02 0.00
 3 19 6 1.20 0.00
 5 19 8 3.80 0.00
 6 20 3 0.44 0.00
 4 20 1 -2.71 0.00
 -2 20 1 -0.84 0.00
 0 20 3 1.14 0.00
 2 20 5 -2.26 0.00
 4 20 7 1.08 0.00
 6 20 9 2.74 0.00
 5 21 2 6.42 0.00
 3 21 0 1.84 0.00
 -1 21 2 6.07 0.00
 1 21 4 -5.13 0.00
 3 21 6 0.04 0.00
 5 21 8 5.46 0.00
 6 22 3 5.08 0.00
 4 22 1 4.48 0.00
 -2 22 1 -3.82 0.00
 0 22 3 -0.18 0.00
 2 22 5 -1.77 0.00
 4 22 7 1.73 0.00
 6 22 9 -11.81 0.00
 5 23 2 7.56 0.00
 3 23 0 -1.59 0.00
 -1 23 2 3.23 0.00
 1 23 4 -2.74 0.00
 3 23 6 -0.94 0.00
 5 23 8 -2.05 0.00
 6 24 3 -0.51 0.00
 4 24 1 5.38 0.00
 -2 24 1 0.89 0.00
 0 24 3 -1.06 0.00
 2 24 5 -0.42 0.00
 4 24 7 0.67 0.00
 5 25 2 7.03 0.00
 3 25 0 -5.52 0.00
 -1 25 2 3.90 0.00
 1 25 4 -0.89 0.00
 3 25 6 3.86 0.00
 5 25 8 -4.34 0.00
 4 26 1 2.33 0.00
 -2 26 1 1.13 0.00
 0 26 3 -2.53 0.00
 2 26 5 2.46 0.00
 4 26 7 -2.38 0.00
 5 27 2 -0.58 0.00
 3 27 0 1.97 0.00
 -1 27 2 -4.97 0.00
 1 27 4 2.44 0.00
 3 27 6 -3.92 0.00
 4 28 1 -6.53 0.00
 -2 28 1 -1.54 0.00
 0 28 3 -1.49 0.00
 2 28 5 -2.96 0.00
 4 28 7 4.37 0.00
 3 29 0 -6.90 0.00
 -1 29 2 2.15 0.00
 1 29 4 -6.81 0.00
 3 29 6 7.48 0.00
 4 30 1 -1.59 0.00
 -2 30 1 0.73 0.00
 0 30 3 -7.77 0.00
 2 30 5 0.29 0.00
 3 31 0 0.22 0.00
 -1 31 2 0.91 0.00
 1 31 4 0.51 0.00
 3 31 6 -2.36 0.00
 -2 32 1 0.14 0.00
 0 32 3 4.95 0.00
 2 32 5 -5.46 0.00
 -1 33 2 -2.93 0.00
 1 33 4 -0.21 0.00
 8 0 4 4.00 0.00
 6 0 2 -0.27 0.00
 4 0 0 -3.11 0.00
 -2 0 2 -16.24 0.00
 0 0 4 211.74 0.00
 2 0 6 2.16 0.00
 4 0 8 -0.30 0.00
 6 0 10 -0.20 0.00
 8 0 12 2.09 0.00
 7 1 3 2.00 0.00
 5 1 1 0.70 0.00
 -3 1 1 -2.26 0.00
 -1 1 3 -4.74 0.00
 1 1 5 16.71 0.00
 3 1 7 4.46 0.00
 5 1 9 -1.26 0.00
 7 1 11 1.78 0.00
 8 2 4 -2.14 0.00
 6 2 2 -1.97 0.00
 4 2 0 -0.26 0.00
 -2 2 2 -2.29 0.00
 0 2 4 -45.00 0.00
 2 2 6 8.30 0.00
 4 2 8 1.08 0.00
 6 2 10 -1.83 0.00
 8 2 12 -2.83 0.00
 7 3 3 -1.77 0.00
 5 3 1 2.71 0.00
 -3 3 1 2.85 0.00
 -1 3 3 37.62 0.00
 1 3 5 28.43 0.00
 3 3 7 6.58 0.00
 5 3 9 7.96 0.00
 7 3 11 1.90 0.00
 8 4 4 -0.31 0.00
 6 4 2 0.93 0.00
 4 4 0 -2.42 0.00
 -2 4 2 11.88 0.00
 0 4 4 19.60 0.00
 2 4 6 11.98 0.00
 4 4 8 -4.73 0.00
 6 4 10 0.60 0.00
 8 4 12 -6.52 0.00
 7 5 3 0.80 0.00
 5 5 1 1.55 0.00
 -3 5 1 0.48 0.00
 -1 5 3 13.18 0.00
 1 5 5 2.31 0.00
 3 5 7 7.98 0.00
 5 5 9 -0.77 0.00
 7 5 11 2.38 0.00
 8 6 4 -0.84 0.00
 6 6 2 0.66 0.00
 4 6 0 -1.66 0.00
 -2 6 2 21.43 0.00
 0 6 4 15.14 0.00
 2 6 6 12.40 0.00
 4 6 8 -0.62 0.00
 6 6 10 0.31 0.00
 8 6 12 5.43 0.00
 7 7 3 -0.73 0.00
 5 7 1 2.13 0.00
 -3 7 1 1.16 0.00
 -1 7 3 2.99 0.00
 1 7 5 -5.90 0.00
 3 7 7 -3.30 0.00
 5 7 9 4.18 0.00
 7 7 11 2.31 0.00
 8 8 4 5.01 0.00
 6 8 2 3.03 0.00
 4 8 0 1.93 0.00
 -2 8 2 5.77 0.00
 0 8 4 13.13 0.00
 2 8 6 3.19 0.00
 4 8 8 -0.58 0.00
 6 8 10 -0.65 0.00
 8 8 12 1.42 0.00
 7 9 3 3.69 0.00
 5 9 1 0.31 0.00
 -3 9 1 -4.86 0.00
 -1 9 3 -16.21 0.00
 1 9 5 8.89 0.00
 3 9 7 -5.01 0.00
 5 9 9 -5.27 0.00
 7 9 11 5.00 0.00
 8 10 4 1.85 0.00
 6 10 2 -3.03 0.00
 4 10 0 4.20 0.00
 -2 10 2 7.89 0.00
 0 10 4 -0.17 0.00
 2 10 6 0.35 0.00
 4 10 8 0.59 0.00
 6 10 10 -3.22 0.00
 7 11 3 1.44 0.00
 5 11 1 -3.61 0.00
 -3 11 1 1.12 0.00
 -1 11 3 -13.64 0.00
 1 11 5 11.14 0.00
 3 11 7 3.64 0.00
 5 11 9 -2.15 0.00
 7 11 11 -0.94 0.00
 8 12 4 3.85 0.00
 6 12 2 1.06 0.00
 4 12 0 0.85 0.00
 -2 12 2 2.98 0.00
 0 12 4 -12.88 0.00
 2 12 6 0.03 0.00
 4 12 8 -1.56 0.00
 6 12 10 4.13 0.00
 7 13 3 7.80 0.00
 5 13 1 -2.38 0.00
 -3 13 1 -1.80 0.00
 -1 13 3 -0.38 0.00
 1 13 5 4.17 0.00
 3 13 7 1.04 0.00
 5 13 9 -1.45 0.00
 7 13 11 5.59 0.00
 8 14 4 0.13 0.00
 6 14 2 -1.21 0.00
 4 14 0 2.53 0.00
 -2 14 2 2.99 0.00
 0 14 4 4.14 0.00
 2 14 6 -3.61 0.00
 4 14 8 4.75 0.00
 6 14 10 -3.05 0.00
 7 15 3 -2.20 0.00
 5 15 1 0.21 0.00
 -3 15 1 0.14 0.00
 -1 15 3 7.18 0.00
 1 15 5 -5.85 0.00
 3 15 7 2.87 0.00
 5 15 9 -0.89 0.00
 7 15 11 6.08 0.00
 6 16 2 4.70 0.00
 4 16 0 -0.39 0.00
 -2 16 2 2.86 0.00
 0 16 4 5.28 0.00
 2 16 6 -0.93 0.00
 4 16 8 -0.70 0.00
 6 16 10 2.10 0.00
 7 17 3 -2.87 0.00
 5 17 1 -3.51 0.00
 -3 17 1 1.81 0.00
 -1 17 3 -3.52 0.00
 1 17 5 0.65 0.00
 3 17 7 3.50 0.00
 5 17 9 4.55 0.00
 7 17 11 -0.98 0.00
 6 18 2 0.24 0.00
 4 18 0 -3.07 0.00
 -2 18 2 3.79 0.00
 0 18 4 -2.19 0.00
 2 18 6 -2.90 0.00
 4 18 8 0.84 0.00
 6 18 10 -5.35 0.00
 7 19 3 7.54 0.00
 5 19 1 1.52 0.00
 -3 19 1 2.28 0.00
 -1 19 3 -3.27 0.00
 1 19 5 -1.15 0.00
 3 19 7 4.33 0.00
 5 19 9 1.47 0.00
 6 20 2 3.46 0.00
 4 20 0 -0.59 0.00
 -2 20 2 -1.96 0.00
 0 20 4 -1.52 0.00
 2 20 6 2.70 0.00
 4 20 8 2.96 0.00
 6 20 10 -2.77 0.00
 5 21 1 -5.87 0.00
 -3 21 1 0.97 0.00
 -1 21 3 -2.70 0.00
 1 21 5 0.88 0.00
 3 21 7 3.45 0.00
 5 21 9 1.96 0.00
 6 22 2 0.05 0.00
 4 22 0 -0.38 0.00
 -2 22 2 0.49 0.00
 0 22 4 -0.74 0.00
 2 22 6 0.56 0.00
 4 22 8 3.82 0.00
 6 22 10 -1.47 0.00
 5 23 1 6.27 0.00
 -3 23 1 2.58 0.00
 -1 23 3 -6.92 0.00
 1 23 5 -0.03 0.00
 3 23 7 -1.57 0.00
 5 23 9 1.39 0.00
 6 24 2 1.12 0.00
 4 24 0 0.82 0.00
 -2 24 2 -0.40 0.00
 0 24 4 1.66 0.00
 2 24 6 -3.05 0.00
 4 24 8 1.40 0.00
 5 25 1 -2.92 0.00
 -3 25 1 -3.70 0.00
 -1 25 3 3.95 0.00
 1 25 5 -3.86 0.00
 3 25 7 4.12 0.00
 5 25 9 -7.93 0.00
 4 26 0 -3.85 0.00
 -2 26 2 3.87 0.00
 0 26 4 0.24 0.00
 2 26 6 -1.50 0.00
 4 26 8 -7.08 0.00
 5 27 1 1.08 0.00
 -3 27 1 0.77 0.00
 -1 27 3 2.82 0.00
 1 27 5 2.27 0.00
 3 27 7 -3.66 0.00
 4 28 0 -0.09 0.00
 -2 28 2 4.81 0.00
 0 28 4 2.39 0.00
 2 28 6 0.57 0.00
 4 28 8 -4.19 0.00
 -3 29 1 -1.71 0.00
 -1 29 3 -1.52 0.00
 1 29 5 2.56 0.00
 3 29 7 -3.87 0.00
 4 30 0 1.22 0.00
 -2 30 2 2.94 0.00
 0 30 4 -4.58 0.00
 2 30 6 3.92 0.00
 -3 31 1 -4.65 0.00
 -1 31 3 0.43 0.00
 1 31 5 -6.85 0.00
 3 31 7 0.72 0.00
 -2 32 2 2.00 0.00
 0 32 4 -4.60 0.00
 2 32 6 0.03 0.00
 -1 33 3 -4.34 0.00
 1 33 5 4.07 0.00
 7 1 2 -1.53 0.00
 5 1 0 0.69 0.00
 -3 1 2 0.69 0.00
 -1 1 4 105.09 0.00
 1 1 6 -49.33 0.00
 3 1 8 3.66 0.00
 5 1 10 -1.55 0.00
 7 1 12 0.79 0.00
 8 2 3 -2.71 0.00
 6 2 1 2.33 0.00
 -4 2 1 -3.02 0.00
 -2 2 3 14.63 0.00
 0 2 5 13.83 0.00
 2 2 7 0.25 0.00
 4 2 9 0.09 0.00
 6 2 11 2.32 0.00
 8 2 13 5.42 0.00
 7 3 2 -1.60 0.00
 5 3 0 2.60 0.00
 -3 3 2 -1.79 0.00
 -1 3 4 5.42 0.00
 1 3 6 -22.60 0.00
 3 3 8 -0.72 0.00
 5 3 10 0.92 0.00
 7 3 12 -0.28 0.00
 8 4 3 0.05 0.00
 6 4 1 -0.51 0.00
 -4 4 1 -1.43 0.00
 -2 4 3 1.64 0.00
 0 4 5 -105.92 0.00
 2 4 7 1.66 0.00
 4 4 9 -0.94 0.00
 6 4 11 -0.62 0.00
 8 4 13 0.42 0.00
 7 5 2 0.96 0.00
 5 5 0 -1.95 0.00
 -3 5 2 -2.91 0.00
 -1 5 4 -12.45 0.00
 1 5 6 -17.46 0.00
 3 5 8 -5.04 0.00
 5 5 10 -0.54 0.00
 7 5 12 -1.18 0.00
 8 6 3 2.26 0.00
 6 6 1 4.68 0.00
 -4 6 1 -0.68 0.00
 -2 6 3 -1.24 0.00
 0 6 5 -36.01 0.00
 2 6 7 7.24 0.00
 4 6 9 -0.87 0.00
 6 6 11 1.36 0.00
 8 6 13 -2.81 0.00
 7 7 2 2.99 0.00
 5 7 0 1.85 0.00
 -3 7 2 0.30 0.00
 -1 7 4 -26.40 0.00
 1 7 6 -16.55 0.00
 3 7 8 5.25 0.00
 5 7 10 2.58 0.00
 7 7 12 1.42 0.00
 8 8 3 2.00 0.00
 6 8 1 0.53 0.00
 -4 8 1 1.52 0.00
 -2 8 3 -0.31 0.00
 0 8 5 -14.48 0.00
 2 8 7 1.07 0.00
 4 8 9 3.13 0.00
 6 8 11 1.26 0.00
 7 9 2 -3.02 0.00
 5 9 0 -1.93 0.00
 -3 9 2 0.98 0.00
 -1 9 4 3.90 0.00
 1 9 6 -3.42 0.00
 3 9 8 -1.18 0.00
 5 9 10 0.39 0.00
 7 9 12 3.81 0.00
 8 10 3 3.80 0.00
 6 10 1 0.88 0.00
 -4 10 1 -1.88 0.00
 -2 10 3 -4.98 0.00
 0 10 5 8.00 0.00
 2 10 7 -6.18 0.00
 4 10 9 -0.93 0.00
 6 10 11 -4.23 0.00
 7 11 2 5.74 0.00
 5 11 0 1.90 0.00
 -3 11 2 -0.50 0.00
 -1 11 4 -11.85 0.00
 1 11 6 13.95 0.00
 3 11 8 -0.57 0.00
 5 11 10 -2.07 0.00
 7 11 12 2.28 0.00
 8 12 3 1.42 0.00
 6 12 1 -1.52 0.00
 -4 12 1 1.96 0.00
 -2 12 3 -4.97 0.00
 0 12 5 1.63 0.00
 2 12 7 0.73 0.00
 4 12 9 -5.12 0.00
 6 12 11 -0.81 0.00
 7 13 2 1.28 0.00
 5 13 0 2.04 0.00
 -3 13 2 -1.51 0.00
 -1 13 4 -4.41 0.00
 1 13 6 7.45 0.00
 3 13 8 -1.85 0.00
 5 13 10 1.76 0.00
 7 13 12 -2.60 0.00
 8 14 3 -2.97 0.00
 6 14 1 -2.43 0.00
 -4 14 1 -3.72 0.00
 -2 14 3 -0.39 0.00
 0 14 5 -4.11 0.00
 2 14 7 -0.29 0.00
 4 14 9 -2.57 0.00
 6 14 11 3.18 0.00
 7 15 2 -4.33 0.00
 5 15 0 -0.69 0.00
 -3 15 2 -2.61 0.00
 -1 15 4 3.05 0.00
 1 15 6 -2.06 0.00
 3 15 8 -1.09 0.00
 5 15 10 -1.48 0.00
 7 15 12 -1.90 0.00
 6 16 1 -0.48 0.00
 -4 16 1 6.23 0.00
 -2 16 3 -1.18 0.00
 0 16 5 2.51 0.00
 2 16 7 3.48 0.00
 4 16 9 0.21 0.00
 6 16 11 -1.41 0.00
 7 17 2 3.30 0.00
 5 17 0 0.14 0.00
 -3 17 2 1.35 0.00
 -1 17 4 2.26 0.00
 1 17 6 -3.97 0.00
 3 17 8 2.53 0.00
 5 17 10 2.31 0.00
 7 17 12 -2.74 0.00
 6 18 1 -4.49 0.00
 -4 18 1 -1.34 0.00
 -2 18 3 0.33 0.00
 0 18 5 6.41 0.00
 2 18 7 -1.73 0.00
 4 18 9 -2.53 0.00
 6 18 11 -0.84 0.00
 7 19 2 3.71 0.00
 5 19 0 1.52 0.00
 -3 19 2 1.60 0.00
 -1 19 4 1.70 0.00
 1 19 6 -3.23 0.00
 3 19 8 1.35 0.00
 5 19 10 -10.28 0.00
 6 20 1 0.11 0.00
 -4 20 1 -0.39 0.00
 -2 20 3 -1.41 0.00
 0 20 5 0.63 0.00
 2 20 7 -5.25 0.00
 4 20 9 0.17 0.00
 6 20 11 -6.89 0.00
 7 21 2 5.39 0.00
 5 21 0 3.61 0.00
 -3 21 2 6.25 0.00
 -1 21 4 2.49 0.00
 1 21 6 -0.78 0.00
 3 21 8 2.35 0.00
 5 21 10 -8.68 0.00
 6 22 1 1.59 0.00
 -4 22 1 3.99 0.00
 -2 22 3 0.90 0.00
 0 22 5 -1.27 0.00
 2 22 7 -3.71 0.00
 4 22 9 -0.62 0.00
 6 22 11 9.07 0.00
 5 23 0 9.21 0.00
 -3 23 2 2.57 0.00
 -1 23 4 2.33 0.00
 1 23 6 2.62 0.00
 3 23 8 3.38 0.00
 5 23 10 -2.37 0.00
 6 24 1 -1.23 0.00
 -4 24 1 3.26 0.00
 -2 24 3 -2.92 0.00
 0 24 5 -2.25 0.00
 2 24 7 -0.97 0.00
 4 24 9 1.32 0.00
 5 25 0 -0.41 0.00
 -3 25 2 0.56 0.00
 -1 25 4 -0.32 0.00
 1 25 6 2.12 0.00
 3 25 8 -5.68 0.00
 5 25 10 3.95 0.00
 -4 26 1 0.00 0.00
 -2 26 3 0.87 0.00
 0 26 5 -0.44 0.00
 2 26 7 -6.53 0.00
 4 26 9 3.59 0.00
 5 27 0 3.70 0.00
 -3 27 2 -5.27 0.00
 -1 27 4 7.09 0.00
 1 27 6 -7.39 0.00
 3 27 8 0.07 0.00
 -4 28 1 -8.30 0.00
 -2 28 3 -0.38 0.00
 0 28 5 -3.51 0.00
 2 28 7 -2.20 0.00
 4 28 9 -4.97 0.00
 -3 29 2 2.36 0.00
 -1 29 4 -0.71 0.00
 1 29 6 -1.40 0.00
 3 29 8 -8.15 0.00
 -4 30 1 -6.80 0.00
 -2 30 3 1.47 0.00
 0 30 5 3.09 0.00
 2 30 7 3.30 0.00
 -3 31 2 -0.27 0.00
 -1 31 4 -1.30 0.00
 1 31 6 -6.25 0.00
 -2 32 3 3.61 0.00
 0 32 5 -8.51 0.00
 2 32 7 7.76 0.00
 -1 33 4 1.69 0.00
 1 33 6 -0.76 0.00
 8 0 2 -5.75 0.00
 6 0 0 -0.79 0.00
 -4 0 2 2.54 0.00
 -2 0 4 2.73 0.00
 0 0 6 -174.44 0.00
 2 0 8 10.96 0.00
 4 0 10 -0.27 0.00
 6 0 12 -2.01 0.00
 8 0 14 -4.00 0.00
 7 1 1 -1.12 0.00
 -5 1 1 -3.33 0.00
 -3 1 3 0.90 0.00
 -1 1 5 24.61 0.00
 1 1 7 1.69 0.00
 3 1 9 1.00 0.00
 5 1 11 4.35 0.00
 7 1 13 -0.39 0.00
 8 2 2 -0.67 0.00
 6 2 0 0.17 0.00
 -4 2 2 -3.13 0.00
 -2 2 4 8.13 0.00
 0 2 6 14.77 0.00
 2 2 8 6.53 0.00
 4 2 10 -2.51 0.00
 6 2 12 2.50 0.00
 8 2 14 -1.32 0.00
 7 3 1 5.45 0.00
 -5 3 1 -2.59 0.00
 -3 3 3 0.23 0.00
 -1 3 5 -11.27 0.00
 1 3 7 10.82 0.00
 3 3 9 4.70 0.00
 5 3 11 -3.66 0.00
 7 3 13 1.56 0.00
 8 4 2 -1.61 0.00
 6 4 0 -1.49 0.00
 -4 4 2 -1.75 0.00
 -2 4 4 16.09 0.00
 0 4 6 10.68 0.00
 2 4 8 8.19 0.00
 4 4 10 4.13 0.00
 6 4 12 4.31 0.00
 8 4 14 8.02 0.00
 7 5 1 3.85 0.00
 -5 5 1 -5.28 0.00
 -3 5 3 -1.52 0.00
 -1 5 5 -1.92 0.00
 1 5 7 22.88 0.00
 3 5 9 -5.82 0.00
 5 5 11 5.26 0.00
 7 5 13 -0.63 0.00
 8 6 2 -0.68 0.00
 6 6 0 0.54 0.00
 -4 6 2 -1.03 0.00
 -2 6 4 6.89 0.00
 0 6 6 21.76 0.00
 2 6 8 4.74 0.00
 4 6 10 -2.52 0.00
 6 6 12 0.59 0.00
 8 6 14 -2.62 0.00
 7 7 1 2.14 0.00
 -5 7 1 0.72 0.00
 -3 7 3 -0.57 0.00
 -1 7 5 -4.70 0.00
 1 7 7 15.84 0.00
 3 7 9 -1.68 0.00
 5 7 11 -1.82 0.00
 7 7 13 2.92 0.00
 8 8 2 1.81 0.00
 6 8 0 -0.56 0.00
 -4 8 2 0.18 0.00
 -2 8 4 10.15 0.00
 0 8 6 15.18 0.00
 2 8 8 4.98 0.00
 4 8 10 -0.05 0.00
 6 8 12 -0.57 0.00
 7 9 1 -0.45 0.00
 -5 9 1 2.57 0.00
 -3 9 3 1.78 0.00
 -1 9 5 5.05 0.00
 1 9 7 3.87 0.00
 3 9 9 0.65 0.00
 5 9 11 3.24 0.00
 7 9 13 1.24 0.00
 8 10 2 9.02 0.00
 6 10 0 -0.49 0.00
 -4 10 2 -0.68 0.00
 -2 10 4 -1.67 0.00
 0 10 6 5.10 0.00
 2 10 8 -3.50 0.00
 4 10 10 0.97 0.00
 6 10 12 1.03 0.00
 7 11 1 10.30 0.00
 -5 11 1 1.27 0.00
 -3 11 3 -4.65 0.00
 -1 11 5 5.51 0.00
 1 11 7 3.29 0.00
 3 11 9 0.16 0.00
 5 11 11 -2.58 0.00
 7 11 13 9.67 0.00
 8 12 2 3.48 0.00
 6 12 0 -2.09 0.00
 -4 12 2 2.50 0.00
 -2 12 4 -0.58 0.00
 0 12 6 18.22 0.00
 2 12 8 -5.70 0.00
 4 12 10 1.26 0.00
 6 12 12 -3.33 0.00
 7 13 1 2.01 0.00
 -5 13 1 2.01 0.00
 -3 13 3 -1.21 0.00
 -1 13 5 -1.21 0.00
 1 13 7 2.08 0.00
 3 13 9 3.38 0.00
 5 13 11 -0.81 0.00
 7 13 13 1.67 0.00
 8 14 2 -3.93 0.00
 6 14 0 4.23 0.00
 -4 14 2 0.07 0.00
 -2 14 4 2.84 0.00
 0 14 6 1.08 0.00
 2 14 8 -0.40 0.00
 4 14 10 -5.95 0.00
 6 14 12 5.87 0.00
 7 15 1 3.23 0.00
 -5 15 1 3.12 0.00
 -3 15 3 0.13 0.00
 -1 15 5 -2.93 0.00
 1 15 7 0.78 0.00
 3 15 9 2.67 0.00
 5 15 11 2.87 0.00
 7 15 13 -1.46 0.00
 6 16 0 -1.69 0.00
 -4 16 2 0.65 0.00
 -2 16 4 6.87 0.00
 0 16 6 -3.39 0.00
 2 16 8 -1.65 0.00
 4 16 10 -1.37 0.00
 6 16 12 -0.21 0.00
 7 17 1 -2.87 0.00
 -5 17 1 0.69 0.00
 -3 17 3 6.17 0.00
 -1 17 5 3.65 0.00
 1 17 7 -6.11 0.00
 3 17 9 3.91 0.00
 5 17 11 4.90 0.00
 6 18 0 -1.75 0.00
 -4 18 2 0.87 0.00
 -2 18 4 0.45 0.00
 0 18 6 -1.73 0.00
 2 18 8 3.88 0.00
 4 18 10 -2.81 0.00
 6 18 12 -0.80 0.00
 7 19 1 -5.63 0.00
 -5 19 1 7.90 0.00
 -3 19 3 2.37 0.00
 -1 19 5 -2.99 0.00
 1 19 7 -1.37 0.00
 3 19 9 3.67 0.00
 5 19 11 9.55 0.00
 6 20 0 -0.62 0.00
 -4 20 2 -3.00 0.00
 -2 20 4 -1.13 0.00
 0 20 6 -4.88 0.00
 2 20 8 -1.44 0.00
 4 20 10 2.48 0.00
 6 20 12 -0.55 0.00
 7 21 1 0.31 0.00
 -5 21 1 -1.00 0.00
 -3 21 3 -5.03 0.00
 -1 21 5 -6.48 0.00
 1 21 7 -0.03 0.00
 3 21 9 1.19 0.00
 5 21 11 -0.57 0.00
 6 22 0 2.43 0.00
 -4 22 2 -3.62 0.00
 -2 22 4 2.53 0.00
 0 22 6 -1.95 0.00
 2 22 8 -1.49 0.00
 4 22 10 2.88 0.00
 -5 23 1 5.41 0.00
 -3 23 3 -2.95 0.00
 -1 23 5 -1.32 0.00
 1 23 7 0.20 0.00
 3 23 9 5.76 0.00
 5 23 11 -1.50 0.00
 6 24 0 -0.31 0.00
 -4 24 2 -0.54 0.00
 -2 24 4 5.07 0.00
 0 24 6 0.30 0.00
 2 24 8 -3.76 0.00
 4 24 10 -1.35 0.00
 -5 25 1 -1.45 0.00
 -3 25 3 3.84 0.00
 -1 25 5 -7.39 0.00
 1 25 7 2.84 0.00
 3 25 9 -0.41 0.00
 5 25 11 5.13 0.00
 -4 26 2 5.39 0.00
 -2 26 4 1.03 0.00
 0 26 6 1.04 0.00
 2 26 8 -2.98 0.00
 4 26 10 2.35 0.00
 -5 27 1 0.75 0.00
 -3 27 3 0.41 0.00
 -1 27 5 0.14 0.00
 1 27 7 -3.18 0.00
 3 27 9 4.35 0.00
 -4 28 2 -0.13 0.00
 -2 28 4 0.95 0.00
 0 28 6 -3.32 0.00
 2 28 8 -4.88 0.00
 4 28 10 3.03 0.00
 -3 29 3 0.51 0.00
 -1 29 5 0.96 0.00
 1 29 7 -3.40 0.00
 3 29 9 -1.43 0.00
 -4 30 2 -2.64 0.00
 -2 30 4 1.89 0.00
 0 30 6 2.74 0.00
 2 30 8 -2.80 0.00
 -3 31 3 3.86 0.00
 -1 31 5 -7.32 0.00
 1 31 7 6.73 0.00
 -2 32 4 -1.14 0.00
 0 32 6 1.73 0.00
 2 32 8 4.54 0.00
 -1 33 5 -3.47 0.00
 9 1 2 7.89 0.00
 7 1 0 -4.37 0.00
 -5 1 2 0.65 0.00
 -3 1 4 -2.20 0.00
 -1 1 6 22.37 0.00
 1 1 8 4.50 0.00
 3 1 10 4.37 0.00
 5 1 12 2.42 0.00
 7 1 14 4.21 0.00
 8 2 1 1.83 0.00
 -6 2 1 0.52 0.00
 -4 2 3 -0.14 0.00
 -2 2 5 22.54 0.00
 0 2 7 -57.81 0.00
 2 2 9 5.48 0.00
 4 2 11 -3.56 0.00
 6 2 13 0.97 0.00
 8 2 15 -3.03 0.00
 7 3 0 -1.58 0.00
 -5 3 2 -1.52 0.00
 -3 3 4 4.82 0.00
 -1 3 6 19.85 0.00
 1 3 8 -17.68 0.00
 3 3 10 1.15 0.00
 5 3 12 -0.35 0.00
 7 3 14 0.57 0.00
 8 4 1 3.01 0.00
 -6 4 1 -2.20 0.00
 -4 4 3 -1.08 0.00
 -2 4 5 24.69 0.00
 0 4 7 20.26 0.00
 2 4 9 6.17 0.00
 4 4 11 -2.58 0.00
 6 4 13 4.12 0.00
 7 5 0 0.33 0.00
 -5 5 2 2.64 0.00
 -3 5 4 2.36 0.00
 -1 5 6 -28.11 0.00
 1 5 8 -16.25 0.00
 3 5 10 -0.09 0.00
 5 5 12 0.77 0.00
 7 5 14 2.07 0.00
 8 6 1 2.83 0.00
 -6 6 1 -0.50 0.00
 -4 6 3 0.53 0.00
 -2 6 5 4.78 0.00
 0 6 7 -6.89 0.00
 2 6 9 -3.89 0.00
 4 6 11 3.69 0.00
 6 6 13 -0.31 0.00
 7 7 0 -0.53 0.00
 -5 7 2 -2.41 0.00
 -3 7 4 -3.06 0.00
 -1 7 6 -9.18 0.00
 1 7 8 -0.22 0.00
 3 7 10 -7.48 0.00
 5 7 12 -1.83 0.00
 7 7 14 0.74 0.00
 8 8 1 4.12 0.00
 -6 8 1 -4.12 0.00
 -4 8 3 0.01 0.00
 -2 8 5 -2.72 0.00
 0 8 7 -8.45 0.00
 2 8 9 -4.92 0.00
 4 8 11 -0.05 0.00
 6 8 13 -3.58 0.00
 7 9 0 5.84 0.00
 -5 9 2 5.95 0.00
 -3 9 4 2.61 0.00
 -1 9 6 -16.39 0.00
 1 9 8 8.98 0.00
 3 9 10 4.65 0.00
 5 9 12 0.42 0.00
 7 9 14 -1.37 0.00
 8 10 1 1.81 0.00
 -6 10 1 1.57 0.00
 -4 10 3 1.89 0.00
 -2 10 5 -6.30 0.00
 0 10 7 -15.24 0.00
 2 10 9 1.02 0.00
 4 10 11 0.60 0.00
 6 10 13 1.26 0.00
 7 11 0 -0.49 0.00
 -5 11 2 -0.22 0.00
 -3 11 4 -0.90 0.00
 -1 11 6 5.26 0.00
 1 11 8 -4.26 0.00
 3 11 10 0.08 0.00
 5 11 12 -1.24 0.00
 7 11 14 -1.47 0.00
 8 12 1 -2.32 0.00
 -6 12 1 1.68 0.00
 -4 12 3 -4.09 0.00
 -2 12 5 -6.41 0.00
 0 12 7 0.75 0.00
 2 12 9 -1.27 0.00
 4 12 11 0.77 0.00
 6 12 13 -0.70 0.00
 7 13 0 2.83 0.00
 -5 13 2 0.20 0.00
 -3 13 4 -3.90 0.00
 -1 13 6 6.99 0.00
 1 13 8 -3.99 0.00
 3 13 10 -1.23 0.00
 5 13 12 -2.52 0.00
 7 13 14 3.23 0.00
 8 14 1 -3.52 0.00
 -6 14 1 3.21 0.00
 -4 14 3 4.68 0.00
 -2 14 5 -4.50 0.00
 0 14 7 7.85 0.00
 2 14 9 0.61 0.00
 4 14 11 -1.95 0.00
 6 14 13 2.56 0.00
 7 15 0 0.88 0.00
 -5 15 2 1.12 0.00
 -3 15 4 -2.23 0.00
 -1 15 6 -1.28 0.00
 1 15 8 -0.79 0.00
 3 15 10 -0.03 0.00
 5 15 12 2.65 0.00
 7 15 14 -5.68 0.00
 -6 16 1 6.82 0.00
 -4 16 3 -3.74 0.00
 -2 16 5 0.73 0.00
 0 16 7 3.37 0.00
 2 16 9 -1.87 0.00
 4 16 11 -1.25 0.00
 6 16 13 3.54 0.00
 7 17 0 -3.76 0.00
 -5 17 2 1.87 0.00
 -3 17 4 -1.37 0.00
 -1 17 6 1.05 0.00
 1 17 8 0.03 0.00
 3 17 10 0.61 0.00
 5 17 12 -5.55 0.00
 -6 18 1 -1.58 0.00
 -4 18 3 0.74 0.00
 -2 18 5 -2.25 0.00
 0 18 7 1.10 0.00
 2 18 9 1.00 0.00
 4 18 11 1.91 0.00
 6 18 13 -3.70 0.00
 7 19 0 3.22 0.00
 -5 19 2 -0.78 0.00
 -3 19 4 6.52 0.00
 -1 19 6 3.42 0.00
 1 19 8 -0.51 0.00
 3 19 10 0.02 0.00
 5 19 12 1.11 0.00
 -6 20 1 -1.86 0.00
 -4 20 3 -1.44 0.00
 -2 20 5 -0.55 0.00
 0 20 7 2.16 0.00
 2 20 9 1.13 0.00
 4 20 11 -1.15 0.00
 6 20 13 -0.20 0.00
 7 21 0 5.62 0.00
 -5 21 2 4.24 0.00
 -3 21 4 3.53 0.00
 -1 21 6 0.19 0.00
 1 21 8 -0.81 0.00
 3 21 10 0.26 0.00
 5 21 12 -9.75 0.00
 -6 22 1 1.60 0.00
 -4 22 3 -0.87 0.00
 -2 22 5 -3.85 0.00
 0 22 7 -1.52 0.00
 2 22 9 -3.30 0.00
 4 22 11 -0.32 0.00
 -5 23 2 -1.96 0.00
 -3 23 4 3.17 0.00
 -1 23 6 1.15 0.00
 1 23 8 -1.42 0.00
 3 23 10 0.72 0.00
 5 23 12 -5.77 0.00
 -6 24 1 -1.27 0.00
 -4 24 3 -2.16 0.00
 -2 24 5 3.97 0.00
 0 24 7 0.11 0.00
 2 24 9 -3.14 0.00
 4 24 11 -6.42 0.00
 -5 25 2 5.83 0.00
 -3 25 4 -0.46 0.00
 -1 25 6 4.42 0.00
 1 25 8 -1.63 0.00
 3 25 10 1.20 0.00
 5 25 12 -1.99 0.00
 -4 26 3 -3.09 0.00
 -2 26 5 0.39 0.00
 0 26 7 -1.06 0.00
 2 26 9 3.43 0.00
 4 26 11 -3.55 0.00
 -5 27 2 -0.62 0.00
 -3 27 4 1.59 0.00
 -1 27 6 -4.16 0.00
 1 27 8 3.35 0.00
 3 27 10 -6.94 0.00
 -4 28 3 0.40 0.00
 -2 28 5 0.13 0.00
 0 28 7 2.77 0.00
 2 28 9 -0.30 0.00
 4 28 11 4.33 0.00
 -3 29 4 -2.45 0.00
 -1 29 6 2.61 0.00
 1 29 8 -10.18 0.00
 3 29 10 4.67 0.00
 -4 30 3 0.62 0.00
 -2 30 5 -3.05 0.00
 0 30 7 -6.92 0.00
 2 30 9 -2.69 0.00
 -3 31 4 -0.09 0.00
 -1 31 6 0.89 0.00
 1 31 8 -0.69 0.00
 -2 32 5 -4.46 0.00
 0 32 7 5.50 0.00
 -1 33 6 -3.10 0.00
 8 0 0 -1.20 0.00
 -6 0 2 1.35 0.00
 -4 0 4 -3.43 0.00
 -2 0 6 10.09 0.00
 0 0 8 32.20 0.00
 2 0 10 0.41 0.00
 4 0 12 0.10 0.00
 6 0 14 4.81 0.00
 9 1 1 2.29 0.00
 -7 1 1 -0.53 0.00
 -5 1 3 1.63 0.00
 -3 1 5 -2.17 0.00
 -1 1 7 -33.69 0.00
 1 1 9 6.56 0.00
 3 1 11 0.95 0.00
 5 1 13 -5.10 0.00
 7 1 15 1.57 0.00
 8 2 0 -3.42 0.00
 -6 2 2 -2.20 0.00
 -4 2 4 1.54 0.00
 -2 2 6 3.26 0.00
 0 2 8 -57.49 0.00
 2 2 10 6.29 0.00
 4 2 12 3.31 0.00
 6 2 14 1.64 0.00
 9 3 1 -0.18 0.00
 -7 3 1 3.42 0.00
 -5 3 3 -3.61 0.00
 -3 3 5 -5.99 0.00
 -1 3 7 -12.12 0.00
 1 3 9 7.90 0.00
 3 3 11 -3.17 0.00
 5 3 13 2.33 0.00
 7 3 15 -1.00 0.00
 8 4 0 -2.57 0.00
 -6 4 2 -0.20 0.00
 -4 4 4 -2.11 0.00
 -2 4 6 -2.40 0.00
 0 4 8 -11.59 0.00
 2 4 10 5.31 0.00
 4 4 12 -5.17 0.00
 6 4 14 2.49 0.00
 -7 5 1 0.35 0.00
 -5 5 3 1.35 0.00
 -3 5 5 4.03 0.00
 -1 5 7 -7.57 0.00
 1 5 9 1.33 0.00
 3 5 11 4.89 0.00
 5 5 13 -4.17 0.00
 7 5 15 4.71 0.00
 8 6 0 -2.75 0.00
 -6 6 2 -0.20 0.00
 -4 6 4 -1.38 0.00
 -2 6 6 5.26 0.00
 0 6 8 13.26 0.00
 2 6 10 3.56 0.00
 4 6 12 0.33 0.00
 6 6 14 3.62 0.00
 -7 7 1 0.01 0.00
 -5 7 3 -3.20 0.00
 -3 7 5 2.10 0.00
 -1 7 7 6.18 0.00
 1 7 9 5.99 0.00
 3 7 11 -3.42 0.00
 5 7 13 3.80 0.00
 7 7 15 1.25 0.00
 8 8 0 0.02 0.00
 -6 8 2 -0.58 0.00
 -4 8 4 -0.03 0.00
 -2 8 6 -0.63 0.00
 0 8 8 9.60 0.00
 2 8 10 -6.65 0.00
 4 8 12 -1.60 0.00
 6 8 14 -0.69 0.00
 -7 9 1 -3.73 0.00
 -5 9 3 0.14 0.00
 -3 9 5 -0.84 0.00
 -1 9 7 3.98 0.00
 1 9 9 17.26 0.00
 3 9 11 -2.11 0.00
 5 9 13 -1.12 0.00
 7 9 15 6.27 0.00
 8 10 0 2.45 0.00
 -6 10 2 0.49 0.00
 -4 10 4 1.65 0.00
 -2 10 6 3.14 0.00
 0 10 8 14.60 0.00
 2 10 10 -3.41 0.00
 4 10 12 -2.17 0.00
 6 10 14 0.15 0.00
 -7 11 1 1.39 0.00
 -5 11 3 1.45 0.00
 -3 11 5 -1.18 0.00
 -1 11 7 3.41 0.00
 1 11 9 8.84 0.00
 3 11 11 -1.26 0.00
 5 11 13 1.73 0.00
 7 11 15 -2.54 0.00
 8 12 0 5.04 0.00
 -6 12 2 1.49 0.00
 -4 12 4 -0.47 0.00
 -2 12 6 3.29 0.00
 0 12 8 -7.71 0.00
 2 12 10 -1.88 0.00
 4 12 12 -0.98 0.00
 6 12 14 12.39 0.00
 -7 13 1 -8.38 0.00
 -5 13 3 -0.53 0.00
 -3 13 5 -3.18 0.00
 -1 13 7 6.17 0.00
 1 13 9 -2.86 0.00
 3 13 11 1.22 0.00
 5 13 13 1.14 0.00
 7 13 15 1.93 0.00
 8 14 0 11.59 0.00
 -6 14 2 -1.30 0.00
 -4 14 4 1.11 0.00
 -2 14 6 5.35 0.00
 0 14 8 5.49 0.00
 2 14 10 -2.51 0.00
 4 14 12 2.27 0.00
 6 14 14 2.83 0.00
 -7 15 1 1.30 0.00
 -5 15 3 -0.25 0.00
 -3 15 5 2.82 0.00
 -1 15 7 4.08 0.00
 1 15 9 -7.66 0.00
 3 15 11 2.74 0.00
 5 15 13 1.43 0.00
 7 15 15 1.23 0.00
 -6 16 2 2.74 0.00
 -4 16 4 -0.32 0.00
 -2 16 6 4.13 0.00
 0 16 8 5.48 0.00
 2 16 10 -0.33 0.00
 4 16 12 -4.62 0.00
 6 16 14 -1.79 0.00
 -7 17 1 -0.43 0.00
 -5 17 3 3.49 0.00
 -3 17 5 4.85 0.00
 -1 17 7 -1.77 0.00
 1 17 9 -1.66 0.00
 3 17 11 2.85 0.00
 5 17 13 -1.37 0.00
 -6 18 2 0.13 0.00
 -4 18 4 -0.16 0.00
 -2 18 6 5.37 0.00
 0 18 8 -5.16 0.00
 2 18 10 -6.06 0.00
 4 18 12 -0.16 0.00
 6 18 14 -1.91 0.00
 -7 19 1 -0.74 0.00
 -5 19 3 -0.26 0.00
 -3 19 5 4.70 0.00
 -1 19 7 -0.47 0.00
 1 19 9 0.19 0.00
 3 19 11 4.39 0.00
 5 19 13 -5.22 0.00
 -6 20 2 -2.61 0.00
 -4 20 4 2.06 0.00
 -2 20 6 2.03 0.00
 0 20 8 -3.26 0.00
 2 20 10 0.04 0.00
 4 20 12 -3.45 0.00
 6 20 14 0.72 0.00
 -7 21 1 -1.43 0.00
 -5 21 3 5.53 0.00
 -3 21 5 1.67 0.00
 -1 21 7 -0.21 0.00
 1 21 9 0.62 0.00
 3 21 11 5.61 0.00
 5 21 13 13.88 0.00
 -6 22 2 -1.73 0.00
 -4 22 4 0.90 0.00
 -2 22 6 -2.11 0.00
 0 22 8 -2.07 0.00
 2 22 10 -0.97 0.00
 4 22 12 1.40 0.00
 -5 23 3 -0.09 0.00
 -3 23 5 -5.23 0.00
 -1 23 7 -5.22 0.00
 1 23 9 0.18 0.00
 3 23 11 -2.39 0.00
 5 23 13 11.41 0.00
 -6 24 2 -0.94 0.00
 -4 24 4 -2.38 0.00
 -2 24 6 -0.51 0.00
 0 24 8 0.53 0.00
 2 24 10 -3.52 0.00
 4 24 12 3.52 0.00
 -5 25 3 2.76 0.00
 -3 25 5 -1.47 0.00
 -1 25 7 4.27 0.00
 1 25 9 -6.77 0.00
 3 25 11 1.90 0.00
 -4 26 4 -7.27 0.00
 -2 26 6 4.32 0.00
 0 26 8 0.20 0.00
 2 26 10 -6.34 0.00
 4 26 12 -1.97 0.00
 -5 27 3 1.91 0.00
 -3 27 5 1.37 0.00
 -1 27 7 -2.84 0.00
 1 27 9 -0.79 0.00
 3 27 11 -3.74 0.00
 -4 28 4 -2.33 0.00
 -2 28 6 2.36 0.00
 0 28 8 1.88 0.00
 2 28 10 3.06 0.00
 -3 29 5 -0.51 0.00
 -1 29 7 -4.89 0.00
 1 29 9 3.07 0.00
 3 29 11 2.65 0.00
 -4 30 4 0.50 0.00
 -2 30 6 2.72 0.00
 0 30 8 -6.08 0.00
 2 30 10 4.45 0.00
 -3 31 5 -4.39 0.00
 -1 31 7 -0.33 0.00
 1 31 9 -1.35 0.00
 -2 32 6 1.79 0.00
 0 32 8 -2.62 0.00
 -1 33 7 -3.30 0.00
 9 1 0 -0.17 0.00
 -7 1 2 -5.55 0.00
 -5 1 4 -1.98 0.00
 -3 1 6 -1.11 0.00
 -1 1 8 8.73 0.00
 1 1 10 2.09 0.00
 3 1 12 2.23 0.00
 5 1 14 1.36 0.00
 7 1 16 -1.18 0.00
 -8 2 1 2.44 0.00
 -6 2 3 -2.14 0.00
 -4 2 5 -1.56 0.00
 -2 2 7 22.65 0.00
 0 2 9 59.51 0.00
 2 2 11 -0.30 0.00
 4 2 13 1.94 0.00
 6 2 15 5.45 0.00
 9 3 0 10.80 0.00
 -7 3 2 -4.91 0.00
 -5 3 4 0.62 0.00
 -3 3 6 -2.37 0.00
 -1 3 8 -14.75 0.00
 1 3 10 7.09 0.00
 3 3 12 -0.56 0.00
 5 3 14 2.23 0.00
 7 3 16 -0.82 0.00
 -8 4 1 -0.15 0.00
 -6 4 3 -1.72 0.00
 -4 4 5 -0.05 0.00
 -2 4 7 15.43 0.00
 0 4 9 7.10 0.00
 2 4 11 -2.52 0.00
 4 4 13 0.39 0.00
 6 4 15 -0.44 0.00
 -7 5 2 0.03 0.00
 -5 5 4 -0.17 0.00
 -3 5 6 1.60 0.00
 -1 5 8 5.60 0.00
 1 5 10 2.74 0.00
 3 5 12 -3.82 0.00
 5 5 14 1.29 0.00
 7 5 16 -0.66 0.00
 -8 6 1 -2.35 0.00
 -6 6 3 -1.74 0.00
 -4 6 5 -0.41 0.00
 -2 6 7 4.18 0.00
 0 6 9 11.34 0.00
 2 6 11 1.13 0.00
 4 6 13 -4.29 0.00
 6 6 15 -0.30 0.00
 -7 7 2 4.65 0.00
 -5 7 4 7.45 0.00
 -3 7 6 5.80 0.00
 -1 7 8 -4.01 0.00
 1 7 10 -3.88 0.00
 3 7 12 4.18 0.00
 5 7 14 3.09 0.00
 7 7 16 5.05 0.00
 -8 8 1 1.43 0.00
 -6 8 3 -0.34 0.00
 -4 8 5 -0.44 0.00
 -2 8 7 -5.12 0.00
 0 8 9 -7.33 0.00
 2 8 11 -2.55 0.00
 4 8 13 3.67 0.00
 6 8 15 0.82 0.00
 -7 9 2 -0.68 0.00
 -5 9 4 -2.12 0.00
 -3 9 6 0.26 0.00
 -1 9 8 0.49 0.00
 1 9 10 -9.54 0.00
 3 9 12 -1.28 0.00
 5 9 14 -0.77 0.00
 7 9 16 2.33 0.00
 -8 10 1 0.36 0.00
 -6 10 3 -2.68 0.00
 -4 10 5 -0.22 0.00
 -2 10 7 -6.02 0.00
 0 10 9 2.75 0.00
 2 10 11 -1.81 0.00
 4 10 13 0.19 0.00
 6 10 15 -4.01 0.00
 -7 11 2 4.21 0.00
 -5 11 4 3.14 0.00
 -3 11 6 -1.76 0.00
 -1 11 8 -8.67 0.00
 1 11 10 0.40 0.00
 3 11 12 2.64 0.00
 5 11 14 -0.26 0.00
 7 11 16 1.55 0.00
 -8 12 1 -3.83 0.00
 -6 12 3 0.17 0.00
 -4 12 5 4.80 0.00
 -2 12 7 -4.28 0.00
 0 12 9 -4.64 0.00
 2 12 11 3.15 0.00
 4 12 13 -5.57 0.00
 6 12 15 4.58 0.00
 -7 13 2 3.25 0.00
 -5 13 4 -0.05 0.00
 -3 13 6 -3.24 0.00
 -1 13 8 -6.15 0.00
 1 13 10 -1.52 0.00
 3 13 12 -0.51 0.00
 5 13 14 0.97 0.00
 7 13 16 -6.22 0.00
 -8 14 1 1.78 0.00
 -6 14 3 1.49 0.00
 -4 14 5 -2.45 0.00
 -2 14 7 1.90 0.00
 0 14 9 -8.70 0.00
 2 14 11 1.38 0.00
 4 14 13 -2.30 0.00
 6 14 15 5.99 0.00
 -7 15 2 3.60 0.00
 -5 15 4 1.86 0.00
 -3 15 6 0.65 0.00
 -1 15 8 0.43 0.00
 1 15 10 -0.23 0.00
 3 15 12 0.63 0.00
 5 15 14 1.77 0.00
 -8 16 1 11.20 0.00
 -6 16 3 -1.78 0.00
 -4 16 5 5.03 0.00
 -2 16 7 -5.01 0.00
 0 16 9 -1.34 0.00
 2 16 11 1.24 0.00
 4 16 13 0.24 0.00
 6 16 15 1.63 0.00
 -7 17 2 2.87 0.00
 -5 17 4 1.05 0.00
 -3 17 6 2.27 0.00
 -1 17 8 -1.76 0.00
 1 17 10 -0.74 0.00
 3 17 12 0.02 0.00
 5 17 14 9.09 0.00
 -6 18 3 4.67 0.00
 -4 18 5 -2.10 0.00
 -2 18 7 -2.31 0.00
 0 18 9 0.94 0.00
 2 18 11 1.33 0.00
 4 18 13 3.31 0.00
 6 18 15 -2.40 0.00
 -7 19 2 -1.99 0.00
 -5 19 4 3.95 0.00
 -3 19 6 -2.87 0.00
 -1 19 8 -2.38 0.00
 1 19 10 1.53 0.00
 3 19 12 0.87 0.00
 5 19 14 -11.67 0.00
 -6 20 3 1.43 0.00
 -4 20 5 -1.80 0.00
 -2 20 7 1.52 0.00
 0 20 9 -2.84 0.00
 2 20 11 -3.95 0.00
 4 20 13 3.35 0.00
 6 20 15 -2.61 0.00
 -7 21 2 -0.31 0.00
 -5 21 4 -2.60 0.00
 -3 21 6 6.47 0.00
 -1 21 8 -0.91 0.00
 1 21 10 2.53 0.00
 3 21 12 3.51 0.00
 5 21 14 -6.88 0.00
 -6 22 3 -1.59 0.00
 -4 22 5 -1.34 0.00
 -2 22 7 5.44 0.00
 0 22 9 2.39 0.00
 2 22 11 -1.89 0.00
 4 22 13 -6.79 0.00
 -5 23 4 4.93 0.00
 -3 23 6 5.54 0.00
 -1 23 8 -0.70 0.00
 1 23 10 -0.73 0.00
 3 23 12 3.03 0.00
 5 23 14 -3.62 0.00
 -6 24 3 2.12 0.00
 -4 24 5 1.36 0.00
 -2 24 7 -5.41 0.00
 0 24 9 0.81 0.00
 2 24 11 1.02 0.00
 4 24 13 2.22 0.00
 -5 25 4 -2.03 0.00
 -3 25 6 2.61 0.00
 -1 25 8 -0.75 0.00
 1 25 10 -0.98 0.00
 3 25 12 -0.11 0.00
 -4 26 5 -1.17 0.00
 -2 26 7 -0.64 0.00
 0 26 9 1.89 0.00
 2 26 11 -2.40 0.00
 4 26 13 1.47 0.00
 -5 27 4 3.01 0.00
 -3 27 6 -0.97 0.00
 -1 27 8 4.49 0.00
 1 27 10 -6.95 0.00
 3 27 12 2.34 0.00
 -4 28 5 -7.23 0.00
 -2 28 7 -0.52 0.00
 0 28 9 -0.88 0.00
 2 28 11 -0.03 0.00
 -3 29 6 1.60 0.00
 -1 29 8 -3.99 0.00
 1 29 10 5.19 0.00
 3 29 12 -4.67 0.00
 -4 30 5 -4.36 0.00
 -2 30 7 -1.93 0.00
 0 30 9 7.12 0.00
 2 30 11 3.62 0.00
 -3 31 6 -0.95 0.00
 -1 31 8 0.72 0.00
 1 31 10 -3.54 0.00
 -2 32 7 3.05 0.00
 0 32 9 -7.88 0.00
 -8 0 2 -6.87 0.00
 -6 0 4 0.39 0.00
 -4 0 6 3.88 0.00
 -2 0 8 17.57 0.00
 0 0 10 -41.04 0.00
 2 0 12 5.68 0.00
 4 0 14 0.15 0.00
 6 0 16 -1.30 0.00
 -9 1 1 -2.00 0.00
 -7 1 3 2.21 0.00
 -5 1 5 -1.95 0.00
 -3 1 7 3.10 0.00
 -1 1 9 9.61 0.00
 1 1 11 -5.87 0.00
 3 1 13 -1.44 0.00
 5 1 15 3.66 0.00
 7 1 17 -3.52 0.00
 -8 2 2 -3.88 0.00
 -6 2 4 3.01 0.00
 -4 2 6 -2.26 0.00
 -2 2 8 12.20 0.00
 0 2 10 20.92 0.00
 2 2 12 3.69 0.00
 4 2 14 -3.11 0.00
 6 2 16 1.82 0.00
 -9 3 1 -9.49 0.00
 -7 3 3 0.90 0.00
 -5 3 5 2.16 0.00
 -3 3 7 7.60 0.00
 -1 3 9 -14.74 0.00
 1 3 11 -5.23 0.00
 3 3 13 0.11 0.00
 5 3 15 -4.43 0.00
 7 3 17 0.89 0.00
 -8 4 2 -2.08 0.00
 -6 4 4 -2.68 0.00
 -4 4 6 -0.49 0.00
 -2 4 8 0.70 0.00
 0 4 10 1.04 0.00
 2 4 12 0.10 0.00
 4 4 14 4.05 0.00
 6 4 16 -1.13 0.00
 -7 5 3 1.45 0.00
 -5 5 5 -3.08 0.00
 -3 5 7 -3.72 0.00
 -1 5 9 -3.60 0.00
 1 5 11 6.03 0.00
 3 5 13 -8.38 0.00
 5 5 15 4.26 0.00
 7 5 17 -5.05 0.00
 -8 6 2 -0.69 0.00
 -6 6 4 0.17 0.00
 -4 6 6 1.24 0.00
 -2 6 8 -9.19 0.00
 0 6 10 -13.38 0.00
 2 6 12 -3.78 0.00
 4 6 14 -1.92 0.00
 6 6 16 -1.06 0.00
 -7 7 3 -0.01 0.00
 -5 7 5 4.12 0.00
 -3 7 7 0.64 0.00
 -1 7 9 1.00 0.00
 1 7 11 12.29 0.00
 3 7 13 1.07 0.00
 5 7 15 0.39 0.00
 7 7 17 -0.22 0.00
 -8 8 2 1.69 0.00
 -6 8 4 4.59 0.00
 -4 8 6 1.92 0.00
 -2 8 8 -6.94 0.00
 0 8 10 3.51 0.00
 2 8 12 1.33 0.00
 4 8 14 -0.34 0.00
 6 8 16 1.24 0.00
 -7 9 3 2.83 0.00
 -5 9 5 0.44 0.00
 -3 9 7 -1.78 0.00
 -1 9 9 12.16 0.00
 1 9 11 -0.31 0.00
 3 9 13 -1.78 0.00
 5 9 15 1.59 0.00
 7 9 17 -2.51 0.00
 -8 10 2 4.40 0.00
 -6 10 4 1.40 0.00
 -4 10 6 0.71 0.00
 -2 10 8 -4.77 0.00
 0 10 10 -2.44 0.00
 2 10 12 -1.94 0.00
 4 10 14 3.05 0.00
 6 10 16 6.77 0.00
 -7 11 3 -7.37 0.00
 -5 11 5 -2.56 0.00
 -3 11 7 -3.57 0.00
 -1 11 9 13.08 0.00
 1 11 11 -0.97 0.00
 3 11 13 -1.15 0.00
 5 11 15 -3.36 0.00
 7 11 17 6.31 0.00
 -8 12 2 6.36 0.00
 -6 12 4 -0.78 0.00
 -4 12 6 -0.49 0.00
 -2 12 8 2.05 0.00
 0 12 10 15.71 0.00
 2 12 12 -2.50 0.00
 4 12 14 1.05 0.00
 6 12 16 4.01 0.00
 -7 13 3 -2.14 0.00
 -5 13 5 0.22 0.00
 -3 13 7 -2.75 0.00
 -1 13 9 1.58 0.00
 1 13 11 0.10 0.00
 3 13 13 -2.83 0.00
 5 13 15 1.11 0.00
 7 13 17 -1.04 0.00
 -8 14 2 -7.12 0.00
 -6 14 4 -0.22 0.00
 -4 14 6 -3.45 0.00
 -2 14 8 2.41 0.00
 0 14 10 5.09 0.00
 2 14 12 -1.97 0.00
 4 14 14 -3.07 0.00
 6 14 16 9.54 0.00
 -7 15 3 -5.63 0.00
 -5 15 5 -0.01 0.00
 -3 15 7 -1.20 0.00
 -1 15 9 0.94 0.00
 1 15 11 -0.58 0.00
 3 15 13 -0.70 0.00
 5 15 15 2.72 0.00
 -8 16 2 7.83 0.00
 -6 16 4 -3.77 0.00
 -4 16 6 -4.77 0.00
 -2 16 8 3.19 0.00
 0 16 10 -1.68 0.00
 2 16 12 -0.95 0.00
 4 16 14 0.77 0.00
 6 16 16 -0.40 0.00
 -7 17 3 5.67 0.00
 -5 17 5 -2.51 0.00
 -3 17 7 2.88 0.00
 -1 17 9 3.24 0.00
 1 17 11 -1.42 0.00
 3 17 13 0.75 0.00
 5 17 15 -0.43 0.00
 -6 18 4 -3.94 0.00
 -4 18 6 -0.67 0.00
 -2 18 8 1.02 0.00
 0 18 10 1.84 0.00
 2 18 12 1.75 0.00
 4 18 14 -7.09 0.00
 6 18 16 -3.89 0.00
 -7 19 3 2.24 0.00
 -5 19 5 0.29 0.00
 -3 19 7 4.19 0.00
 -1 19 9 -0.50 0.00
 1 19 11 -1.17 0.00
 3 19 13 2.70 0.00
 5 19 15 5.98 0.00
 -6 20 4 0.56 0.00
 -4 20 6 3.07 0.00
 -2 20 8 0.09 0.00
 0 20 10 -4.70 0.00
 2 20 12 -3.90 0.00
 4 20 14 -1.46 0.00
 -7 21 3 3.50 0.00
 -5 21 5 -0.06 0.00
 -3 21 7 -3.61 0.00
 -1 21 9 -6.10 0.00
 1 21 11 -0.42 0.00
 3 21 13 4.10 0.00
 5 21 15 -4.97 0.00
 -6 22 4 -0.83 0.00
 -4 22 6 1.98 0.00
 -2 22 8 2.49 0.00
 0 22 10 -1.01 0.00
 2 22 12 -0.70 0.00
 4 22 14 -6.50 0.00
 -5 23 5 3.16 0.00
 -3 23 7 -0.54 0.00
 -1 23 9 1.04 0.00
 1 23 11 -1.94 0.00
 3 23 13 5.89 0.00
 5 23 15 11.91 0.00
 -6 24 4 -3.85 0.00
 -4 24 6 -3.77 0.00
 -2 24 8 3.90 0.00
 0 24 10 1.75 0.00
 2 24 12 -1.41 0.00
 4 24 14 -3.44 0.00
 -5 25 5 2.35 0.00
 -3 25 7 0.17 0.00
 -1 25 9 -5.19 0.00
 1 25 11 3.27 0.00
 3 25 13 -1.86 0.00
 -4 26 6 3.83 0.00
 -2 26 8 -4.46 0.00
 0 26 10 2.74 0.00
 2 26 12 -4.04 0.00
 4 26 14 4.77 0.00
 -5 27 5 1.09 0.00
 -3 27 7 3.02 0.00
 -1 27 9 1.50 0.00
 1 27 11 -3.41 0.00
 3 27 13 5.69 0.00
 -4 28 6 3.48 0.00
 -2 28 8 -2.65 0.00
 0 28 10 -4.07 0.00
 2 28 12 -7.01 0.00
 -3 29 7 -2.67 0.00
 -1 29 9 -0.38 0.00
 1 29 11 0.58 0.00
 3 29 13 0.48 0.00
 -4 30 6 1.17 0.00
 -2 30 8 -2.20 0.00
 0 30 10 1.65 0.00
 2 30 12 -2.60 0.00
 -3 31 7 -0.51 0.00
 -1 31 9 -6.38 0.00
 1 31 11 7.90 0.00
 -2 32 8 0.08 0.00
 0 32 10 -1.60 0.00
 -9 1 2 0.17 0.00
 -7 1 4 1.48 0.00
 -5 1 6 -0.07 0.00
 -3 1 8 -8.86 0.00
 -1 1 10 -7.13 0.00
 1 1 12 4.93 0.00
 3 1 14 -1.23 0.00
 5 1 16 -2.02 0.00
 7 1 18 0.56 0.00
 -8 2 3 0.80 0.00
 -6 2 5 -0.15 0.00
 -4 2 7 1.24 0.00
 -2 2 9 7.74 0.00
 0 2 11 -13.02 0.00
 2 2 13 -0.07 0.00
 4 2 15 -0.91 0.00
 6 2 17 -0.41 0.00
 -9 3 2 -3.44 0.00
 -7 3 4 -0.39 0.00
 -5 3 6 0.33 0.00
 -3 3 8 5.37 0.00
 -1 3 10 6.98 0.00
 1 3 12 1.51 0.00
 3 3 14 1.60 0.00
 5 3 16 -1.07 0.00
 7 3 18 -1.05 0.00
 -8 4 3 -1.44 0.00
 -6 4 5 0.46 0.00
 -4 4 7 -0.44 0.00
 -2 4 9 12.46 0.00
 0 4 11 30.67 0.00
 2 4 13 0.15 0.00
 4 4 15 -2.39 0.00
 6 4 17 1.49 0.00
 -7 5 4 -2.02 0.00
 -5 5 6 1.07 0.00
 -3 5 8 7.57 0.00
 -1 5 10 -0.24 0.00
 1 5 12 0.56 0.00
 3 5 14 0.99 0.00
 5 5 16 1.68 0.00
 7 5 18 2.97 0.00
 -8 6 3 -1.32 0.00
 -6 6 5 -2.13 0.00
 -4 6 7 -1.25 0.00
 -2 6 9 7.21 0.00
 0 6 11 0.82 0.00
 2 6 13 -8.51 0.00
 4 6 15 2.70 0.00
 6 6 17 -3.90 0.00
 -7 7 4 -0.04 0.00
 -5 7 6 -4.39 0.00
 -3 7 8 1.97 0.00
 -1 7 10 2.79 0.00
 1 7 12 1.46 0.00
 3 7 14 -5.48 0.00
 5 7 16 3.99 0.00
 7 7 18 -1.24 0.00
 -8 8 3 1.19 0.00
 -6 8 5 -2.18 0.00
 -4 8 7 1.53 0.00
 -2 8 9 2.78 0.00
 0 8 11 2.19 0.00
 2 8 13 -4.01 0.00
 4 8 15 0.11 0.00
 6 8 17 -1.97 0.00
 -7 9 4 3.49 0.00
 -5 9 6 5.69 0.00
 -3 9 8 -2.07 0.00
 -1 9 10 -2.56 0.00
 1 9 12 1.69 0.00
 3 9 14 2.27 0.00
 5 9 16 3.07 0.00
 7 9 18 1.22 0.00
 -8 10 3 5.52 0.00
 -6 10 5 -1.03 0.00
 -4 10 7 2.05 0.00
 -2 10 9 -1.01 0.00
 0 10 11 -10.89 0.00
 2 10 13 -2.57 0.00
 4 10 15 0.99 0.00
 6 10 17 6.67 0.00
 -7 11 4 1.16 0.00
 -5 11 6 -0.15 0.00
 -3 11 8 -3.34 0.00
 -1 11 10 0.09 0.00
 1 11 12 -10.10 0.00
 3 11 14 1.53 0.00
 5 11 16 -0.66 0.00
 7 11 18 -1.55 0.00
 -8 12 3 8.05 0.00
 -6 12 5 -0.26 0.00
 -4 12 7 -0.99 0.00
 -2 12 9 1.49 0.00
 0 12 11 -5.15 0.00
 2 12 13 -0.34 0.00
 4 12 15 0.22 0.00
 6 12 17 0.60 0.00
 -7 13 4 0.30 0.00
 -5 13 6 1.13 0.00
 -3 13 8 1.19 0.00
 -1 13 10 -0.79 0.00
 1 13 12 -4.39 0.00
 3 13 14 1.23 0.00
 5 13 16 -1.45 0.00
 -8 14 3 0.48 0.00
 -6 14 5 -1.99 0.00
 -4 14 7 4.42 0.00
 -2 14 9 -2.45 0.00
 0 14 11 -0.54 0.00
 2 14 13 -1.15 0.00
 4 14 15 -5.10 0.00
 6 14 17 -0.79 0.00
 -7 15 4 -2.33 0.00
 -5 15 6 1.03 0.00
 -3 15 8 2.34 0.00
 -1 15 10 -4.78 0.00
 1 15 12 0.37 0.00
 3 15 14 -1.23 0.00
 5 15 16 2.42 0.00
 -8 16 3 -9.83 0.00
 -6 16 5 1.67 0.00
 -4 16 7 -1.54 0.00
 -2 16 9 0.64 0.00
 0 16 11 -2.70 0.00
 2 16 13 0.74 0.00
 4 16 15 -0.81 0.00
 6 16 17 -2.02 0.00
 -7 17 4 -3.00 0.00
 -5 17 6 3.54 0.00
 -3 17 8 -0.69 0.00
 -1 17 10 1.19 0.00
 1 17 12 3.09 0.00
 3 17 14 1.64 0.00
 5 17 16 -3.26 0.00
 -6 18 5 -5.28 0.00
 -4 18 7 0.46 0.00
 -2 18 9 -1.69 0.00
 0 18 11 -4.41 0.00
 2 18 13 0.90 0.00
 4 18 15 0.96 0.00
 6 18 17 -1.08 0.00
 -7 19 4 1.30 0.00
 -5 19 6 1.78 0.00
 -3 19 8 0.16 0.00
 -1 19 10 2.13 0.00
 1 19 12 0.62 0.00
 3 19 14 1.96 0.00
 5 19 16 12.35 0.00
 -6 20 5 -2.53 0.00
 -4 20 7 -2.90 0.00
 -2 20 9 -2.01 0.00
 0 20 11 -0.26 0.00
 2 20 13 5.00 0.00
 4 20 15 -1.38 0.00
 -7 21 4 1.16 0.00
 -5 21 6 7.15 0.00
 -3 21 8 -4.57 0.00
 -1 21 10 -2.20 0.00
 1 21 12 -2.79 0.00
 3 21 14 -1.76 0.00
 5 21 16 6.52 0.00
 -6 22 5 -2.25 0.00
 -4 22 7 -1.07 0.00
 -2 22 9 -4.88 0.00
 0 22 11 -1.89 0.00
 2 22 13 -0.44 0.00
 4 22 15 4.99 0.00
 -5 23 6 -0.67 0.00
 -3 23 8 -0.10 0.00
 -1 23 10 -1.52 0.00
 1 23 12 -2.29 0.00
 3 23 14 -3.42 0.00
 5 23 16 -1.91 0.00
 -6 24 5 -5.90 0.00
 -4 24 7 -0.28 0.00
 -2 24 9 4.61 0.00
 0 24 11 1.47 0.00
 2 24 13 -0.24 0.00
 4 24 15 -4.61 0.00
 -5 25 6 4.30 0.00
 -3 25 8 -2.70 0.00
 -1 25 10 1.25 0.00
 1 25 12 -4.04 0.00
 3 25 14 0.59 0.00
 -4 26 7 -3.67 0.00
 -2 26 9 1.56 0.00
 0 26 11 1.25 0.00
 2 26 13 4.78 0.00
 4 26 15 1.49 0.00
 -5 27 6 -0.35 0.00
 -3 27 8 -1.83 0.00
 -1 27 10 -2.79 0.00
 1 27 12 4.66 0.00
 3 27 14 3.48 0.00
 -4 28 7 1.50 0.00
 -2 28 9 -1.83 0.00
 0 28 11 4.99 0.00
 2 28 13 0.90 0.00
 -3 29 8 -2.18 0.00
 -1 29 10 4.14 0.00
 1 29 12 -6.14 0.00
 3 29 14 8.52 0.00
 -2 30 9 -1.15 0.00
 0 30 11 -3.14 0.00
 2 30 13 -3.28 0.00
 -3 31 8 -0.85 0.00
 -1 31 10 0.95 0.00
 1 31 12 1.76 0.00
 -2 32 9 -4.67 0.00
 0 32 11 7.78 0.00
 -8 0 4 2.05 0.00
 -6 0 6 4.04 0.00
 -4 0 8 -2.22 0.00
 -2 0 10 22.33 0.00
 0 0 12 50.06 0.00
 2 0 14 -1.17 0.00
 4 0 16 -0.05 0.00
 6 0 18 2.55 0.00
 -9 1 3 -1.26 0.00
 -7 1 5 1.20 0.00
 -5 1 7 2.22 0.00
 -3 1 9 2.29 0.00
 -1 1 11 -7.28 0.00
 1 1 13 0.02 0.00
 3 1 15 -0.18 0.00
 5 1 17 -3.36 0.00
 7 1 19 3.05 0.00
 -8 2 4 0.52 0.00
 -6 2 6 -1.38 0.00
 -4 2 8 3.03 0.00
 -2 2 10 11.83 0.00
 0 2 12 -6.04 0.00
 2 2 14 -1.36 0.00
 4 2 16 1.59 0.00
 6 2 18 -3.60 0.00
 -9 3 3 1.39 0.00
 -7 3 5 2.65 0.00
 -5 3 7 1.80 0.00
 -3 3 9 3.84 0.00
 -1 3 11 7.81 0.00
 1 3 13 -0.68 0.00
 3 3 15 -3.10 0.00
 5 3 17 4.68 0.00
 7 3 19 -1.87 0.00
 -8 4 4 -1.21 0.00
 -6 4 6 1.39 0.00
 -4 4 8 1.77 0.00
 -2 4 10 -4.61 0.00
 0 4 12 -8.19 0.00
 2 4 14 6.25 0.00
 4 4 16 -5.32 0.00
 6 4 18 -1.02 0.00
 -9 5 3 -14.98 0.00
 -7 5 5 -1.05 0.00
 -5 5 7 7.69 0.00
 -3 5 9 8.21 0.00
 -1 5 11 -5.59 0.00
 1 5 13 -0.30 0.00
 3 5 15 2.83 0.00
 5 5 17 -3.85 0.00
 7 5 19 4.14 0.00
 -8 6 4 -1.06 0.00
 -6 6 6 1.73 0.00
 -4 6 8 0.45 0.00
 -2 6 10 -9.25 0.00
 0 6 12 1.09 0.00
 2 6 14 3.82 0.00
 4 6 16 -0.76 0.00
 6 6 18 -2.22 0.00
 -7 7 5 1.55 0.00
 -5 7 7 -1.03 0.00
 -3 7 9 0.27 0.00
 -1 7 11 -4.87 0.00
 1 7 13 -6.16 0.00
 3 7 15 -2.69 0.00
 5 7 17 3.00 0.00
 7 7 19 -2.39 0.00
 -8 8 4 -2.06 0.00
 -6 8 6 0.58 0.00
 -4 8 8 3.52 0.00
 -2 8 10 -8.24 0.00
 0 8 12 -8.72 0.00
 2 8 14 0.75 0.00
 4 8 16 2.35 0.00
 6 8 18 -0.43 0.00
 -7 9 5 -1.07 0.00
 -5 9 7 -1.50 0.00
 -3 9 9 -3.31 0.00
 -1 9 11 -2.98 0.00
 1 9 13 1.43 0.00
 3 9 15 0.26 0.00
 5 9 17 -1.80 0.00
 7 9 19 -0.11 0.00
 -8 10 4 0.06 0.00
 -6 10 6 0.54 0.00
 -4 10 8 1.04 0.00
 -2 10 10 -0.02 0.00
 0 10 12 1.72 0.00
 2 10 14 2.26 0.00
 4 10 16 1.02 0.00
 6 10 18 2.04 0.00
 -7 11 5 3.69 0.00
 -5 11 7 1.99 0.00
 -3 11 9 -4.75 0.00
 -1 11 11 -1.24 0.00
 1 11 13 4.17 0.00
 3 11 15 -1.10 0.00
 5 11 17 -0.20 0.00
 -8 12 4 -1.68 0.00
 -6 12 6 -1.61 0.00
 -4 12 8 -1.84 0.00
 -2 12 10 1.54 0.00
 0 12 12 -4.88 0.00
 2 12 14 -1.39 0.00
 4 12 16 0.88 0.00
 6 12 18 13.40 0.00
 -7 13 5 -5.24 0.00
 -5 13 7 -1.37 0.00
 -3 13 9 1.31 0.00
 -1 13 11 5.49 0.00
 1 13 13 2.08 0.00
 3 13 15 -1.38 0.00
 5 13 17 1.58 0.00
 -8 14 4 7.76 0.00
 -6 14 6 -0.10 0.00
 -4 14 8 -4.20 0.00
 -2 14 10 -1.01 0.00
 0 14 12 3.33 0.00
 2 14 14 -1.83 0.00
 4 14 16 3.91 0.00
 6 14 18 1.63 0.00
 -7 15 5 0.78 0.00
 -5 15 7 -0.43 0.00
 -3 15 9 0.30 0.00
 -1 15 11 1.54 0.00
 1 15 13 -0.82 0.00
 3 15 15 -2.22 0.00
 5 15 17 2.45 0.00
 -8 16 4 -9.72 0.00
 -6 16 6 0.20 0.00
 -4 16 8 -2.95 0.00
 -2 16 10 -1.16 0.00
 0 16 12 7.12 0.00
 2 16 14 -1.48 0.00
 4 16 16 -1.78 0.00
 6 16 18 -1.63 0.00
 -7 17 5 -6.42 0.00
 -5 17 7 -1.06 0.00
 -3 17 9 -0.81 0.00
 -1 17 11 1.27 0.00
 1 17 13 1.33 0.00
 3 17 15 0.10 0.00
 5 17 17 -0.56 0.00
 -6 18 6 0.52 0.00
 -4 18 8 -5.79 0.00
 -2 18 10 7.68 0.00
 0 18 12 -3.17 0.00
 2 18 14 -3.16 0.00
 4 18 16 0.55 0.00
 6 18 18 -1.71 0.00
 -7 19 5 2.92 0.00
 -5 19 7 -2.45 0.00
 -3 19 9 -1.13 0.00
 -1 19 11 -2.42 0.00
 1 19 13 4.62 0.00
 3 19 15 4.63 0.00
 5 19 17 -13.87 0.00
 -6 20 6 -1.90 0.00
 -4 20 8 -1.90 0.00
 -2 20 10 5.34 0.00
 0 20 12 4.74 0.00
 2 20 14 0.94 0.00
 4 20 16 -8.85 0.00
 -7 21 5 2.37 0.00
 -5 21 7 0.85 0.00
 -3 21 9 1.23 0.00
 -1 21 11 1.45 0.00
 1 21 13 -0.69 0.00
 3 21 15 6.92 0.00
 5 21 17 9.21 0.00
 -6 22 6 0.62 0.00
 -4 22 8 -4.06 0.00
 -2 22 10 -2.31 0.00
 0 22 12 2.88 0.00
 2 22 14 0.20 0.00
 4 22 16 1.22 0.00
 -5 23 7 3.71 0.00
 -3 23 9 -5.79 0.00
 -1 23 11 -2.35 0.00
 1 23 13 0.89 0.00
 3 23 15 2.39 0.00
 -6 24 6 -2.14 0.00
 -4 24 8 0.04 0.00
 -2 24 10 -4.64 0.00
 0 24 12 -0.47 0.00
 2 24 14 -2.10 0.00
 4 24 16 5.22 0.00
 -5 25 7 0.08 0.00
 -3 25 9 2.12 0.00
 -1 25 11 2.46 0.00
 1 25 13 -0.57 0.00
 3 25 15 3.92 0.00
 -4 26 8 -4.76 0.00
 -2 26 10 4.39 0.00
 0 26 12 -3.79 0.00
 2 26 14 -2.95 0.00
 4 26 16 -1.93 0.00
 -5 27 7 0.72 0.00
 -3 27 9 0.94 0.00
 -1 27 11 -3.52 0.00
 1 27 13 5.08 0.00
 3 27 15 -0.17 0.00
 -4 28 8 2.52 0.00
 -2 28 10 -1.83 0.00
 0 28 12 1.58 0.00
 2 28 14 -0.60 0.00
 -3 29 9 2.59 0.00
 -1 29 11 -0.78 0.00
 1 29 13 1.00 0.00
 -2 30 10 1.04 0.00
 0 30 12 -6.27 0.00
 2 30 14 1.60 0.00
 -3 31 9 -5.35 0.00
 -1 31 11 1.50 0.00
 1 31 13 -0.63 0.00
 -2 32 10 2.56 0.00
 0 32 12 -2.81 0.00
 -9 1 4 -5.83 0.00
 -7 1 6 1.18 0.00
 -5 1 8 -0.33 0.00
 -3 1 10 1.31 0.00
 -1 1 12 -3.59 0.00
 1 1 14 0.18 0.00
 3 1 16 -3.56 0.00
 5 1 18 -0.80 0.00
 7 1 20 -2.92 0.00
 -8 2 5 2.65 0.00
 -6 2 7 -0.93 0.00
 -4 2 9 -0.76 0.00
 -2 2 11 2.84 0.00
 0 2 13 16.73 0.00
 2 2 15 -2.11 0.00
 4 2 17 1.49 0.00
 6 2 19 0.76 0.00
 -9 3 4 6.17 0.00
 -7 3 6 -0.40 0.00
 -5 3 8 -0.20 0.00
 -3 3 10 -3.87 0.00
 -1 3 12 -3.81 0.00
 1 3 14 5.82 0.00
 3 3 16 -3.39 0.00
 5 3 18 -0.01 0.00
 7 3 20 -0.05 0.00
 -8 4 5 1.77 0.00
 -6 4 7 0.42 0.00
 -4 4 9 1.06 0.00
 -2 4 11 0.11 0.00
 0 4 13 -16.66 0.00
 2 4 15 -5.57 0.00
 4 4 17 0.40 0.00
 6 4 19 -1.49 0.00
 -9 5 4 2.02 0.00
 -7 5 6 0.16 0.00
 -5 5 8 0.32 0.00
 -3 5 10 0.71 0.00
 -1 5 12 6.78 0.00
 1 5 14 6.52 0.00
 3 5 16 -2.21 0.00
 5 5 18 1.83 0.00
 7 5 20 -1.98 0.00
 -8 6 5 -1.32 0.00
 -6 6 7 4.14 0.00
 -4 6 9 3.12 0.00
 -2 6 11 -1.90 0.00
 0 6 13 7.30 0.00
 2 6 15 0.35 0.00
 4 6 17 -2.51 0.00
 6 6 19 2.80 0.00
 -7 7 6 -0.26 0.00
 -5 7 8 4.82 0.00
 -3 7 10 0.24 0.00
 -1 7 12 6.79 0.00
 1 7 14 1.20 0.00
 3 7 16 2.69 0.00
 5 7 18 -3.48 0.00
 7 7 20 5.00 0.00
 -8 8 5 1.15 0.00
 -6 8 7 -0.57 0.00
 -4 8 9 -1.02 0.00
 -2 8 11 -1.75 0.00
 0 8 13 -1.11 0.00
 2 8 15 -3.97 0.00
 4 8 17 1.14 0.00
 6 8 19 0.67 0.00
 -7 9 6 0.73 0.00
 -5 9 8 -3.54 0.00
 -3 9 10 -0.26 0.00
 -1 9 12 6.01 0.00
 1 9 14 -6.40 0.00
 3 9 16 -1.01 0.00
 5 9 18 -2.47 0.00
 -8 10 5 2.14 0.00
 -6 10 7 -3.25 0.00
 -4 10 9 -2.69 0.00
 -2 10 11 1.96 0.00
 0 10 13 1.69 0.00
 2 10 15 -1.20 0.00
 4 10 17 -0.41 0.00
 6 10 19 -0.31 0.00
 -7 11 6 -0.04 0.00
 -5 11 8 0.11 0.00
 -3 11 10 -2.37 0.00
 -1 11 12 -2.81 0.00
 1 11 14 -3.26 0.00
 3 11 16 0.19 0.00
 5 11 18 -0.92 0.00
 -8 12 5 0.45 0.00
 -6 12 7 -6.44 0.00
 -4 12 9 -0.03 0.00
 -2 12 11 -0.02 0.00
 0 12 13 -4.33 0.00
 2 12 15 -3.08 0.00
 4 12 17 -6.03 0.00
 6 12 19 5.94 0.00
 -7 13 6 3.34 0.00
 -5 13 8 0.92 0.00
 -3 13 10 -2.31 0.00
 -1 13 12 -6.23 0.00
 1 13 14 -2.70 0.00
 3 13 16 -0.01 0.00
 5 13 18 4.50 0.00
 -8 14 5 3.86 0.00
 -6 14 7 -1.76 0.00
 -4 14 9 -0.94 0.00
 -2 14 11 0.79 0.00
 0 14 13 -5.61 0.00
 2 14 15 1.14 0.00
 4 14 17 -3.27 0.00
 6 14 19 -0.59 0.00
 -7 15 6 4.08 0.00
 -5 15 8 -0.18 0.00
 -3 15 10 0.50 0.00
 -1 15 12 1.69 0.00
 1 15 14 -0.01 0.00
 3 15 16 -0.79 0.00
 5 15 18 -0.41 0.00
 -6 16 7 -4.81 0.00
 -4 16 9 5.21 0.00
 -2 16 11 -0.85 0.00
 0 16 13 -2.85 0.00
 2 16 15 -2.73 0.00
 4 16 17 -2.18 0.00
 6 16 19 -3.18 0.00
 -7 17 6 0.59 0.00
 -5 17 8 1.25 0.00
 -3 17 10 2.64 0.00
 -1 17 12 -0.12 0.00
 1 17 14 -0.97 0.00
 3 17 16 -0.04 0.00
 5 17 18 5.72 0.00
 -6 18 7 -1.01 0.00
 -4 18 9 4.20 0.00
 -2 18 11 1.43 0.00
 0 18 13 -2.03 0.00
 2 18 15 -0.47 0.00
 4 18 17 -3.06 0.00
 -7 19 6 -4.31 0.00
 -5 19 8 5.19 0.00
 -3 19 10 -2.30 0.00
 -1 19 12 -3.50 0.00
 1 19 14 -2.21 0.00
 3 19 16 1.82 0.00
 5 19 18 0.21 0.00
 -6 20 7 -4.90 0.00
 -4 20 9 0.55 0.00
 -2 20 11 2.50 0.00
 0 20 13 -4.71 0.00
 2 20 15 0.03 0.00
 4 20 17 -0.57 0.00
 -7 21 6 0.75 0.00
 -5 21 8 0.09 0.00
 -3 21 10 0.04 0.00
 -1 21 12 -0.95 0.00
 1 21 14 -0.52 0.00
 3 21 16 0.52 0.00
 5 21 18 3.18 0.00
 -6 22 7 -3.97 0.00
 -4 22 9 -1.31 0.00
 -2 22 11 3.55 0.00
 0 22 13 0.29 0.00
 2 22 15 5.58 0.00
 4 22 17 -6.04 0.00
 -5 23 8 3.15 0.00
 -3 23 10 -2.76 0.00
 -1 23 12 0.04 0.00
 1 23 14 -3.90 0.00
 3 23 16 -1.00 0.00
 -6 24 7 -1.97 0.00
 -4 24 9 1.13 0.00
 -2 24 11 -6.42 0.00
 0 24 13 1.79 0.00
 2 24 15 0.38 0.00
 4 24 17 6.83 0.00
 -5 25 8 -1.33 0.00
 -3 25 10 -0.33 0.00
 -1 25 12 -0.38 0.00
 1 25 14 1.54 0.00
 3 25 16 -2.11 0.00
 -4 26 9 8.33 0.00
 -2 26 11 -3.94 0.00
 0 26 13 3.15 0.00
 2 26 15 -3.52 0.00
 -5 27 8 0.08 0.00
 -3 27 10 -5.19 0.00
 -1 27 12 1.80 0.00
 1 27 14 -4.35 0.00
 3 27 16 4.68 0.00
 -4 28 9 -4.55 0.00
 -2 28 11 0.97 0.00
 0 28 13 0.93 0.00
 2 28 15 2.86 0.00
 -3 29 10 -4.13 0.00
 -1 29 12 -1.05 0.00
 1 29 14 4.41 0.00
 -2 30 11 1.19 0.00
 0 30 13 8.71 0.00
 -1 31 12 1.59 0.00
 1 31 14 -5.23 0.00
 -8 0 6 0.51 0.00
 -6 0 8 2.21 0.00
 -4 0 10 3.64 0.00
 -2 0 12 9.66 0.00
 0 0 14 -15.07 0.00
 2 0 16 -5.01 0.00
 4 0 18 2.87 0.00
 6 0 20 -2.57 0.00
 -9 1 5 2.10 0.00
 -7 1 7 -1.49 0.00
 -5 1 9 0.82 0.00
 -3 1 11 8.78 0.00
 -1 1 13 8.61 0.00
 1 1 15 -2.64 0.00
 3 1 17 1.71 0.00
 5 1 19 4.50 0.00
 7 1 21 -2.63 0.00
 -8 2 6 -1.00 0.00
 -6 2 8 2.80 0.00
 -4 2 10 -0.35 0.00
 -2 2 12 8.69 0.00
 0 2 14 18.80 0.00
 2 2 16 1.71 0.00
 4 2 18 -1.14 0.00
 6 2 20 0.01 0.00
 -9 3 5 -4.46 0.00
 -7 3 7 -2.47 0.00
 -5 3 9 3.34 0.00
 -3 3 11 12.74 0.00
 -1 3 13 -8.88 0.00
 1 3 15 -3.19 0.00
 3 3 17 3.10 0.00
 5 3 19 -1.54 0.00
 7 3 21 2.58 0.00
 -8 4 6 0.85 0.00
 -6 4 8 -1.16 0.00
 -4 4 10 0.17 0.00
 -2 4 12 4.50 0.00
 0 4 14 2.43 0.00
 2 4 16 -3.60 0.00
 4 4 18 0.09 0.00
 6 4 20 -5.95 0.00
 -7 5 7 0.06 0.00
 -5 5 9 -1.33 0.00
 -3 5 11 3.87 0.00
 -1 5 13 -2.73 0.00
 1 5 15 -4.58 0.00
 3 5 17 -3.63 0.00
 5 5 19 10.80 0.00
 7 5 21 -2.65 0.00
 -8 6 6 0.52 0.00
 -6 6 8 -0.41 0.00
 -4 6 10 3.44 0.00
 -2 6 12 -3.65 0.00
 0 6 14 -11.57 0.00
 2 6 16 1.72 0.00
 4 6 18 -0.64 0.00
 6 6 20 0.14 0.00
 -7 7 7 -2.87 0.00
 -5 7 9 3.98 0.00
 -3 7 11 -3.06 0.00
 -1 7 13 -6.00 0.00
 1 7 15 -0.98 0.00
 3 7 17 0.03 0.00
 5 7 19 0.87 0.00
 -8 8 6 3.14 0.00
 -6 8 8 2.59 0.00
 -4 8 10 1.09 0.00
 -2 8 12 -3.65 0.00
 0 8 14 -1.67 0.00
 2 8 16 1.06 0.00
 4 8 18 0.02 0.00
 6 8 20 0.15 0.00
 -7 9 7 2.35 0.00
 -5 9 9 5.39 0.00
 -3 9 11 -3.60 0.00
 -1 9 13 -1.29 0.00
 1 9 15 -1.17 0.00
 3 9 17 1.49 0.00
 5 9 19 0.36 0.00
 -8 10 6 -0.46 0.00
 -6 10 8 0.83 0.00
 -4 10 10 -1.02 0.00
 -2 10 12 -2.96 0.00
 0 10 14 -4.84 0.00
 2 10 16 2.39 0.00
 4 10 18 0.73 0.00
 6 10 20 1.69 0.00
 -7 11 7 -6.15 0.00
 -5 11 9 -1.93 0.00
 -3 11 11 3.87 0.00
 -1 11 13 4.98 0.00
 1 11 15 1.47 0.00
 3 11 17 -2.09 0.00
 5 11 19 -5.38 0.00
 -8 12 6 -3.64 0.00
 -6 12 8 -0.10 0.00
 -4 12 10 -7.21 0.00
 -2 12 12 -1.94 0.00
 0 12 14 1.20 0.00
 2 12 16 3.20 0.00
 4 12 18 -0.06 0.00
 6 12 20 -1.35 0.00
 -7 13 7 -1.21 0.00
 -5 13 9 1.51 0.00
 -3 13 11 1.97 0.00
 -1 13 13 -3.05 0.00
 1 13 15 2.42 0.00
 3 13 17 -2.23 0.00
 5 13 19 1.70 0.00
 -8 14 6 -12.68 0.00
 -6 14 8 -5.18 0.00
 -4 14 10 -4.62 0.00
 -2 14 12 -4.52 0.00
 0 14 14 4.00 0.00
 2 14 16 1.40 0.00
 4 14 18 -2.93 0.00
 6 14 20 7.51 0.00
 -7 15 7 -5.36 0.00
 -5 15 9 1.75 0.00
 -3 15 11 -3.36 0.00
 -1 15 13 4.24 0.00
 1 15 15 1.66 0.00
 3 15 17 -0.82 0.00
 5 15 19 6.59 0.00
 -6 16 8 -1.16 0.00
 -4 16 10 -8.54 0.00
 -2 16 12 0.24 0.00
 0 16 14 -1.81 0.00
 2 16 16 2.24 0.00
 4 16 18 3.70 0.00
 6 16 20 0.14 0.00
 -7 17 7 7.22 0.00
 -5 17 9 3.86 0.00
 -3 17 11 -8.27 0.00
 -1 17 13 3.05 0.00
 1 17 15 1.52 0.00
 3 17 17 2.22 0.00
 5 17 19 -0.17 0.00
 -6 18 8 -0.76 0.00
 -4 18 10 -2.67 0.00
 -2 18 12 2.12 0.00
 0 18 14 4.48 0.00
 2 18 16 2.33 0.00
 4 18 18 -2.06 0.00
 -7 19 7 0.05 0.00
 -5 19 9 3.52 0.00
 -3 19 11 -2.38 0.00
 -1 19 13 -2.60 0.00
 1 19 15 -0.06 0.00
 3 19 17 0.17 0.00
 5 19 19 8.10 0.00
 -6 20 8 1.27 0.00
 -4 20 10 -2.57 0.00
 -2 20 12 2.57 0.00
 0 20 14 0.23 0.00
 2 20 16 -1.53 0.00
 4 20 18 2.02 0.00
 -7 21 7 5.31 0.00
 -5 21 9 3.10 0.00
 -3 21 11 -4.82 0.00
 -1 21 13 -7.63 0.00
 1 21 15 4.80 0.00
 3 21 17 -1.37 0.00
 5 21 19 -7.94 0.00
 -6 22 8 -1.53 0.00
 -4 22 10 0.97 0.00
 -2 22 12 2.43 0.00
 0 22 14 2.30 0.00
 2 22 16 0.11 0.00
 4 22 18 0.85 0.00
 -5 23 9 -1.32 0.00
 -3 23 11 -0.70 0.00
 -1 23 13 1.24 0.00
 1 23 15 2.35 0.00
 3 23 17 8.25 0.00
 -6 24 8 2.30 0.00
 -4 24 10 -9.98 0.00
 -2 24 12 6.37 0.00
 0 24 14 -0.10 0.00
 2 24 16 1.79 0.00
 4 24 18 0.88 0.00
 -5 25 9 3.16 0.00
 -3 25 11 -0.17 0.00
 -1 25 13 -0.04 0.00
 1 25 15 5.22 0.00
 3 25 17 11.28 0.00
 -4 26 10 1.43 0.00
 -2 26 12 -4.96 0.00
 0 26 14 2.41 0.00
 2 26 16 -4.06 0.00
 -5 27 9 -2.41 0.00
 -3 27 11 9.23 0.00
 -1 27 13 1.41 0.00
 1 27 15 1.49 0.00
 3 27 17 6.90 0.00
 -4 28 10 5.74 0.00
 -2 28 12 -2.41 0.00
 0 28 14 -4.57 0.00
 2 28 16 -3.13 0.00
 -3 29 11 -0.36 0.00
 -1 29 13 -1.11 0.00
 1 29 15 0.80 0.00
 -2 30 12 -1.89 0.00
 0 30 14 -0.67 0.00
 -1 31 13 -2.72 0.00
 -9 1 6 -2.62 0.00
 -7 1 8 2.97 0.00
 -5 1 10 1.79 0.00
 -3 1 12 -2.28 0.00
 -1 1 14 -2.68 0.00
 1 1 16 0.42 0.00
 3 1 18 -1.60 0.00
 5 1 20 -0.07 0.00
 -8 2 7 -0.40 0.00
 -6 2 9 -1.29 0.00
 -4 2 11 1.67 0.00
 -2 2 13 -6.10 0.00
 0 2 15 -20.49 0.00
 2 2 17 3.12 0.00
 4 2 19 -0.52 0.00
 6 2 21 -0.22 0.00
 -9 3 6 -4.91 0.00
 -7 3 8 -2.82 0.00
 -5 3 10 2.01 0.00
 -3 3 12 2.18 0.00
 -1 3 14 -3.70 0.00
 1 3 16 3.13 0.00
 3 3 18 0.90 0.00
 5 3 20 -3.31 0.00
 -8 4 7 -5.52 0.00
 -6 4 9 3.36 0.00
 -4 4 11 1.15 0.00
 -2 4 13 -5.66 0.00
 0 4 15 9.62 0.00
 2 4 17 3.05 0.00
 4 4 19 -1.51 0.00
 6 4 21 1.98 0.00
 -7 5 8 -0.90 0.00
 -5 5 10 -0.52 0.00
 -3 5 12 -1.08 0.00
 -1 5 14 -7.14 0.00
 1 5 16 3.86 0.00
 3 5 18 1.38 0.00
 5 5 20 -4.42 0.00
 -8 6 7 -5.26 0.00
 -6 6 9 3.62 0.00
 -4 6 11 -0.44 0.00
 -2 6 13 -2.51 0.00
 0 6 15 -4.89 0.00
 2 6 17 -2.25 0.00
 4 6 19 1.75 0.00
 6 6 21 -3.10 0.00
 -7 7 8 6.22 0.00
 -5 7 10 -5.91 0.00
 -3 7 12 -0.40 0.00
 -1 7 14 3.74 0.00
 1 7 16 0.64 0.00
 3 7 18 -2.84 0.00
 5 7 20 2.09 0.00
 -8 8 7 -2.46 0.00
 -6 8 9 1.65 0.00
 -4 8 11 0.04 0.00
 -2 8 13 1.13 0.00
 0 8 15 -3.24 0.00
 2 8 17 -0.22 0.00
 4 8 19 2.38 0.00
 6 8 21 4.08 0.00
 -7 9 8 1.82 0.00
 -5 9 10 1.62 0.00
 -3 9 12 -2.88 0.00
 -1 9 14 1.71 0.00
 1 9 16 1.80 0.00
 3 9 18 1.55 0.00
 5 9 20 -3.81 0.00
 -8 10 7 2.29 0.00
 -6 10 9 -2.49 0.00
 -4 10 11 -0.13 0.00
 -2 10 13 1.89 0.00
 0 10 15 -2.83 0.00
 2 10 17 -5.16 0.00
 4 10 19 -2.18 0.00
 6 10 21 6.24 0.00
 -7 11 8 1.05 0.00
 -5 11 10 0.37 0.00
 -3 11 12 0.34 0.00
 -1 11 14 1.26 0.00
 1 11 16 1.52 0.00
 3 11 18 1.16 0.00
 5 11 20 0.93 0.00
 -8 12 7 3.76 0.00
 -6 12 9 2.53 0.00
 -4 12 11 -0.73 0.00
 -2 12 13 -0.13 0.00
 0 12 15 1.04 0.00
 2 12 17 -0.88 0.00
 4 12 19 -2.47 0.00
 6 12 21 -2.46 0.00
 -7 13 8 -2.21 0.00
 -5 13 10 -3.39 0.00
 -3 13 12 0.46 0.00
 -1 13 14 3.50 0.00
 1 13 16 -1.33 0.00
 3 13 18 -1.52 0.00
 5 13 20 -1.54 0.00
 -8 14 7 1.01 0.00
 -6 14 9 -1.99 0.00
 -4 14 11 1.93 0.00
 -2 14 13 0.96 0.00
 0 14 15 -0.71 0.00
 2 14 17 -3.05 0.00
 4 14 19 -1.48 0.00
 6 14 21 -2.16 0.00
 -7 15 8 0.07 0.00
 -5 15 10 -1.05 0.00
 -3 15 12 -1.74 0.00
 -1 15 14 -1.89 0.00
 1 15 16 0.49 0.00
 3 15 18 -0.70 0.00
 5 15 20 2.83 0.00
 -6 16 9 -2.55 0.00
 -4 16 11 -0.72 0.00
 -2 16 13 5.63 0.00
 0 16 15 -3.46 0.00
 2 16 17 0.48 0.00
 4 16 19 -4.15 0.00
 -7 17 8 -0.67 0.00
 -5 17 10 -0.44 0.00
 -3 17 12 -3.30 0.00
 -1 17 14 -0.11 0.00
 1 17 16 1.03 0.00
 3 17 18 0.99 0.00
 5 17 20 -3.18 0.00
 -6 18 9 -4.51 0.00
 -4 18 11 -2.50 0.00
 -2 18 13 3.37 0.00
 0 18 15 -0.49 0.00
 2 18 17 -1.47 0.00
 4 18 19 -0.35 0.00
 -7 19 8 3.38 0.00
 -5 19 10 0.50 0.00
 -3 19 12 -1.36 0.00
 -1 19 14 4.51 0.00
 1 19 16 -3.23 0.00
 3 19 18 1.11 0.00
 5 19 20 4.34 0.00
 -6 20 9 -1.03 0.00
 -4 20 11 0.08 0.00
 -2 20 13 -2.30 0.00
 0 20 15 -0.29 0.00
 2 20 17 3.15 0.00
 4 20 19 -3.20 0.00
 -5 21 10 2.94 0.00
 -3 21 12 -4.27 0.00
 -1 21 14 -0.28 0.00
 1 21 16 -6.04 0.00
 3 21 18 -3.90 0.00
 -6 22 9 -4.95 0.00
 -4 22 11 1.53 0.00
 -2 22 13 -4.50 0.00
 0 22 15 -3.74 0.00
 2 22 17 0.13 0.00
 4 22 19 5.21 0.00
 -5 23 10 -4.47 0.00
 -3 23 12 2.39 0.00
 -1 23 14 -2.19 0.00
 1 23 16 2.78 0.00
 3 23 18 -10.69 0.00
 -6 24 9 -5.33 0.00
 -4 24 11 8.10 0.00
 -2 24 13 3.60 0.00
 0 24 15 -2.89 0.00
 2 24 17 3.13 0.00
 4 24 19 -2.46 0.00
 -5 25 10 -3.25 0.00
 -3 25 12 0.14 0.00
 -1 25 14 -2.09 0.00
 1 25 16 -6.25 0.00
 3 25 18 -0.14 0.00
 -4 26 11 3.24 0.00
 -2 26 13 -0.60 0.00
 0 26 15 1.28 0.00
 2 26 17 5.01 0.00
 -5 27 10 2.32 0.00
 -3 27 12 -1.42 0.00
 -1 27 14 0.09 0.00
 1 27 16 0.92 0.00
 3 27 18 1.71 0.00
 -4 28 11 8.58 0.00
 -2 28 13 -2.12 0.00
 0 28 15 10.77 0.00
 2 28 17 -0.18 0.00
 -3 29 12 -5.23 0.00
 -1 29 14 1.47 0.00
 1 29 16 -7.10 0.00
 -2 30 13 0.09 0.00
 0 30 15 2.36 0.00
 -1 31 14 0.38 0.00
 -8 0 8 -1.63 0.00
 -6 0 10 0.73 0.00
 -4 0 12 -2.91 0.00
 -2 0 14 2.56 0.00
 0 0 16 20.30 0.00
 2 0 18 -1.91 0.00
 4 0 20 0.13 0.00
 6 0 22 1.88 0.00
 -9 1 7 -1.44 0.00
 -7 1 9 1.86 0.00
 -5 1 11 1.36 0.00
 -3 1 13 -0.74 0.00
 -1 1 15 -7.58 0.00
 1 1 17 0.96 0.00
 3 1 19 1.55 0.00
 5 1 21 -2.04 0.00
 -8 2 8 2.06 0.00
 -6 2 10 1.62 0.00
 -4 2 12 0.43 0.00
 -2 2 14 2.18 0.00
 0 2 16 -7.12 0.00
 2 2 18 -6.00 0.00
 4 2 20 1.28 0.00
 6 2 22 -0.21 0.00
 -9 3 7 3.64 0.00
 -7 3 9 0.37 0.00
 -5 3 11 1.47 0.00
 -3 3 13 6.38 0.00
 -1 3 15 10.15 0.00
 1 3 17 -2.38 0.00
 3 3 19 2.30 0.00
 5 3 21 6.92 0.00
 -8 4 8 -1.76 0.00
 -6 4 10 0.59 0.00
 -4 4 12 1.19 0.00
 -2 4 14 -0.93 0.00
 0 4 16 0.44 0.00
 2 4 18 4.13 0.00
 4 4 20 -3.66 0.00
 6 4 22 4.26 0.00
 -7 5 9 -3.53 0.00
 -5 5 11 3.83 0.00
 -3 5 13 4.97 0.00
 -1 5 15 -2.71 0.00
 1 5 17 -2.19 0.00
 3 5 19 3.50 0.00
 5 5 21 -4.33 0.00
 -8 6 8 0.25 0.00
 -6 6 10 0.63 0.00
 -4 6 12 -0.11 0.00
 -2 6 14 -0.15 0.00
 0 6 16 6.30 0.00
 2 6 18 -1.02 0.00
 4 6 20 -2.93 0.00
 6 6 22 -4.29 0.00
 -7 7 9 4.49 0.00
 -5 7 11 0.37 0.00
 -3 7 13 1.87 0.00
 -1 7 15 -0.53 0.00
 1 7 17 -1.93 0.00
 3 7 19 0.08 0.00
 5 7 21 5.48 0.00
 -8 8 8 -0.73 0.00
 -6 8 10 -1.65 0.00
 -4 8 12 -2.28 0.00
 -2 8 14 -1.98 0.00
 0 8 16 -5.24 0.00
 2 8 18 2.54 0.00
 4 8 20 -0.75 0.00
 6 8 22 -4.45 0.00
 -7 9 9 0.79 0.00
 -5 9 11 -3.33 0.00
 -3 9 13 0.82 0.00
 -1 9 15 0.47 0.00
 1 9 17 -2.65 0.00
 3 9 19 -3.18 0.00
 5 9 21 -0.66 0.00
 -8 10 8 0.99 0.00
 -6 10 10 -1.51 0.00
 -4 10 12 -6.34 0.00
 -2 10 14 -0.73 0.00
 0 10 16 -4.23 0.00
 2 10 18 0.91 0.00
 4 10 20 -1.25 0.00
 6 10 22 -0.35 0.00
 -7 11 9 6.77 0.00
 -5 11 11 3.58 0.00
 -3 11 13 1.76 0.00
 -1 11 15 -5.93 0.00
 1 11 17 -1.18 0.00
 3 11 19 -0.73 0.00
 5 11 21 5.04 0.00
 -8 12 8 0.52 0.00
 -6 12 10 -3.80 0.00
 -4 12 12 -0.57 0.00
 -2 12 14 -2.67 0.00
 0 12 16 0.04 0.00
 2 12 18 0.39 0.00
 4 12 20 -2.80 0.00
 6 12 22 3.31 0.00
 -7 13 9 -4.81 0.00
 -5 13 11 0.55 0.00
 -3 13 13 4.05 0.00
 -1 13 15 2.76 0.00
 1 13 17 1.60 0.00
 3 13 19 -2.98 0.00
 5 13 21 -0.74 0.00
 -8 14 8 1.51 0.00
 -6 14 10 3.32 0.00
 -4 14 12 -3.51 0.00
 -2 14 14 -2.90 0.00
 0 14 16 2.46 0.00
 2 14 18 0.03 0.00
 4 14 20 2.38 0.00
 -7 15 9 -0.34 0.00
 -5 15 11 3.69 0.00
 -3 15 13 -1.10 0.00
 -1 15 15 1.44 0.00
 1 15 17 1.90 0.00
 3 15 19 1.76 0.00
 5 15 21 -0.31 0.00
 -6 16 10 -2.93 0.00
 -4 16 12 -0.79 0.00
 -2 16 14 1.14 0.00
 0 16 16 3.89 0.00
 2 16 18 -2.09 0.00
 4 16 20 -1.15 0.00
 -7 17 9 -10.18 0.00
 -5 17 11 2.90 0.00
 -3 17 13 -2.92 0.00
 -1 17 15 -2.75 0.00
 1 17 17 0.55 0.00
 3 17 19 1.89 0.00
 5 17 21 6.38 0.00
 -6 18 10 -0.08 0.00
 -4 18 12 -7.42 0.00
 -2 18 14 7.47 0.00
 0 18 16 -3.23 0.00
 2 18 18 0.69 0.00
 4 18 20 0.90 0.00
 -7 19 9 2.99 0.00
 -5 19 11 4.71 0.00
 -3 19 13 -6.33 0.00
 -1 19 15 -3.29 0.00
 1 19 17 3.71 0.00
 3 19 19 3.24 0.00
 5 19 21 -2.22 0.00
 -6 20 10 1.61 0.00
 -4 20 12 -3.48 0.00
 -2 20 14 3.50 0.00
 0 20 16 2.10 0.00
 2 20 18 5.10 0.00
 4 20 20 2.18 0.00
 -5 21 11 2.99 0.00
 -3 21 13 -1.92 0.00
 -1 21 15 -0.47 0.00
 1 21 17 1.26 0.00
 3 21 19 4.61 0.00
 -6 22 10 2.14 0.00
 -4 22 12 -5.60 0.00
 -2 22 14 -0.95 0.00
 0 22 16 2.09 0.00
 2 22 18 -0.31 0.00
 4 22 20 6.67 0.00
 -5 23 11 8.63 0.00
 -3 23 13 -4.45 0.00
 -1 23 15 -1.90 0.00
 1 23 17 9.79 0.00
 3 23 19 0.60 0.00
 -6 24 10 -1.98 0.00
 -4 24 12 2.78 0.00
 -2 24 14 -4.95 0.00
 0 24 16 3.40 0.00
 2 24 18 -8.34 0.00
 -5 25 11 -2.31 0.00
 -3 25 13 2.89 0.00
 -1 25 15 0.25 0.00
 1 25 17 6.47 0.00
 3 25 19 5.61 0.00
 -4 26 12 -6.05 0.00
 -2 26 14 4.25 0.00
 0 26 16 -3.66 0.00
 2 26 18 1.74 0.00
 -5 27 11 1.48 0.00
 -3 27 13 0.52 0.00
 -1 27 15 2.98 0.00
 1 27 17 -0.98 0.00
 -4 28 12 -0.34 0.00
 -2 28 14 -0.68 0.00
 0 28 16 0.59 0.00
 2 28 18 2.16 0.00
 -3 29 13 5.11 0.00
 -1 29 15 3.96 0.00
 1 29 17 -1.22 0.00
 -2 30 14 1.44 0.00
 0 30 16 -2.89 0.00
 -1 31 15 -0.05 0.00
 -9 1 8 -3.10 0.00
 -7 1 10 -0.64 0.00
 -5 1 12 -0.46 0.00
 -3 1 14 5.05 0.00
 -1 1 16 -3.62 0.00
 1 1 18 -2.96 0.00
 3 1 20 3.94 0.00
 5 1 22 1.52 0.00
 -8 2 9 1.35 0.00
 -6 2 11 -0.94 0.00
 -4 2 13 1.86 0.00
 -2 2 15 0.36 0.00
 0 2 17 5.80 0.00
 2 2 19 0.54 0.00
 4 2 21 -0.92 0.00
 6 2 23 -1.43 0.00
 -9 3 8 3.08 0.00
 -7 3 10 -0.62 0.00
 -5 3 12 -1.42 0.00
 -3 3 14 -2.74 0.00
 -1 3 16 -8.33 0.00
 1 3 18 1.32 0.00
 3 3 20 0.87 0.00
 5 3 22 3.28 0.00
 -8 4 9 1.17 0.00
 -6 4 11 0.43 0.00
 -4 4 13 1.50 0.00
 -2 4 15 -2.82 0.00
 0 4 17 -12.75 0.00
 2 4 19 2.34 0.00
 4 4 21 -0.21 0.00
 6 4 23 -1.47 0.00
 -7 5 10 -1.28 0.00
 -5 5 12 -1.63 0.00
 -3 5 14 -2.59 0.00
 -1 5 16 1.29 0.00
 1 5 18 1.54 0.00
 3 5 20 -1.53 0.00
 5 5 22 2.72 0.00
 -8 6 9 -3.09 0.00
 -6 6 11 4.09 0.00
 -4 6 13 0.72 0.00
 -2 6 15 -5.12 0.00
 0 6 17 0.77 0.00
 2 6 19 3.64 0.00
 4 6 21 0.44 0.00
 6 6 23 4.85 0.00
 -7 7 10 -0.35 0.00
 -5 7 12 2.86 0.00
 -3 7 14 -2.57 0.00
 -1 7 16 0.54 0.00
 1 7 18 4.18 0.00
 3 7 20 1.60 0.00
 5 7 22 -7.14 0.00
 -8 8 9 -2.80 0.00
 -6 8 11 2.52 0.00
 -4 8 13 -0.34 0.00
 -2 8 15 -0.39 0.00
 0 8 17 1.27 0.00
 2 8 19 1.17 0.00
 4 8 21 -0.56 0.00
 6 8 23 -2.54 0.00
 -7 9 10 4.78 0.00
 -5 9 12 -2.63 0.00
 -3 9 14 1.42 0.00
 -1 9 16 3.91 0.00
 1 9 18 5.67 0.00
 3 9 20 0.46 0.00
 5 9 22 -4.01 0.00
 -8 10 9 -2.33 0.00
 -6 10 11 1.97 0.00
 -4 10 13 -2.89 0.00
 -2 10 15 -1.38 0.00
 0 10 17 -1.08 0.00
 2 10 19 2.92 0.00
 4 10 21 -2.63 0.00
 6 10 23 1.90 0.00
 -7 11 10 -0.10 0.00
 -5 11 12 -4.08 0.00
 -3 11 14 -0.52 0.00
 -1 11 16 3.16 0.00
 1 11 18 -1.37 0.00
 3 11 20 0.87 0.00
 5 11 22 -1.94 0.00
 -8 12 9 -2.79 0.00
 -6 12 11 -3.74 0.00
 -4 12 13 2.33 0.00
 -2 12 15 -0.73 0.00
 0 12 17 -1.24 0.00
 2 12 19 -1.92 0.00
 4 12 21 -1.67 0.00
 6 12 23 8.32 0.00
 -7 13 10 5.86 0.00
 -5 13 12 0.34 0.00
 -3 13 14 -6.80 0.00
 -1 13 16 1.57 0.00
 1 13 18 -1.41 0.00
 3 13 20 0.63 0.00
 5 13 22 7.31 0.00
 -8 14 9 7.65 0.00
 -6 14 11 0.97 0.00
 -4 14 13 3.99 0.00
 -2 14 15 2.72 0.00
 0 14 17 -3.06 0.00
 2 14 19 1.51 0.00
 4 14 21 -1.22 0.00
 -7 15 10 2.89 0.00
 -5 15 12 0.57 0.00
 -3 15 14 -5.42 0.00
 -1 15 16 4.39 0.00
 1 15 18 -0.89 0.00
 3 15 20 1.59 0.00
 5 15 22 -2.69 0.00
 -6 16 11 2.34 0.00
 -4 16 13 2.43 0.00
 -2 16 15 4.13 0.00
 0 16 17 1.67 0.00
 2 16 19 -0.85 0.00
 4 16 21 4.81 0.00
 -7 17 10 2.78 0.00
 -5 17 12 -1.26 0.00
 -3 17 14 2.01 0.00
 -1 17 16 -1.08 0.00
 1 17 18 0.59 0.00
 3 17 20 -2.33 0.00
 5 17 22 -0.15 0.00
 -6 18 11 0.17 0.00
 -4 18 13 2.25 0.00
 -2 18 15 1.36 0.00
 0 18 17 -1.18 0.00
 2 18 19 -0.69 0.00
 4 18 21 -4.48 0.00
 -7 19 10 -3.50 0.00
 -5 19 12 -5.74 0.00
 -3 19 14 1.44 0.00
 -1 19 16 -7.17 0.00
 1 19 18 -0.64 0.00
 3 19 20 -5.07 0.00
 -6 20 11 -2.53 0.00
 -4 20 13 -2.99 0.00
 -2 20 15 -1.01 0.00
 0 20 17 -1.84 0.00
 2 20 19 -1.94 0.00
 4 20 21 2.20 0.00
 -5 21 12 -9.07 0.00
 -3 21 14 1.59 0.00
 -1 21 16 1.22 0.00
 1 21 18 -2.54 0.00
 3 21 20 -1.59 0.00
 -6 22 11 2.71 0.00
 -4 22 13 -4.49 0.00
 -2 22 15 1.51 0.00
 0 22 17 -3.05 0.00
 2 22 19 6.57 0.00
 4 22 21 -1.56 0.00
 -5 23 12 -4.32 0.00
 -3 23 14 2.46 0.00
 -1 23 16 1.51 0.00
 1 23 18 -10.04 0.00
 3 23 20 4.78 0.00
 -6 24 11 -0.46 0.00
 -4 24 13 1.73 0.00
 -2 24 15 -3.54 0.00
 0 24 17 1.20 0.00
 2 24 19 1.23 0.00
 -5 25 12 0.95 0.00
 -3 25 14 6.04 0.00
 -1 25 16 -1.38 0.00
 1 25 18 4.46 0.00
 3 25 20 -6.60 0.00
 -4 26 13 14.52 0.00
 -2 26 15 0.03 0.00
 0 26 17 5.30 0.00
 2 26 19 -3.38 0.00
 -3 27 14 -1.90 0.00
 -1 27 16 -4.75 0.00
 1 27 18 -8.60 0.00
 -4 28 13 4.78 0.00
 -2 28 15 0.85 0.00
 0 28 17 -1.17 0.00
 -3 29 14 -4.98 0.00
 -1 29 16 1.33 0.00
 1 29 18 -2.32 0.00
 -2 30 15 4.32 0.00
 0 30 17 7.21 0.00
 -8 0 10 -1.06 0.00
 -6 0 12 -0.50 0.00
 -4 0 14 -0.57 0.00
 -2 0 16 -5.67 0.00
 0 0 18 -10.91 0.00
 2 0 20 -3.15 0.00
 4 0 22 3.91 0.00
 6 0 24 4.02 0.00
 -9 1 9 2.40 0.00
 -7 1 11 -2.92 0.00
 -5 1 13 -0.03 0.00
 -3 1 15 4.53 0.00
 -1 1 17 7.49 0.00
 1 1 19 -0.26 0.00
 3 1 21 2.08 0.00
 5 1 23 0.54 0.00
 -8 2 10 -7.47 0.00
 -6 2 12 -0.02 0.00
 -4 2 14 -2.16 0.00
 -2 2 16 -4.47 0.00
 0 2 18 10.17 0.00
 2 2 20 2.25 0.00
 4 2 22 -1.57 0.00
 6 2 24 4.76 0.00
 -7 3 11 -0.09 0.00
 -5 3 13 -0.70 0.00
 -3 3 15 2.76 0.00
 -1 3 17 -5.78 0.00
 1 3 19 1.30 0.00
 3 3 21 3.16 0.00
 5 3 23 -3.96 0.00
 -8 4 10 -1.59 0.00
 -6 4 12 3.49 0.00
 -4 4 14 0.72 0.00
 -2 4 16 1.89 0.00
 0 4 18 5.79 0.00
 2 4 20 -2.60 0.00
 4 4 22 0.09 0.00
 6 4 24 -1.01 0.00
 -7 5 11 7.14 0.00
 -5 5 13 -3.68 0.00
 -3 5 15 5.33 0.00
 -1 5 17 6.57 0.00
 1 5 19 -1.00 0.00
 3 5 21 -0.96 0.00
 5 5 23 9.87 0.00
 -8 6 10 0.71 0.00
 -6 6 12 -0.80 0.00
 -4 6 14 0.39 0.00
 -2 6 16 0.99 0.00
 0 6 18 -5.70 0.00
 2 6 20 2.88 0.00
 4 6 22 -0.58 0.00
 6 6 24 0.67 0.00
 -7 7 11 -1.61 0.00
 -5 7 13 -0.34 0.00
 -3 7 15 2.60 0.00
 -1 7 17 3.25 0.00
 1 7 19 -1.90 0.00
 3 7 21 -1.32 0.00
 5 7 23 0.14 0.00
 -8 8 10 4.43 0.00
 -6 8 12 -0.56 0.00
 -4 8 14 -1.54 0.00
 -2 8 16 0.70 0.00
 0 8 18 0.92 0.00
 2 8 20 -1.12 0.00
 4 8 22 -2.44 0.00
 6 8 24 -2.95 0.00
 -7 9 11 2.66 0.00
 -5 9 13 4.18 0.00
 -3 9 15 1.78 0.00
 -1 9 17 -2.25 0.00
 1 9 19 1.95 0.00
 3 9 21 -0.74 0.00
 5 9 23 4.44 0.00
 -8 10 10 4.35 0.00
 -6 10 12 -0.33 0.00
 -4 10 14 -2.77 0.00
 -2 10 16 1.90 0.00
 0 10 18 0.33 0.00
 2 10 20 1.83 0.00
 4 10 22 -4.03 0.00
 6 10 24 -8.67 0.00
 -7 11 11 -4.76 0.00
 -5 11 13 -2.57 0.00
 -3 11 15 4.74 0.00
 -1 11 17 0.83 0.00
 1 11 19 1.71 0.00
 3 11 21 -2.97 0.00
 5 11 23 -3.67 0.00
 -8 12 10 2.45 0.00
 -6 12 12 2.75 0.00
 -4 12 14 -6.97 0.00
 -2 12 16 0.07 0.00
 0 12 18 -0.42 0.00
 2 12 20 3.43 0.00
 4 12 22 -0.65 0.00
 -7 13 11 5.53 0.00
 -5 13 13 0.11 0.00
 -3 13 15 0.72 0.00
 -1 13 17 -3.44 0.00
 1 13 19 2.14 0.00
 3 13 21 -0.67 0.00
 5 13 23 4.85 0.00
 -8 14 10 2.57 0.00
 -6 14 12 -7.24 0.00
 -4 14 14 -2.54 0.00
 -2 14 16 0.87 0.00
 0 14 18 -3.05 0.00
 2 14 20 -2.42 0.00
 4 14 22 -1.83 0.00
 -7 15 11 -4.77 0.00
 -5 15 13 -0.43 0.00
 -3 15 15 -5.04 0.00
 -1 15 17 -1.59 0.00
 1 15 19 1.32 0.00
 3 15 21 -0.42 0.00
 5 15 23 2.04 0.00
 -6 16 12 1.15 0.00
 -4 16 14 -3.90 0.00
 -2 16 16 1.02 0.00
 0 16 18 0.19 0.00
 2 16 20 -2.89 0.00
 4 16 22 -0.76 0.00
 -7 17 11 3.92 0.00
 -5 17 13 5.45 0.00
 -3 17 15 -8.95 0.00
 -1 17 17 5.13 0.00
 1 17 19 -0.46 0.00
 3 17 21 3.52 0.00
 5 17 23 0.34 0.00
 -6 18 12 -1.84 0.00
 -4 18 14 0.34 0.00
 -2 18 16 0.24 0.00
 0 18 18 3.14 0.00
 2 18 20 -0.91 0.00
 4 18 22 1.39 0.00
 -7 19 11 -4.56 0.00
 -5 19 13 3.40 0.00
 -3 19 15 -1.39 0.00
 -1 19 17 -2.34 0.00
 1 19 19 -0.95 0.00
 3 19 21 -2.95 0.00
 -6 20 12 -2.64 0.00
 -4 20 14 1.45 0.00
 -2 20 16 3.00 0.00
 0 20 18 -0.70 0.00
 2 20 20 -0.21 0.00
 4 20 22 2.77 0.00
 -5 21 13 5.05 0.00
 -3 21 15 0.01 0.00
 -1 21 17 -5.97 0.00
 1 21 19 9.82 0.00
 3 21 21 -7.71 0.00
 -6 22 12 -2.29 0.00
 -4 22 14 5.63 0.00
 -2 22 16 0.35 0.00
 0 22 18 0.62 0.00
 2 22 20 -0.82 0.00
 4 22 22 6.84 0.00
 -5 23 13 -0.24 0.00
 -3 23 15 4.68 0.00
 -1 23 17 -3.02 0.00
 1 23 19 1.70 0.00
 3 23 21 6.07 0.00
 -4 24 14 -4.35 0.00
 -2 24 16 -0.43 0.00
 0 24 18 -0.18 0.00
 2 24 20 3.83 0.00
 -5 25 13 10.14 0.00
 -3 25 15 -1.01 0.00
 -1 25 17 2.97 0.00
 1 25 19 1.53 0.00
 3 25 21 9.26 0.00
 -4 26 14 3.03 0.00
 -2 26 16 -7.40 0.00
 0 26 18 8.89 0.00
 2 26 20 -5.80 0.00
 -3 27 15 0.29 0.00
 -1 27 17 2.43 0.00
 1 27 19 3.96 0.00
 -4 28 14 -0.37 0.00
 -2 28 16 -1.21 0.00
 0 28 18 0.24 0.00
 -3 29 15 -3.63 0.00
 -1 29 17 2.45 0.00
 -2 30 16 -1.35 0.00
 -7 1 12 0.47 0.00
 -5 1 14 -1.18 0.00
 -3 1 16 -0.81 0.00
 -1 1 18 2.80 0.00
 1 1 20 -3.20 0.00
 3 1 22 4.54 0.00
 5 1 24 5.02 0.00
 -8 2 11 3.54 0.00
 -6 2 13 -1.46 0.00
 -4 2 15 1.61 0.00
 -2 2 17 2.34 0.00
 0 2 19 -8.11 0.00
 2 2 21 2.28 0.00
 4 2 23 -0.67 0.00
 6 2 25 0.50 0.00
 -7 3 12 -3.67 0.00
 -5 3 14 0.11 0.00
 -3 3 16 1.88 0.00
 -1 3 18 2.21 0.00
 1 3 20 -2.07 0.00
 3 3 22 3.40 0.00
 5 3 24 0.95 0.00
 -8 4 11 -0.34 0.00
 -6 4 13 2.05 0.00
 -4 4 15 2.06 0.00
 -2 4 17 -1.00 0.00
 0 4 19 5.03 0.00
 2 4 21 2.40 0.00
 4 4 23 -1.09 0.00
 6 4 25 -0.31 0.00
 -7 5 12 0.90 0.00
 -5 5 14 -0.65 0.00
 -3 5 16 -0.76 0.00
 -1 5 18 -4.06 0.00
 1 5 20 2.25 0.00
 3 5 22 -0.08 0.00
 5 5 24 0.09 0.00
 -8 6 11 -1.99 0.00
 -6 6 13 1.99 0.00
 -4 6 15 1.23 0.00
 -2 6 17 0.10 0.00
 0 6 19 -1.28 0.00
 2 6 21 2.10 0.00
 4 6 23 -0.05 0.00
 6 6 25 -5.97 0.00
 -7 7 12 9.07 0.00
 -5 7 14 -5.39 0.00
 -3 7 16 -0.53 0.00
 -1 7 18 0.35 0.00
 1 7 20 2.13 0.00
 3 7 22 -2.02 0.00
 5 7 24 2.30 0.00
 -8 8 11 2.09 0.00
 -6 8 13 1.69 0.00
 -4 8 15 -0.88 0.00
 -2 8 17 -4.39 0.00
 0 8 19 -0.49 0.00
 2 8 21 0.54 0.00
 4 8 23 0.89 0.00
 6 8 25 5.46 0.00
 -7 9 12 1.43 0.00
 -5 9 14 -2.66 0.00
 -3 9 16 0.60 0.00
 -1 9 18 0.14 0.00
 1 9 20 -1.82 0.00
 3 9 22 -0.26 0.00
 5 9 24 -2.88 0.00
 -8 10 11 0.40 0.00
 -6 10 13 -0.80 0.00
 -4 10 15 5.70 0.00
 -2 10 17 -2.38 0.00
 0 10 19 4.44 0.00
 2 10 21 -4.00 0.00
 4 10 23 0.39 0.00
 -7 11 12 0.04 0.00
 -5 11 14 -0.86 0.00
 -3 11 16 -1.53 0.00
 -1 11 18 0.55 0.00
 1 11 20 1.49 0.00
 3 11 22 0.42 0.00
 5 11 24 -2.66 0.00
 -8 12 11 6.65 0.00
 -6 12 13 4.50 0.00
 -4 12 15 5.69 0.00
 -2 12 17 -0.70 0.00
 0 12 19 1.71 0.00
 2 12 21 0.11 0.00
 4 12 23 -3.34 0.00
 -7 13 12 -6.74 0.00
 -5 13 14 -0.42 0.00
 -3 13 16 -0.27 0.00
 -1 13 18 3.74 0.00
 1 13 20 -0.11 0.00
 3 13 22 3.78 0.00
 5 13 24 -3.94 0.00
 -8 14 11 0.79 0.00
 -6 14 13 0.97 0.00
 -4 14 15 1.58 0.00
 -2 14 17 2.44 0.00
 0 14 19 1.73 0.00
 2 14 21 0.17 0.00
 4 14 23 4.92 0.00
 -7 15 12 1.78 0.00
 -5 15 14 -0.56 0.00
 -3 15 16 -1.39 0.00
 -1 15 18 -0.70 0.00
 1 15 20 1.62 0.00
 3 15 22 -0.81 0.00
 5 15 24 5.18 0.00
 -6 16 13 -0.56 0.00
 -4 16 15 -2.73 0.00
 -2 16 17 6.08 0.00
 0 16 19 -5.48 0.00
 2 16 21 1.94 0.00
 4 16 23 -3.50 0.00
 -7 17 12 -0.10 0.00
 -5 17 14 -2.18 0.00
 -3 17 16 -0.08 0.00
 -1 17 18 -1.59 0.00
 1 17 20 -2.09 0.00
 3 17 22 2.10 0.00
 -6 18 13 1.58 0.00
 -4 18 15 -4.69 0.00
 -2 18 17 0.95 0.00
 0 18 19 -0.38 0.00
 2 18 21 1.69 0.00
 4 18 23 2.92 0.00
 -7 19 12 6.39 0.00
 -5 19 14 -1.71 0.00
 -3 19 16 1.22 0.00
 -1 19 18 2.44 0.00
 1 19 20 -4.37 0.00
 3 19 22 -2.60 0.00
 -6 20 13 3.22 0.00
 -4 20 15 -4.64 0.00
 -2 20 17 -4.15 0.00
 0 20 19 -1.98 0.00
 2 20 21 1.50 0.00
 4 20 23 -0.28 0.00
 -5 21 14 -3.17 0.00
 -3 21 16 -0.23 0.00
 -1 21 18 -2.11 0.00
 1 21 20 -1.35 0.00
 3 21 22 -6.62 0.00
 -6 22 13 -2.37 0.00
 -4 22 15 -0.83 0.00
 -2 22 17 -3.76 0.00
 0 22 19 1.18 0.00
 2 22 21 -7.17 0.00
 -5 23 14 -6.25 0.00
 -3 23 16 2.08 0.00
 -1 23 18 0.19 0.00
 1 23 20 2.18 0.00
 3 23 22 -8.41 0.00
 -4 24 15 -0.23 0.00
 -2 24 17 4.49 0.00
 0 24 19 -1.67 0.00
 2 24 21 1.36 0.00
 -5 25 14 -6.17 0.00
 -3 25 16 3.35 0.00
 -1 25 18 2.53 0.00
 1 25 20 -18.26 0.00
 -4 26 15 3.23 0.00
 -2 26 17 1.89 0.00
 0 26 19 -2.86 0.00
 2 26 21 6.59 0.00
 -3 27 16 -0.47 0.00
 -1 27 18 4.52 0.00
 1 27 20 -2.77 0.00
 -2 28 17 5.23 0.00
 0 28 19 7.69 0.00
 -3 29 16 -5.17 0.00
 -1 29 18 -3.79 0.00
 -8 0 12 -2.89 0.00
 -6 0 14 -2.26 0.00
 -4 0 16 -0.05 0.00
 -2 0 18 -4.37 0.00
 0 0 20 7.72 0.00
 2 0 22 2.81 0.00
 4 0 24 -0.28 0.00
 6 0 26 0.08 0.00
 -7 1 13 0.38 0.00
 -5 1 15 -0.27 0.00
 -3 1 17 -3.19 0.00
 -1 1 19 -6.02 0.00
 1 1 21 -0.10 0.00
 3 1 23 -0.15 0.00
 5 1 25 0.38 0.00
 -8 2 12 1.64 0.00
 -6 2 14 -0.06 0.00
 -4 2 16 0.19 0.00
 -2 2 18 -2.54 0.00
 0 2 20 -1.78 0.00
 2 2 22 0.06 0.00
 4 2 24 3.59 0.00
 6 2 26 1.72 0.00
 -7 3 13 0.98 0.00
 -5 3 15 -0.61 0.00
 -3 3 17 0.80 0.00
 -1 3 19 4.82 0.00
 1 3 21 -1.72 0.00
 3 3 23 -0.75 0.00
 5 3 25 4.60 0.00
 -8 4 12 -3.90 0.00
 -6 4 14 1.11 0.00
 -4 4 16 -1.89 0.00
 -2 4 18 -3.03 0.00
 0 4 20 1.26 0.00
 2 4 22 5.39 0.00
 4 4 24 0.02 0.00
 6 4 26 4.88 0.00
 -7 5 13 0.10 0.00
 -5 5 15 1.81 0.00
 -3 5 17 0.04 0.00
 -1 5 19 3.16 0.00
 1 5 21 0.24 0.00
 3 5 23 0.76 0.00
 5 5 25 -2.95 0.00
 -8 6 12 -0.66 0.00
 -6 6 14 1.43 0.00
 -4 6 16 2.41 0.00
 -2 6 18 1.81 0.00
 0 6 20 4.58 0.00
 2 6 22 0.95 0.00
 4 6 24 -0.12 0.00
 -7 7 13 7.68 0.00
 -5 7 15 0.19 0.00
 -3 7 17 0.17 0.00
 -1 7 19 2.29 0.00
 1 7 21 3.35 0.00
 3 7 23 0.71 0.00
 5 7 25 2.51 0.00
 -8 8 12 1.02 0.00
 -6 8 14 -1.02 0.00
 -4 8 16 0.68 0.00
 -2 8 18 5.58 0.00
 0 8 20 -5.67 0.00
 2 8 22 1.50 0.00
 4 8 24 -4.78 0.00
 -7 9 13 -0.01 0.00
 -5 9 15 -1.89 0.00
 -3 9 17 0.06 0.00
 -1 9 19 2.16 0.00
 1 9 21 -0.42 0.00
 3 9 23 0.82 0.00
 5 9 25 -1.13 0.00
 -8 10 12 0.77 0.00
 -6 10 14 -0.29 0.00
 -4 10 16 -1.11 0.00
 -2 10 18 1.08 0.00
 0 10 20 -1.22 0.00
 2 10 22 0.85 0.00
 4 10 24 -2.12 0.00
 -7 11 13 7.45 0.00
 -5 11 15 -0.54 0.00
 -3 11 17 -1.84 0.00
 -1 11 19 -1.01 0.00
 1 11 21 -1.04 0.00
 3 11 23 -2.87 0.00
 5 11 25 7.50 0.00
 -8 12 12 6.10 0.00
 -6 12 14 -3.12 0.00
 -4 12 16 1.74 0.00
 -2 12 18 4.23 0.00
 0 12 20 -5.59 0.00
 2 12 22 -1.95 0.00
 4 12 24 1.32 0.00
 -7 13 13 -5.12 0.00
 -5 13 15 -2.62 0.00
 -3 13 17 0.65 0.00
 -1 13 19 -2.83 0.00
 1 13 21 0.64 0.00
 3 13 23 0.99 0.00
 5 13 25 -5.08 0.00
 -8 14 12 10.22 0.00
 -6 14 14 6.84 0.00
 -4 14 16 2.04 0.00
 -2 14 18 0.44 0.00
 0 14 20 1.44 0.00
 2 14 22 1.96 0.00
 4 14 24 0.43 0.00
 -7 15 13 1.16 0.00
 -5 15 15 -3.01 0.00
 -3 15 17 -0.29 0.00
 -1 15 19 -3.54 0.00
 1 15 21 4.83 0.00
 3 15 23 0.96 0.00
 5 15 25 -0.05 0.00
 -6 16 14 -4.37 0.00
 -4 16 16 -0.83 0.00
 -2 16 18 -1.83 0.00
 0 16 20 -0.76 0.00
 2 16 22 -4.44 0.00
 4 16 24 -0.35 0.00
 -7 17 13 -9.15 0.00
 -5 17 15 -9.30 0.00
 -3 17 17 -1.26 0.00
 -1 17 19 -8.27 0.00
 1 17 21 0.71 0.00
 3 17 23 -4.80 0.00
 -6 18 14 -0.77 0.00
 -4 18 16 -2.81 0.00
 -2 18 18 1.24 0.00
 0 18 20 -2.15 0.00
 2 18 22 -2.98 0.00
 4 18 24 -2.65 0.00
 -7 19 13 1.58 0.00
 -5 19 15 -2.28 0.00
 -3 19 17 -3.80 0.00
 -1 19 19 -0.20 0.00
 1 19 21 -4.09 0.00
 3 19 23 -1.02 0.00
 -6 20 14 -3.22 0.00
 -4 20 16 -2.16 0.00
 -2 20 18 0.31 0.00
 0 20 20 -1.16 0.00
 2 20 22 1.76 0.00
 4 20 24 3.35 0.00
 -5 21 15 5.50 0.00
 -3 21 17 4.59 0.00
 -1 21 19 -1.29 0.00
 1 21 21 -5.44 0.00
 3 21 23 3.08 0.00
 -6 22 14 -1.74 0.00
 -4 22 16 0.96 0.00
 -2 22 18 1.34 0.00
 0 22 20 1.26 0.00
 2 22 22 2.10 0.00
 -5 23 15 12.15 0.00
 -3 23 17 1.38 0.00
 -1 23 19 -1.39 0.00
 1 23 21 12.91 0.00
 3 23 23 -4.71 0.00
 -4 24 16 11.39 0.00
 -2 24 18 -0.38 0.00
 0 24 20 6.48 0.00
 2 24 22 -10.50 0.00
 -5 25 15 1.65 0.00
 -3 25 17 1.49 0.00
 -1 25 19 -4.52 0.00
 1 25 21 4.89 0.00
 -4 26 16 -1.65 0.00
 -2 26 18 0.16 0.00
 0 26 20 -4.37 0.00
 2 26 22 1.68 0.00
 -3 27 17 -2.05 0.00
 -1 27 19 3.47 0.00
 1 27 21 -6.86 0.00
 -2 28 18 -4.27 0.00
 0 28 20 -0.13 0.00
 -1 29 19 6.71 0.00
 -7 1 14 -2.19 0.00
 -5 1 16 -1.18 0.00
 -3 1 18 -1.10 0.00
 -1 1 20 6.55 0.00
 1 1 22 -2.22 0.00
 3 1 24 4.14 0.00
 5 1 26 0.87 0.00
 -8 2 13 2.94 0.00
 -6 2 15 1.38 0.00
 -4 2 17 1.32 0.00
 -2 2 19 3.56 0.00
 0 2 21 4.40 0.00
 2 2 23 1.74 0.00
 4 2 25 -0.34 0.00
 -7 3 14 -1.78 0.00
 -5 3 16 -2.61 0.00
 -3 3 18 0.95 0.00
 -1 3 20 2.73 0.00
 1 3 22 -3.48 0.00
 3 3 24 0.38 0.00
 5 3 26 6.18 0.00
 -8 4 13 3.55 0.00
 -6 4 15 -1.25 0.00
 -4 4 17 1.52 0.00
 -2 4 19 4.69 0.00
 0 4 21 -4.60 0.00
 2 4 23 2.74 0.00
 4 4 25 -1.40 0.00
 -7 5 14 0.78 0.00
 -5 5 16 0.35 0.00
 -3 5 18 1.03 0.00
 -1 5 20 -0.06 0.00
 1 5 22 -2.34 0.00
 3 5 24 -1.57 0.00
 5 5 26 3.99 0.00
 -8 6 13 4.38 0.00
 -6 6 15 2.04 0.00
 -4 6 17 -1.80 0.00
 -2 6 19 -2.83 0.00
 0 6 21 3.70 0.00
 2 6 23 1.47 0.00
 4 6 25 0.30 0.00
 -7 7 14 -0.96 0.00
 -5 7 16 1.99 0.00
 -3 7 18 -0.37 0.00
 -1 7 20 -4.87 0.00
 1 7 22 1.01 0.00
 3 7 24 -3.68 0.00
 5 7 26 -1.41 0.00
 -8 8 13 0.89 0.00
 -6 8 15 0.63 0.00
 -4 8 17 -0.38 0.00
 -2 8 19 0.28 0.00
 0 8 21 6.23 0.00
 2 8 23 -1.08 0.00
 4 8 25 -2.18 0.00
 -7 9 14 7.11 0.00
 -5 9 16 -2.67 0.00
 -3 9 18 -1.31 0.00
 -1 9 20 -4.68 0.00
 1 9 22 3.84 0.00
 3 9 24 -1.39 0.00
 5 9 26 -3.77 0.00
 -8 10 13 10.40 0.00
 -6 10 15 1.57 0.00
 -4 10 17 -0.53 0.00
 -2 10 19 -0.56 0.00
 0 10 21 1.61 0.00
 2 10 23 -0.68 0.00
 4 10 25 -5.62 0.00
 -7 11 14 0.64 0.00
 -5 11 16 -3.06 0.00
 -3 11 18 0.51 0.00
 -1 11 20 -0.29 0.00
 1 11 22 1.51 0.00
 3 11 24 0.20 0.00
 5 11 26 -0.93 0.00
 -8 12 13 -0.10 0.00
 -6 12 15 -3.37 0.00
 -4 12 17 2.95 0.00
 -2 12 19 -3.28 0.00
 0 12 21 1.07 0.00
 2 12 23 -3.92 0.00
 4 12 25 1.58 0.00
 -7 13 14 5.95 0.00
 -5 13 16 -0.89 0.00
 -3 13 18 -5.38 0.00
 -1 13 20 0.79 0.00
 1 13 22 2.88 0.00
 3 13 24 -3.14 0.00
 5 13 26 0.63 0.00
 -6 14 15 -1.17 0.00
 -4 14 17 3.35 0.00
 -2 14 19 -0.12 0.00
 0 14 21 -0.32 0.00
 2 14 23 -2.42 0.00
 4 14 25 -6.88 0.00
 -7 15 14 -2.85 0.00
 -5 15 16 3.82 0.00
 -3 15 18 -1.18 0.00
 -1 15 20 4.37 0.00
 1 15 22 -3.86 0.00
 3 15 24 6.29 0.00
 -6 16 15 -3.54 0.00
 -4 16 17 1.51 0.00
 -2 16 19 -0.24 0.00
 0 16 21 6.71 0.00
 2 16 23 1.35 0.00
 4 16 25 1.52 0.00
 -7 17 14 1.80 0.00
 -5 17 16 3.37 0.00
 -3 17 18 4.56 0.00
 -1 17 20 0.61 0.00
 1 17 22 -2.56 0.00
 3 17 24 -3.63 0.00
 -6 18 15 -1.19 0.00
 -4 18 17 -2.77 0.00
 -2 18 19 0.64 0.00
 0 18 21 -2.28 0.00
 2 18 23 3.67 0.00
 4 18 25 -2.26 0.00
 -5 19 16 -4.23 0.00
 -3 19 18 6.52 0.00
 -1 19 20 -4.44 0.00
 1 19 22 0.63 0.00
 3 19 24 -4.20 0.00
 -6 20 15 0.04 0.00
 -4 20 17 -1.03 0.00
 -2 20 19 -2.69 0.00
 0 20 21 -2.08 0.00
 2 20 23 -0.46 0.00
 -5 21 16 -3.73 0.00
 -3 21 18 2.89 0.00
 -1 21 20 -0.90 0.00
 1 21 22 -7.82 0.00
 3 21 24 -1.73 0.00
 -6 22 15 6.70 0.00
 -4 22 17 -9.44 0.00
 -2 22 19 -4.92 0.00
 0 22 21 -3.14 0.00
 2 22 23 1.93 0.00
 -5 23 16 1.48 0.00
 -3 23 18 -0.28 0.00
 -1 23 20 3.87 0.00
 1 23 22 -13.11 0.00
 -4 24 17 -0.83 0.00
 -2 24 19 -2.70 0.00
 0 24 21 3.71 0.00
 2 24 23 -4.65 0.00
 -5 25 16 4.01 0.00
 -3 25 18 -4.96 0.00
 -1 25 20 4.04 0.00
 1 25 22 1.33 0.00
 -4 26 17 2.12 0.00
 -2 26 19 9.07 0.00
 0 26 21 3.37 0.00
 -3 27 18 -1.69 0.00
 -1 27 20 -1.75 0.00
 1 27 22 -11.89 0.00
 -2 28 19 5.07 0.00
 0 28 21 -8.03 0.00
 -8 0 14 2.78 0.00
 -6 0 16 -0.81 0.00
 -4 0 18 0.05 0.00
 -2 0 20 1.05 0.00
 0 0 22 -3.15 0.00
 2 0 24 -0.08 0.00
 4 0 26 4.94 0.00
 -7 1 15 1.10 0.00
 -5 1 17 1.50 0.00
 -3 1 19 1.77 0.00
 -1 1 21 0.09 0.00
 1 1 23 0.16 0.00
 3 1 25 0.48 0.00
 5 1 27 -1.99 0.00
 -8 2 14 -4.06 0.00
 -6 2 16 2.92 0.00
 -4 2 18 -0.47 0.00
 -2 2 20 -1.39 0.00
 0 2 22 3.63 0.00
 2 2 24 4.10 0.00
 4 2 26 0.82 0.00
 -7 3 15 3.52 0.00
 -5 3 17 0.04 0.00
 -3 3 19 -1.06 0.00
 -1 3 21 -3.55 0.00
 1 3 23 -0.42 0.00
 3 3 25 1.52 0.00
 5 3 27 -1.22 0.00
 -8 4 14 -1.76 0.00
 -6 4 16 1.54 0.00
 -4 4 18 3.01 0.00
 -2 4 20 -2.02 0.00
 0 4 22 2.21 0.00
 2 4 24 1.81 0.00
 4 4 26 2.45 0.00
 -7 5 15 9.55 0.00
 -5 5 17 -7.44 0.00
 -3 5 19 -1.19 0.00
 -1 5 21 0.73 0.00
 1 5 23 -0.11 0.00
 3 5 25 0.75 0.00
 5 5 27 4.69 0.00
 -8 6 14 1.73 0.00
 -6 6 16 0.24 0.00
 -4 6 18 2.84 0.00
 -2 6 20 -0.14 0.00
 0 6 22 -4.32 0.00
 2 6 24 -0.69 0.00
 4 6 26 1.44 0.00
 -7 7 15 -0.15 0.00
 -5 7 17 -1.49 0.00
 -3 7 19 -2.62 0.00
 -1 7 21 3.04 0.00
 1 7 23 -1.23 0.00
 3 7 25 2.62 0.00
 5 7 27 0.07 0.00
 -8 8 14 3.09 0.00
 -6 8 16 -1.67 0.00
 -4 8 18 4.15 0.00
 -2 8 20 -2.33 0.00
 0 8 22 3.34 0.00
 2 8 24 -2.51 0.00
 4 8 26 2.47 0.00
 -7 9 15 -2.71 0.00
 -5 9 17 0.00 0.00
 -3 9 19 -1.78 0.00
 -1 9 21 0.29 0.00
 1 9 23 -2.35 0.00
 3 9 25 -2.63 0.00
 5 9 27 1.46 0.00
 -8 10 14 4.03 0.00
 -6 10 16 -1.09 0.00
 -4 10 18 1.00 0.00
 -2 10 20 5.55 0.00
 0 10 22 -4.43 0.00
 2 10 24 -1.70 0.00
 4 10 26 -2.09 0.00
 -7 11 15 -11.19 0.00
 -5 11 17 1.57 0.00
 -3 11 19 2.38 0.00
 -1 11 21 -0.75 0.00
 1 11 23 -2.93 0.00
 3 11 25 0.34 0.00
 5 11 27 -2.82 0.00
 -8 12 14 4.42 0.00
 -6 12 16 3.64 0.00
 -4 12 18 -0.10 0.00
 -2 12 20 4.16 0.00
 0 12 22 -0.03 0.00
 2 12 24 4.07 0.00
 4 12 26 -0.61 0.00
 -7 13 15 2.87 0.00
 -5 13 17 -4.30 0.00
 -3 13 19 0.12 0.00
 -1 13 21 -3.11 0.00
 1 13 23 4.58 0.00
 3 13 25 -4.67 0.00
 -6 14 16 -4.14 0.00
 -4 14 18 -2.88 0.00
 -2 14 20 2.82 0.00
 0 14 22 -6.60 0.00
 2 14 24 -2.74 0.00
 4 14 26 1.74 0.00
 -7 15 15 -3.70 0.00
 -5 15 17 -9.35 0.00
 -3 15 19 -2.72 0.00
 -1 15 21 -4.18 0.00
 1 15 23 1.53 0.00
 3 15 25 -0.77 0.00
 -6 16 16 4.18 0.00
 -4 16 18 0.55 0.00
 -2 16 20 0.20 0.00
 0 16 22 -2.06 0.00
 2 16 24 1.29 0.00
 4 16 26 -6.54 0.00
 -7 17 15 3.85 0.00
 -5 17 17 -5.49 0.00
 -3 17 19 -5.94 0.00
 -1 17 21 -0.10 0.00
 1 17 23 -4.24 0.00
 3 17 25 -1.93 0.00
 -6 18 16 -7.26 0.00
 -4 18 18 -1.75 0.00
 -2 18 20 -2.29 0.00
 0 18 22 -3.22 0.00
 2 18 24 -2.57 0.00
 4 18 26 -0.47 0.00
 -5 19 17 -2.21 0.00
 -3 19 19 0.61 0.00
 -1 19 21 -7.36 0.00
 1 19 23 -1.29 0.00
 3 19 25 -7.46 0.00
 -6 20 16 -0.42 0.00
 -4 20 18 0.23 0.00
 -2 20 20 0.72 0.00
 0 20 22 -2.87 0.00
 2 20 24 -0.64 0.00
 -5 21 17 -3.20 0.00
 -3 21 19 -0.01 0.00
 -1 21 21 -2.97 0.00
 1 21 23 4.24 0.00
 3 21 25 -6.36 0.00
 -6 22 16 -2.07 0.00
 -4 22 18 4.62 0.00
 -2 22 20 2.17 0.00
 0 22 22 -1.30 0.00
 2 22 24 -1.78 0.00
 -5 23 17 2.78 0.00
 -3 23 19 6.44 0.00
 -1 23 21 -1.48 0.00
 1 23 23 -8.62 0.00
 -4 24 18 -1.30 0.00
 -2 24 20 2.55 0.00
 0 24 22 -5.46 0.00
 2 24 24 6.88 0.00
 -3 25 19 1.09 0.00
 -1 25 21 0.22 0.00
 1 25 23 0.62 0.00
 -4 26 18 6.04 0.00
 -2 26 20 -0.15 0.00
 0 26 22 5.22 0.00
 -3 27 19 -0.38 0.00
 -1 27 21 -4.78 0.00
 -2 28 20 -1.03 0.00
 -7 1 16 -2.26 0.00
 -5 1 18 0.34 0.00
 -3 1 20 -4.43 0.00
 -1 1 22 4.34 0.00
 1 1 24 -5.93 0.00
 3 1 26 -0.04 0.00
 5 1 28 3.81 0.00
 -8 2 15 0.05 0.00
 -6 2 17 -0.43 0.00
 -4 2 19 -0.89 0.00
 -2 2 21 3.00 0.00
 0 2 23 -1.18 0.00
 2 2 25 0.48 0.00
 4 2 27 -0.96 0.00
 -7 3 16 1.44 0.00
 -5 3 18 3.90 0.00
 -3 3 20 -2.71 0.00
 -1 3 22 3.47 0.00
 1 3 24 -2.21 0.00
 3 3 26 0.22 0.00
 5 3 28 -0.28 0.00
 -8 4 15 0.14 0.00
 -6 4 17 0.94 0.00
 -4 4 19 0.15 0.00
 -2 4 21 4.25 0.00
 0 4 23 4.46 0.00
 2 4 25 0.86 0.00
 4 4 27 -0.07 0.00
 -7 5 16 -2.02 0.00
 -5 5 18 1.43 0.00
 -3 5 20 0.02 0.00
 -1 5 22 -2.60 0.00
 1 5 24 -0.36 0.00
 3 5 26 -0.38 0.00
 5 5 28 0.36 0.00
 -8 6 15 -4.38 0.00
 -6 6 17 -2.65 0.00
 -4 6 19 1.65 0.00
 -2 6 21 5.99 0.00
 0 6 23 -0.18 0.00
 2 6 25 0.10 0.00
 4 6 27 -6.64 0.00
 -7 7 16 7.78 0.00
 -5 7 18 -2.12 0.00
 -3 7 20 -1.29 0.00
 -1 7 22 -5.17 0.00
 1 7 24 1.34 0.00
 3 7 26 -0.03 0.00
 5 7 28 -1.72 0.00
 -8 8 15 4.82 0.00
 -6 8 17 0.09 0.00
 -4 8 19 -1.78 0.00
 -2 8 21 -0.23 0.00
 0 8 23 2.28 0.00
 2 8 25 -2.15 0.00
 4 8 27 -2.62 0.00
 -7 9 16 0.69 0.00
 -5 9 18 -2.74 0.00
 -3 9 20 -0.23 0.00
 -1 9 22 -3.15 0.00
 1 9 24 0.68 0.00
 3 9 26 -3.19 0.00
 5 9 28 0.32 0.00
 -8 10 15 0.43 0.00
 -6 10 17 -1.52 0.00
 -4 10 19 -0.37 0.00
 -2 10 21 -4.36 0.00
 0 10 23 1.48 0.00
 2 10 25 -1.71 0.00
 4 10 27 3.26 0.00
 -7 11 16 2.80 0.00
 -5 11 18 -3.01 0.00
 -3 11 20 -0.05 0.00
 -1 11 22 -3.46 0.00
 1 11 24 1.58 0.00
 3 11 26 -2.15 0.00
 -8 12 15 15.79 0.00
 -6 12 17 1.60 0.00
 -4 12 19 1.57 0.00
 -2 12 21 -1.62 0.00
 0 12 23 0.36 0.00
 2 12 25 0.16 0.00
 4 12 27 -6.06 0.00
 -7 13 16 -8.06 0.00
 -5 13 18 0.55 0.00
 -3 13 20 3.58 0.00
 -1 13 22 -2.93 0.00
 1 13 24 -1.28 0.00
 3 13 26 3.85 0.00
 -6 14 17 -4.72 0.00
 -4 14 19 -0.25 0.00
 -2 14 21 -4.60 0.00
 0 14 23 5.46 0.00
 2 14 25 -0.71 0.00
 4 14 27 -1.00 0.00
 -7 15 16 3.79 0.00
 -5 15 18 0.32 0.00
 -3 15 20 0.83 0.00
 -1 15 22 -2.78 0.00
 1 15 24 1.18 0.00
 3 15 26 -6.26 0.00
 -6 16 17 -3.99 0.00
 -4 16 19 -5.60 0.00
 -2 16 21 -1.32 0.00
 0 16 23 0.90 0.00
 2 16 25 0.25 0.00
 4 16 27 -7.77 0.00
 -7 17 16 -2.07 0.00
 -5 17 18 1.73 0.00
 -3 17 20 2.98 0.00
 -1 17 22 2.65 0.00
 1 17 24 -6.60 0.00
 3 17 26 2.78 0.00
 -6 18 17 -8.91 0.00
 -4 18 19 -0.37 0.00
 -2 18 21 -0.50 0.00
 0 18 23 1.99 0.00
 2 18 25 3.01 0.00
 -5 19 18 9.41 0.00
 -3 19 20 3.76 0.00
 -1 19 22 -0.22 0.00
 1 19 24 -7.35 0.00
 3 19 26 -2.14 0.00
 -6 20 17 -1.24 0.00
 -4 20 19 -3.30 0.00
 -2 20 21 -0.80 0.00
 0 20 23 -0.84 0.00
 2 20 25 2.07 0.00
 -5 21 18 6.63 0.00
 -3 21 20 1.90 0.00
 -1 21 22 -0.24 0.00
 1 21 24 9.01 0.00
 -4 22 19 6.22 0.00
 -2 22 21 -0.69 0.00
 0 22 23 4.45 0.00
 2 22 25 -7.47 0.00
 -5 23 18 -1.75 0.00
 -3 23 20 -4.28 0.00
 -1 23 22 -0.07 0.00
 1 23 24 1.58 0.00
 -4 24 19 -5.37 0.00
 -2 24 21 1.93 0.00
 0 24 23 -0.71 0.00
 -3 25 20 1.25 0.00
 -1 25 22 3.08 0.00
 1 25 24 -15.88 0.00
 -4 26 19 -1.90 0.00
 -2 26 21 -1.96 0.00
 0 26 23 -2.79 0.00
 -3 27 20 -2.41 0.00
 -1 27 22 4.79 0.00
 -8 0 16 0.25 0.00
 -6 0 18 2.58 0.00
 -4 0 20 -2.81 0.00
 -2 0 22 4.31 0.00
 0 0 24 3.47 0.00
 2 0 26 4.92 0.00
 4 0 28 2.37 0.00
 -7 1 17 -0.14 0.00
 -5 1 19 -0.66 0.00
 -3 1 21 0.99 0.00
 -1 1 23 -2.57 0.00
 1 1 25 -3.50 0.00
 3 1 27 1.00 0.00
 5 1 29 2.70 0.00
 -8 2 16 1.63 0.00
 -6 2 18 0.08 0.00
 -4 2 20 -1.22 0.00
 -2 2 22 -0.18 0.00
 0 2 24 -0.84 0.00
 2 2 26 2.32 0.00
 4 2 28 2.81 0.00
 -7 3 17 6.22 0.00
 -5 3 19 -3.15 0.00
 -3 3 21 0.51 0.00
 -1 3 23 -3.59 0.00
 1 3 25 -1.73 0.00
 3 3 27 -0.92 0.00
 5 3 29 1.49 0.00
 -8 4 16 -0.72 0.00
 -6 4 18 6.04 0.00
 -4 4 20 -0.43 0.00
 -2 4 22 -2.04 0.00
 0 4 24 -0.88 0.00
 2 4 26 -0.11 0.00
 4 4 28 1.91 0.00
 -7 5 17 7.27 0.00
 -5 5 19 1.85 0.00
 -3 5 21 -4.53 0.00
 -1 5 23 -3.20 0.00
 1 5 25 1.44 0.00
 3 5 27 -0.37 0.00
 5 5 29 0.70 0.00
 -8 6 16 2.95 0.00
 -6 6 18 -0.72 0.00
 -4 6 20 1.37 0.00
 -2 6 22 -3.35 0.00
 0 6 24 3.81 0.00
 2 6 26 -2.30 0.00
 4 6 28 2.02 0.00
 -7 7 17 5.38 0.00
 -5 7 19 -6.97 0.00
 -3 7 21 -2.59 0.00
 -1 7 23 -2.55 0.00
 1 7 25 1.09 0.00
 3 7 27 -0.83 0.00
 5 7 29 1.41 0.00
 -8 8 16 6.70 0.00
 -6 8 18 -1.00 0.00
 -4 8 20 0.19 0.00
 -2 8 22 2.51 0.00
 0 8 24 -1.82 0.00
 2 8 26 -4.35 0.00
 4 8 28 -2.78 0.00
 -7 9 17 -3.67 0.00
 -5 9 19 0.25 0.00
 -3 9 21 -1.21 0.00
 -1 9 23 1.98 0.00
 1 9 25 -1.02 0.00
 3 9 27 1.41 0.00
 -8 10 16 1.30 0.00
 -6 10 18 -1.28 0.00
 -4 10 20 2.28 0.00
 -2 10 22 -1.28 0.00
 0 10 24 2.63 0.00
 2 10 26 -0.94 0.00
 4 10 28 -0.13 0.00
 -7 11 17 -0.41 0.00
 -5 11 19 -3.80 0.00
 -3 11 21 -1.54 0.00
 -1 11 23 0.40 0.00
 1 11 25 2.38 0.00
 3 11 27 -6.95 0.00
 -6 12 18 -2.46 0.00
 -4 12 20 0.20 0.00
 -2 12 22 0.09 0.00
 0 12 24 -2.47 0.00
 2 12 26 -3.26 0.00
 4 12 28 1.17 0.00
 -7 13 17 -10.92 0.00
 -5 13 19 -1.05 0.00
 -3 13 21 1.11 0.00
 -1 13 23 0.28 0.00
 1 13 25 -2.39 0.00
 3 13 27 1.75 0.00
 -6 14 18 3.64 0.00
 -4 14 20 3.71 0.00
 -2 14 22 1.00 0.00
 0 14 24 1.82 0.00
 2 14 26 2.66 0.00
 4 14 28 -3.87 0.00
 -7 15 17 -4.28 0.00
 -5 15 19 -6.19 0.00
 -3 15 21 -0.49 0.00
 -1 15 23 -1.28 0.00
 1 15 25 -2.27 0.00
 3 15 27 -1.66 0.00
 -6 16 18 -4.17 0.00
 -4 16 20 -1.72 0.00
 -2 16 22 0.33 0.00
 0 16 24 -5.31 0.00
 2 16 26 -0.25 0.00
 -7 17 17 -8.14 0.00
 -5 17 19 -8.29 0.00
 -3 17 21 1.79 0.00
 -1 17 23 -5.77 0.00
 1 17 25 0.17 0.00
 3 17 27 -5.30 0.00
 -6 18 18 8.69 0.00
 -4 18 20 -3.87 0.00
 -2 18 22 -2.02 0.00
 0 18 24 -8.92 0.00
 2 18 26 6.53 0.00
 -5 19 19 -8.82 0.00
 -3 19 21 -2.02 0.00
 -1 19 23 -4.14 0.00
 1 19 25 -7.98 0.00
 3 19 27 -5.10 0.00
 -6 20 18 -4.08 0.00
 -4 20 20 -3.31 0.00
 -2 20 22 -3.17 0.00
 0 20 24 -5.39 0.00
 2 20 26 -0.92 0.00
 -5 21 19 8.17 0.00
 -3 21 21 1.01 0.00
 -1 21 23 -3.98 0.00
 1 21 25 -9.02 0.00
 -4 22 20 -3.27 0.00
 -2 22 22 3.56 0.00
 0 22 24 -3.52 0.00
 2 22 26 -0.04 0.00
 -5 23 19 4.12 0.00
 -3 23 21 -3.53 0.00
 -1 23 23 -1.33 0.00
 1 23 25 6.20 0.00
 -4 24 20 6.06 0.00
 -2 24 22 10.16 0.00
 0 24 24 2.33 0.00
 -3 25 21 4.16 0.00
 -1 25 23 -4.04 0.00
 1 25 25 -1.98 0.00
 -2 26 22 5.11 0.00
 0 26 24 -8.12 0.00
 -1 27 23 -3.37 0.00
 -7 1 18 4.71 0.00
 -5 1 20 0.57 0.00
 -3 1 22 -3.11 0.00
 -1 1 24 0.49 0.00
 1 1 26 -1.74 0.00
 3 1 28 2.52 0.00
 5 1 30 -2.81 0.00
 -8 2 17 1.88 0.00
 -6 2 19 -1.50 0.00
 -4 2 21 0.33 0.00
 -2 2 23 0.13 0.00
 0 2 25 2.38 0.00
 2 2 27 1.08 0.00
 4 2 29 -0.50 0.00
 -7 3 18 -2.80 0.00
 -5 3 20 -4.50 0.00
 -3 3 22 -2.36 0.00
 -1 3 24 0.44 0.00
 1 3 26 -3.43 0.00
 3 3 28 2.17 0.00
 5 3 30 4.24 0.00
 -8 4 17 0.63 0.00
 -6 4 19 -4.10 0.00
 -4 4 21 1.40 0.00
 -2 4 23 1.39 0.00
 0 4 25 -1.04 0.00
 2 4 27 -1.29 0.00
 4 4 29 -2.30 0.00
 -7 5 18 2.50 0.00
 -5 5 20 -0.57 0.00
 -3 5 22 -2.91 0.00
 -1 5 24 0.61 0.00
 1 5 26 -2.22 0.00
 3 5 28 -0.21 0.00
 -8 6 17 1.95 0.00
 -6 6 19 -3.12 0.00
 -4 6 21 -0.94 0.00
 -2 6 23 1.49 0.00
 0 6 25 4.16 0.00
 2 6 27 -4.17 0.00
 4 6 29 3.06 0.00
 -7 7 18 -8.00 0.00
 -5 7 20 5.49 0.00
 -3 7 22 0.32 0.00
 -1 7 24 -2.69 0.00
 1 7 26 -3.99 0.00
 3 7 28 -4.37 0.00
 -8 8 17 -4.46 0.00
 -6 8 19 -3.57 0.00
 -4 8 21 -3.19 0.00
 -2 8 23 1.70 0.00
 0 8 25 0.90 0.00
 2 8 27 1.29 0.00
 4 8 29 -3.04 0.00
 -7 9 18 0.54 0.00
 -5 9 20 0.83 0.00
 -3 9 22 2.26 0.00
 -1 9 24 -2.07 0.00
 1 9 26 -2.72 0.00
 3 9 28 -5.28 0.00
 -8 10 17 7.59 0.00
 -6 10 19 -0.15 0.00
 -4 10 21 -2.72 0.00
 -2 10 23 5.33 0.00
 0 10 25 0.06 0.00
 2 10 27 -0.65 0.00
 4 10 29 -4.98 0.00
 -7 11 18 -3.30 0.00
 -5 11 20 -2.16 0.00
 -3 11 22 1.12 0.00
 -1 11 24 -2.22 0.00
 1 11 26 0.94 0.00
 3 11 28 -1.61 0.00
 -6 12 19 -2.31 0.00
 -4 12 21 -1.18 0.00
 -2 12 23 -1.50 0.00
 0 12 25 -0.24 0.00
 2 12 27 1.43 0.00
 4 12 29 0.12 0.00
 -7 13 18 10.38 0.00
 -5 13 20 -3.20 0.00
 -3 13 22 -2.15 0.00
 -1 13 24 -2.72 0.00
 1 13 26 6.46 0.00
 3 13 28 -1.81 0.00
 -6 14 19 -1.74 0.00
 -4 14 21 -2.44 0.00
 -2 14 23 -2.35 0.00
 0 14 25 0.72 0.00
 2 14 27 1.14 0.00
 4 14 29 -9.76 0.00
 -7 15 18 -2.07 0.00
 -5 15 20 0.76 0.00
 -3 15 22 0.41 0.00
 -1 15 24 0.43 0.00
 1 15 26 -5.42 0.00
 3 15 28 6.55 0.00
 -6 16 19 -11.66 0.00
 -4 16 21 1.64 0.00
 -2 16 23 -1.84 0.00
 0 16 25 2.01 0.00
 2 16 27 0.64 0.00
 -5 17 20 5.40 0.00
 -3 17 22 2.40 0.00
 -1 17 24 -5.19 0.00
 1 17 26 -2.75 0.00
 3 17 28 -3.16 0.00
 -6 18 19 -2.47 0.00
 -4 18 21 -0.69 0.00
 -2 18 23 -1.65 0.00
 0 18 25 -0.94 0.00
 2 18 27 2.52 0.00
 -5 19 20 1.29 0.00
 -3 19 22 4.46 0.00
 -1 19 24 -0.81 0.00
 1 19 26 6.98 0.00
 -6 20 19 -2.54 0.00
 -4 20 21 8.22 0.00
 -2 20 23 -4.35 0.00
 0 20 25 2.33 0.00
 2 20 27 3.30 0.00
 -5 21 20 3.06 0.00
 -3 21 22 0.07 0.00
 -1 21 24 -1.00 0.00
 1 21 26 -4.18 0.00
 -4 22 21 -3.61 0.00
 -2 22 23 -0.18 0.00
 0 22 25 2.31 0.00
 2 22 27 0.31 0.00
 -5 23 20 9.14 0.00
 -3 23 22 2.82 0.00
 -1 23 24 1.38 0.00
 1 23 26 1.35 0.00
 -4 24 21 2.71 0.00
 -2 24 23 0.25 0.00
 0 24 25 5.98 0.00
 -3 25 22 -2.16 0.00
 -1 25 24 -1.86 0.00
 -2 26 23 3.88 0.00
 -8 0 18 1.00 0.00
 -6 0 20 0.01 0.00
 -4 0 22 -1.75 0.00
 -2 0 24 1.55 0.00
 0 0 26 1.13 0.00
 2 0 28 -0.17 0.00
 4 0 30 1.93 0.00
 -7 1 19 2.74 0.00
 -5 1 21 -1.24 0.00
 -3 1 23 0.43 0.00
 -1 1 25 -0.21 0.00
 1 1 27 2.04 0.00
 3 1 29 -0.24 0.00
 -8 2 18 -2.22 0.00
 -6 2 20 3.95 0.00
 -4 2 22 -0.54 0.00
 -2 2 24 4.93 0.00
 0 2 26 1.73 0.00
 2 2 28 1.02 0.00
 4 2 30 0.44 0.00
 -7 3 19 3.44 0.00
 -5 3 21 0.95 0.00
 -3 3 23 1.35 0.00
 -1 3 25 -5.11 0.00
 1 3 27 0.05 0.00
 3 3 29 2.51 0.00
 -8 4 18 -1.62 0.00
 -6 4 20 -1.40 0.00
 -4 4 22 0.60 0.00
 -2 4 24 -0.23 0.00
 0 4 26 -0.23 0.00
 2 4 28 2.11 0.00
 4 4 30 -2.10 0.00
 -7 5 19 4.99 0.00
 -5 5 21 -11.42 0.00
 -3 5 23 0.16 0.00
 -1 5 25 -3.38 0.00
 1 5 27 1.93 0.00
 3 5 29 0.99 0.00
 -8 6 18 3.97 0.00
 -6 6 20 4.26 0.00
 -4 6 22 -2.70 0.00
 -2 6 24 -1.47 0.00
 0 6 26 -1.41 0.00
 2 6 28 -2.33 0.00
 4 6 30 1.69 0.00
 -7 7 19 4.18 0.00
 -5 7 21 -0.47 0.00
 -3 7 23 -3.09 0.00
 -1 7 25 0.01 0.00
 1 7 27 0.59 0.00
 3 7 29 0.72 0.00
 -8 8 18 6.99 0.00
 -6 8 20 -2.53 0.00
 -4 8 22 -2.84 0.00
 -2 8 24 -6.64 0.00
 0 8 26 2.36 0.00
 2 8 28 -0.38 0.00
 4 8 30 5.11 0.00
 -7 9 19 -3.27 0.00
 -5 9 21 -3.57 0.00
 -3 9 23 0.03 0.00
 -1 9 25 -1.50 0.00
 1 9 27 -1.19 0.00
 3 9 29 -4.49 0.00
 -6 10 20 1.58 0.00
 -4 10 22 -5.39 0.00
 -2 10 24 -2.02 0.00
 0 10 26 0.92 0.00
 2 10 28 -0.88 0.00
 4 10 30 -0.15 0.00
 -7 11 19 -13.08 0.00
 -5 11 21 4.05 0.00
 -3 11 23 2.08 0.00
 -1 11 25 -0.68 0.00
 1 11 27 -4.10 0.00
 3 11 29 -2.47 0.00
 -6 12 20 3.57 0.00
 -4 12 22 0.10 0.00
 -2 12 24 -0.49 0.00
 0 12 26 4.16 0.00
 2 12 28 -1.01 0.00
 4 12 30 -4.93 0.00
 -7 13 19 -0.21 0.00
 -5 13 21 -5.02 0.00
 -3 13 23 -0.63 0.00
 -1 13 25 -2.17 0.00
 1 13 27 3.64 0.00
 3 13 29 -7.64 0.00
 -6 14 20 -2.95 0.00
 -4 14 22 0.12 0.00
 -2 14 24 -1.84 0.00
 0 14 26 1.93 0.00
 2 14 28 -2.40 0.00
 -7 15 19 -3.62 0.00
 -5 15 21 -0.25 0.00
 -3 15 23 -0.18 0.00
 -1 15 25 0.12 0.00
 1 15 27 2.90 0.00
 3 15 29 -2.03 0.00
 -6 16 20 3.04 0.00
 -4 16 22 -1.57 0.00
 -2 16 24 -0.63 0.00
 0 16 26 -4.23 0.00
 2 16 28 7.22 0.00
 -5 17 21 -2.65 0.00
 -3 17 23 -2.58 0.00
 -1 17 25 -3.23 0.00
 1 17 27 -3.87 0.00
 3 17 29 -2.59 0.00
 -6 18 20 -7.99 0.00
 -4 18 22 -0.03 0.00
 -2 18 24 2.40 0.00
 0 18 26 -4.89 0.00
 2 18 28 0.53 0.00
 -5 19 21 7.22 0.00
 -3 19 23 -0.15 0.00
 -1 19 25 -5.41 0.00
 1 19 27 5.52 0.00
 -4 20 22 -3.33 0.00
 -2 20 24 -0.04 0.00
 0 20 26 -5.48 0.00
 2 20 28 2.24 0.00
 -5 21 21 -4.26 0.00
 -3 21 23 -4.43 0.00
 -1 21 25 -0.97 0.00
 1 21 27 1.20 0.00
 -4 22 22 -0.49 0.00
 -2 22 24 0.99 0.00
 0 22 26 -0.10 0.00
 -3 23 23 1.77 0.00
 -1 23 25 1.72 0.00
 1 23 27 -12.99 0.00
 -4 24 22 -7.11 0.00
 -2 24 24 2.75 0.00
 0 24 26 -5.95 0.00
 -3 25 23 2.24 0.00
 -1 25 25 -1.82 0.00
 -7 1 20 0.96 0.00
 -5 1 22 -2.39 0.00
 -3 1 24 -0.08 0.00
 -1 1 26 -1.40 0.00
 1 1 28 -0.40 0.00
 3 1 30 1.88 0.00
 -8 2 19 0.16 0.00
 -6 2 21 2.03 0.00
 -4 2 23 2.23 0.00
 -2 2 25 -2.29 0.00
 0 2 27 -0.45 0.00
 2 2 29 -2.49 0.00
 4 2 31 -3.02 0.00
 -7 3 20 6.02 0.00
 -5 3 22 -1.89 0.00
 -3 3 24 -2.47 0.00
 -1 3 26 -0.26 0.00
 1 3 28 1.45 0.00
 3 3 30 -1.42 0.00
 -8 4 19 0.82 0.00
 -6 4 21 -4.09 0.00
 -4 4 23 0.01 0.00
 -2 4 25 0.70 0.00
 0 4 27 3.74 0.00
 2 4 29 -4.63 0.00
 4 4 31 0.72 0.00
 -7 5 20 -6.42 0.00
 -5 5 22 -0.40 0.00
 -3 5 24 -0.35 0.00
 -1 5 26 -1.98 0.00
 1 5 28 -1.05 0.00
 3 5 30 0.91 0.00
 -8 6 19 -2.53 0.00
 -6 6 21 -5.25 0.00
 -4 6 23 -2.31 0.00
 -2 6 25 2.60 0.00
 0 6 27 2.00 0.00
 2 6 29 0.74 0.00
 4 6 31 -3.25 0.00
 -7 7 20 0.51 0.00
 -5 7 22 -4.73 0.00
 -3 7 24 2.79 0.00
 -1 7 26 2.72 0.00
 1 7 28 -3.05 0.00
 3 7 30 0.16 0.00
 -8 8 19 -2.09 0.00
 -6 8 21 -3.57 0.00
 -4 8 23 -0.86 0.00
 -2 8 25 3.88 0.00
 0 8 27 2.33 0.00
 2 8 29 -3.12 0.00
 4 8 31 0.92 0.00
 -7 9 20 -4.95 0.00
 -5 9 22 1.34 0.00
 -3 9 24 1.61 0.00
 -1 9 26 3.17 0.00
 1 9 28 -2.22 0.00
 3 9 30 -1.39 0.00
 -6 10 21 -2.18 0.00
 -4 10 23 0.90 0.00
 -2 10 25 0.60 0.00
 0 10 27 -2.84 0.00
 2 10 29 1.92 0.00
 4 10 31 1.58 0.00
 -7 11 20 2.30 0.00
 -5 11 22 -0.61 0.00
 -3 11 24 1.89 0.00
 -1 11 26 1.69 0.00
 1 11 28 0.08 0.00
 3 11 30 -1.45 0.00
 -6 12 21 0.04 0.00
 -4 12 23 -0.25 0.00
 -2 12 25 2.69 0.00
 0 12 27 -1.17 0.00
 2 12 29 -4.82 0.00
 -7 13 20 -9.26 0.00
 -5 13 22 -2.89 0.00
 -3 13 24 1.13 0.00
 -1 13 26 1.95 0.00
 1 13 28 -7.05 0.00
 3 13 30 4.63 0.00
 -6 14 21 -3.60 0.00
 -4 14 23 1.67 0.00
 -2 14 25 -0.02 0.00
 0 14 27 -1.09 0.00
 2 14 29 0.22 0.00
 -7 15 20 7.67 0.00
 -5 15 22 -1.89 0.00
 -3 15 24 0.53 0.00
 -1 15 26 -2.21 0.00
 1 15 28 1.54 0.00
 3 15 30 -2.97 0.00
 -6 16 21 1.40 0.00
 -4 16 23 -2.36 0.00
 -2 16 25 -3.35 0.00
 0 16 27 0.53 0.00
 2 16 29 4.74 0.00
 -5 17 22 -2.21 0.00
 -3 17 24 3.86 0.00
 -1 17 26 -1.27 0.00
 1 17 28 0.24 0.00
 -6 18 21 -8.38 0.00
 -4 18 23 5.05 0.00
 -2 18 25 -3.92 0.00
 0 18 27 1.14 0.00
 2 18 29 4.23 0.00
 -5 19 22 5.41 0.00
 -3 19 24 0.20 0.00
 -1 19 26 -6.43 0.00
 1 19 28 -1.30 0.00
 -4 20 23 0.92 0.00
 -2 20 25 3.82 0.00
 0 20 27 4.19 0.00
 -5 21 22 7.61 0.00
 -3 21 24 1.06 0.00
 -1 21 26 0.53 0.00
 1 21 28 14.68 0.00
 -4 22 23 6.85 0.00
 -2 22 25 4.27 0.00
 0 22 27 6.43 0.00
 -3 23 24 1.72 0.00
 -1 23 26 -0.36 0.00
 -2 24 25 3.97 0.00
 0 24 27 3.47 0.00
 -8 0 20 4.00 0.00
 -6 0 22 0.41 0.00
 -4 0 24 1.05 0.00
 -2 0 26 2.50 0.00
 0 0 28 3.30 0.00
 2 0 30 1.47 0.00
 4 0 32 -0.83 0.00
 -7 1 21 -0.41 0.00
 -5 1 23 1.54 0.00
 -3 1 25 0.79 0.00
 -1 1 27 -3.11 0.00
 1 1 29 -1.54 0.00
 3 1 31 0.21 0.00
 -8 2 20 2.79 0.00
 -6 2 22 -1.31 0.00
 -4 2 24 2.29 0.00
 -2 2 26 -1.17 0.00
 0 2 28 2.76 0.00
 2 2 30 0.73 0.00
 4 2 32 -0.88 0.00
 -7 3 21 -1.17 0.00
 -5 3 23 -4.08 0.00
 -3 3 25 0.00 0.00
 -1 3 27 1.20 0.00
 1 3 29 -0.18 0.00
 3 3 31 -3.57 0.00
 -8 4 20 -1.62 0.00
 -6 4 22 4.28 0.00
 -4 4 24 -0.29 0.00
 -2 4 26 2.36 0.00
 0 4 28 1.35 0.00
 2 4 30 -2.25 0.00
 4 4 32 2.13 0.00
 -7 5 21 3.46 0.00
 -5 5 23 7.76 0.00
 -3 5 25 1.96 0.00
 -1 5 27 -2.40 0.00
 1 5 29 -1.52 0.00
 3 5 31 -3.95 0.00
 -8 6 20 -1.53 0.00
 -6 6 22 -4.72 0.00
 -4 6 24 -1.42 0.00
 -2 6 26 -0.09 0.00
 0 6 28 0.29 0.00
 2 6 30 1.80 0.00
 4 6 32 -0.13 0.00
 -7 7 21 -1.70 0.00
 -5 7 23 -2.87 0.00
 -3 7 25 1.67 0.00
 -1 7 27 -2.85 0.00
 1 7 29 -0.19 0.00
 3 7 31 -3.10 0.00
 -6 8 22 4.09 0.00
 -4 8 24 -7.76 0.00
 -2 8 26 3.64 0.00
 0 8 28 1.10 0.00
 2 8 30 2.90 0.00
 -7 9 21 -2.32 0.00
 -5 9 23 1.40 0.00
 -3 9 25 -2.37 0.00
 -1 9 27 -3.51 0.00
 1 9 29 -0.32 0.00
 3 9 31 0.65 0.00
 -6 10 22 1.32 0.00
 -4 10 24 -2.71 0.00
 -2 10 26 -0.71 0.00
 0 10 28 1.09 0.00
 2 10 30 3.06 0.00
 -7 11 21 4.72 0.00
 -5 11 23 -4.17 0.00
 -3 11 25 -2.44 0.00
 -1 11 27 -5.10 0.00
 1 11 29 5.51 0.00
 3 11 31 -0.50 0.00
 -6 12 22 1.96 0.00
 -4 12 24 -1.16 0.00
 -2 12 26 -3.51 0.00
 0 12 28 2.22 0.00
 2 12 30 -0.73 0.00
 -7 13 21 -3.74 0.00
 -5 13 23 4.24 0.00
 -3 13 25 -1.75 0.00
 -1 13 27 -1.53 0.00
 1 13 29 -0.41 0.00
 3 13 31 1.80 0.00
 -6 14 22 3.02 0.00
 -4 14 24 0.15 0.00
 -2 14 26 -1.67 0.00
 0 14 28 -4.18 0.00
 2 14 30 -1.35 0.00
 -5 15 23 -1.89 0.00
 -3 15 25 -2.78 0.00
 -1 15 27 -2.26 0.00
 1 15 29 -1.87 0.00
 -6 16 22 -4.70 0.00
 -4 16 24 7.28 0.00
 -2 16 26 -1.08 0.00
 0 16 28 -0.87 0.00
 2 16 30 -0.92 0.00
 -5 17 23 8.60 0.00
 -3 17 25 -1.29 0.00
 -1 17 27 -0.41 0.00
 1 17 29 6.97 0.00
 -6 18 22 6.75 0.00
 -4 18 24 -0.93 0.00
 -2 18 26 -6.67 0.00
 0 18 28 -3.94 0.00
 2 18 30 8.66 0.00
 -5 19 23 1.34 0.00
 -3 19 25 -2.76 0.00
 -1 19 27 -0.22 0.00
 1 19 29 -0.71 0.00
 -4 20 24 0.19 0.00
 -2 20 26 -0.47 0.00
 0 20 28 2.80 0.00
 -5 21 23 13.82 0.00
 -3 21 25 -0.47 0.00
 -1 21 27 2.32 0.00
 1 21 29 -1.83 0.00
 -4 22 24 -6.47 0.00
 -2 22 26 4.56 0.00
 0 22 28 -1.06 0.00
 -3 23 25 0.45 0.00
 -1 23 27 1.51 0.00
 -2 24 26 3.37 0.00
 -7 1 22 -0.54 0.00
 -5 1 24 -4.16 0.00
 -3 1 26 3.94 0.00
 -1 1 28 -0.33 0.00
 1 1 30 2.23 0.00
 3 1 32 1.96 0.00
 -8 2 21 -0.34 0.00
 -6 2 23 -1.61 0.00
 -4 2 25 -0.31 0.00
 -2 2 27 -1.49 0.00
 0 2 29 0.20 0.00
 2 2 31 0.38 0.00
 -7 3 22 -3.82 0.00
 -5 3 24 -3.27 0.00
 -3 3 26 -0.83 0.00
 -1 3 28 0.93 0.00
 1 3 30 3.31 0.00
 3 3 32 1.77 0.00
 -6 4 23 0.96 0.00
 -4 4 25 -3.48 0.00
 -2 4 27 -1.77 0.00
 0 4 29 1.37 0.00
 2 4 31 0.13 0.00
 -7 5 22 3.18 0.00
 -5 5 24 -7.44 0.00
 -3 5 26 1.41 0.00
 -1 5 28 3.40 0.00
 1 5 30 -0.89 0.00
 3 5 32 -1.21 0.00
 -6 6 23 -5.92 0.00
 -4 6 25 -4.18 0.00
 -2 6 27 -2.48 0.00
 0 6 29 3.86 0.00
 2 6 31 -5.93 0.00
 -7 7 22 -5.57 0.00
 -5 7 24 5.51 0.00
 -3 7 26 2.18 0.00
 -1 7 28 3.48 0.00
 1 7 30 -2.91 0.00
 3 7 32 -0.25 0.00
 -6 8 23 -1.17 0.00
 -4 8 25 -1.75 0.00
 -2 8 27 -0.03 0.00
 0 8 29 0.31 0.00
 2 8 31 0.99 0.00
 -7 9 22 -1.27 0.00
 -5 9 24 -1.65 0.00
 -3 9 26 3.53 0.00
 -1 9 28 2.30 0.00
 1 9 30 -1.45 0.00
 3 9 32 -4.11 0.00
 -6 10 23 3.59 0.00
 -4 10 25 1.03 0.00
 -2 10 27 4.14 0.00
 0 10 29 0.61 0.00
 2 10 31 -7.84 0.00
 -7 11 22 -2.82 0.00
 -5 11 24 -2.85 0.00
 -3 11 26 2.70 0.00
 -1 11 28 1.93 0.00
 1 11 30 0.98 0.00
 3 11 32 -1.16 0.00
 -6 12 23 -0.19 0.00
 -4 12 25 6.36 0.00
 -2 12 27 1.84 0.00
 0 12 29 -0.59 0.00
 2 12 31 -0.89 0.00
 -7 13 22 10.91 0.00
 -5 13 24 -0.60 0.00
 -3 13 26 2.90 0.00
 -1 13 28 -1.43 0.00
 1 13 30 6.61 0.00
 -6 14 23 -1.17 0.00
 -4 14 25 -0.37 0.00
 -2 14 27 1.43 0.00
 0 14 29 1.43 0.00
 2 14 31 -0.82 0.00
 -5 15 24 -1.67 0.00
 -3 15 26 3.00 0.00
 -1 15 28 0.04 0.00
 1 15 30 -3.20 0.00
 -6 16 23 -5.55 0.00
 -4 16 25 -0.04 0.00
 -2 16 27 4.89 0.00
 0 16 29 -3.08 0.00
 2 16 31 3.85 0.00
 -5 17 24 1.04 0.00
 -3 17 26 0.46 0.00
 -1 17 28 -2.78 0.00
 1 17 30 2.96 0.00
 -4 18 25 -0.33 0.00
 -2 18 27 2.42 0.00
 0 18 29 3.73 0.00
 -5 19 24 -0.20 0.00
 -3 19 26 0.15 0.00
 -1 19 28 4.97 0.00
 1 19 30 8.72 0.00
 -4 20 25 4.29 0.00
 -2 20 27 -1.48 0.00
 0 20 29 3.22 0.00
 -3 21 26 0.35 0.00
 -1 21 28 1.93 0.00
 -4 22 25 -4.19 0.00
 -2 22 27 5.87 0.00
 0 22 29 3.50 0.00
 -3 23 26 4.40 0.00
 -1 23 28 0.57 0.00
 -6 0 24 2.64 0.00
 -4 0 26 8.03 0.00
 -2 0 28 -0.89 0.00
 0 0 30 4.40 0.00
 2 0 32 -1.35 0.00
 -7 1 23 -2.48 0.00
 -5 1 25 -2.29 0.00
 -3 1 27 -0.50 0.00
 -1 1 29 1.75 0.00
 1 1 31 -0.91 0.00
 3 1 33 -2.69 0.00
 -6 2 24 2.92 0.00
 -4 2 26 2.13 0.00
 -2 2 28 2.86 0.00
 0 2 30 2.40 0.00
 2 2 32 -1.64 0.00
 -7 3 23 3.75 0.00
 -5 3 25 3.41 0.00
 -3 3 27 3.07 0.00
 -1 3 29 -3.61 0.00
 1 3 31 -1.46 0.00
 3 3 33 -1.99 0.00
 -6 4 24 -4.52 0.00
 -4 4 26 2.88 0.00
 -2 4 28 0.80 0.00
 0 4 30 2.48 0.00
 2 4 32 1.12 0.00
 -7 5 23 -1.27 0.00
 -5 5 25 -2.80 0.00
 -3 5 27 1.27 0.00
 -1 5 29 3.43 0.00
 1 5 31 -1.49 0.00
 3 5 33 -0.26 0.00
 -6 6 24 3.25 0.00
 -4 6 26 -1.50 0.00
 -2 6 28 5.88 0.00
 0 6 30 1.53 0.00
 2 6 32 2.62 0.00
 -7 7 23 3.26 0.00
 -5 7 25 6.04 0.00
 -3 7 27 0.78 0.00
 -1 7 29 0.21 0.00
 1 7 31 -2.55 0.00
 3 7 33 0.26 0.00
 -6 8 24 -5.50 0.00
 -4 8 26 4.53 0.00
 -2 8 28 1.31 0.00
 0 8 30 -0.57 0.00
 2 8 32 1.12 0.00
 -7 9 23 -1.64 0.00
 -5 9 25 3.14 0.00
 -3 9 27 -1.83 0.00
 -1 9 29 -2.93 0.00
 1 9 31 -1.21 0.00
 3 9 33 0.17 0.00
 -6 10 24 4.70 0.00
 -4 10 26 -1.54 0.00
 -2 10 28 0.50 0.00
 0 10 30 2.19 0.00
 2 10 32 -2.36 0.00
 -7 11 23 -8.03 0.00
 -5 11 25 3.01 0.00
 -3 11 27 -7.11 0.00
 -1 11 29 -3.89 0.00
 1 11 31 -5.29 0.00
 -6 12 24 5.74 0.00
 -4 12 26 -0.57 0.00
 -2 12 28 -3.27 0.00
 0 12 30 -2.44 0.00
 2 12 32 -2.15 0.00
 -5 13 25 -4.84 0.00
 -3 13 27 -3.18 0.00
 -1 13 29 -2.95 0.00
 1 13 31 1.25 0.00
 -6 14 24 -0.75 0.00
 -4 14 26 8.49 0.00
 -2 14 28 -4.76 0.00
 0 14 30 4.51 0.00
 2 14 32 -0.15 0.00
 -5 15 25 7.00 0.00
 -3 15 27 0.03 0.00
 -1 15 29 -2.08 0.00
 1 15 31 3.59 0.00
 -6 16 24 0.87 0.00
 -4 16 26 0.53 0.00
 -2 16 28 -3.43 0.00
 0 16 30 -4.86 0.00
 -5 17 25 3.72 0.00
 -3 17 27 0.96 0.00
 -1 17 29 -4.12 0.00
 1 17 31 1.07 0.00
 -4 18 26 5.57 0.00
 -2 18 28 2.82 0.00
 0 18 30 1.40 0.00
 -5 19 25 15.13 0.00
 -3 19 27 -1.97 0.00
 -1 19 29 2.31 0.00
 -4 20 26 -3.72 0.00
 -2 20 28 0.66 0.00
 0 20 30 -0.59 0.00
 -3 21 27 -0.11 0.00
 -1 21 29 5.55 0.00
 -2 22 28 1.29 0.00
 -7 1 24 -2.58 0.00
 -5 1 26 1.34 0.00
 -3 1 28 1.35 0.00
 -1 1 30 2.18 0.00
 1 1 32 3.68 0.00
 3 1 34 -3.00 0.00
 -6 2 25 2.43 0.00
 -4 2 27 -0.05 0.00
 -2 2 29 1.13 0.00
 0 2 31 0.57 0.00
 2 2 33 -1.64 0.00
 -7 3 24 -0.21 0.00
 -5 3 26 -3.09 0.00
 -3 3 28 5.21 0.00
 -1 3 30 1.13 0.00
 1 3 32 -0.54 0.00
 3 3 34 -3.16 0.00
 -6 4 25 -3.61 0.00
 -4 4 27 -3.73 0.00
 -2 4 29 0.88 0.00
 0 4 31 -0.19 0.00
 2 4 33 -4.36 0.00
 -7 5 24 -2.14 0.00
 -5 5 26 4.01 0.00
 -3 5 28 -0.33 0.00
 -1 5 30 2.60 0.00
 1 5 32 1.21 0.00
 3 5 34 3.51 0.00
 -6 6 25 1.63 0.00
 -4 6 27 -5.88 0.00
 -2 6 29 3.45 0.00
 0 6 31 0.41 0.00
 2 6 33 3.20 0.00
 -7 7 24 0.63 0.00
 -5 7 26 -8.63 0.00
 -3 7 28 0.24 0.00
 -1 7 30 -1.15 0.00
 1 7 32 -1.16 0.00
 3 7 34 3.22 0.00
 -6 8 25 2.91 0.00
 -4 8 27 -2.50 0.00
 -2 8 29 -0.15 0.00
 0 8 31 1.15 0.00
 2 8 33 -2.60 0.00
 -7 9 24 0.05 0.00
 -5 9 26 1.73 0.00
 -3 9 28 1.05 0.00
 -1 9 30 2.96 0.00
 1 9 32 1.52 0.00
 -6 10 25 4.43 0.00
 -4 10 27 4.47 0.00
 -2 10 29 -0.97 0.00
 0 10 31 -2.33 0.00
 2 10 33 -2.82 0.00
 -5 11 26 1.57 0.00
 -3 11 28 2.08 0.00
 -1 11 30 0.25 0.00
 1 11 32 1.98 0.00
 -6 12 25 5.51 0.00
 -4 12 27 2.09 0.00
 -2 12 29 -0.09 0.00
 0 12 31 -2.71 0.00
 2 12 33 -11.47 0.00
 -5 13 26 1.76 0.00
 -3 13 28 0.82 0.00
 -1 13 30 2.74 0.00
 1 13 32 -2.36 0.00
 -6 14 25 -0.31 0.00
 -4 14 27 3.55 0.00
 -2 14 29 3.12 0.00
 0 14 31 -2.81 0.00
 2 14 33 0.40 0.00
 -5 15 26 5.16 0.00
 -3 15 28 1.62 0.00
 -1 15 30 0.75 0.00
 1 15 32 5.65 0.00
 -4 16 27 0.63 0.00
 -2 16 29 0.51 0.00
 0 16 31 6.30 0.00
 -5 17 26 1.06 0.00
 -3 17 28 2.52 0.00
 -1 17 30 4.31 0.00
 1 17 32 4.24 0.00
 -4 18 27 -1.99 0.00
 -2 18 29 5.33 0.00
 0 18 31 -0.10 0.00
 -3 19 28 2.34 0.00
 -1 19 30 2.26 0.00
 -4 20 27 -5.15 0.00
 -2 20 29 9.87 0.00
 -3 21 28 -0.15 0.00
 -1 21 30 5.36 0.00
 -6 0 26 4.45 0.00
 -4 0 28 1.34 0.00
 -2 0 30 1.83 0.00
 0 0 32 0.28 0.00
 2 0 34 0.35 0.00
 -7 1 25 7.58 0.00
 -5 1 27 0.72 0.00
 -3 1 29 -0.20 0.00
 -1 1 31 -1.48 0.00
 1 1 33 2.43 0.00
 3 1 35 -1.64 0.00
 -6 2 26 -1.00 0.00
 -4 2 28 6.62 0.00
 -2 2 30 -2.17 0.00
 0 2 32 4.36 0.00
 2 2 34 -1.34 0.00
 -7 3 25 0.26 0.00
 -5 3 27 -0.35 0.00
 -3 3 29 -1.24 0.00
 -1 3 31 3.20 0.00
 1 3 33 -0.59 0.00
 -6 4 26 1.85 0.00
 -4 4 28 0.09 0.00
 -2 4 30 2.74 0.00
 0 4 32 2.12 0.00
 2 4 34 -3.05 0.00
 -7 5 25 5.82 0.00
 -5 5 27 3.82 0.00
 -3 5 29 4.76 0.00
 -1 5 31 -1.33 0.00
 1 5 33 -2.06 0.00
 -6 6 26 -4.37 0.00
 -4 6 28 9.24 0.00
 -2 6 30 0.79 0.00
 0 6 32 0.82 0.00
 2 6 34 -2.93 0.00
 -7 7 25 -1.83 0.00
 -5 7 27 4.27 0.00
 -3 7 29 0.16 0.00
 -1 7 31 -0.29 0.00
 1 7 33 -2.14 0.00
 -6 8 26 9.85 0.00
 -4 8 28 2.93 0.00
 -2 8 30 7.60 0.00
 0 8 32 0.94 0.00
 2 8 34 1.46 0.00
 -5 9 27 2.57 0.00
 -3 9 29 -3.29 0.00
 -1 9 31 -6.30 0.00
 1 9 33 -1.19 0.00
 -6 10 26 3.74 0.00
 -4 10 28 5.79 0.00
 -2 10 30 1.51 0.00
 0 10 32 0.63 0.00
 2 10 34 -0.01 0.00
 -5 11 27 -0.83 0.00
 -3 11 29 2.32 0.00
 -1 11 31 -4.75 0.00
 1 11 33 -0.40 0.00
 -6 12 26 0.88 0.00
 -4 12 28 4.23 0.00
 -2 12 30 -1.00 0.00
 0 12 32 5.56 0.00
 2 12 34 -2.75 0.00
 -5 13 27 3.28 0.00
 -3 13 29 -3.29 0.00
 -1 13 31 -1.34 0.00
 1 13 33 -5.87 0.00
 -6 14 26 2.81 0.00
 -4 14 28 -4.34 0.00
 -2 14 30 0.36 0.00
 0 14 32 -6.02 0.00
 -5 15 27 -0.78 0.00
 -3 15 29 0.00 0.00
 -1 15 31 1.58 0.00
 1 15 33 -0.87 0.00
 -4 16 28 7.02 0.00
 -2 16 30 -0.11 0.00
 0 16 32 3.03 0.00
 -5 17 27 9.44 0.00
 -3 17 29 -0.94 0.00
 -1 17 31 4.94 0.00
 -4 18 28 1.37 0.00
 -2 18 30 -2.92 0.00
 0 18 32 -1.47 0.00
 -3 19 29 1.85 0.00
 -1 19 31 1.75 0.00
 -2 20 30 3.48 0.00
 -7 1 26 0.89 0.00
 -5 1 28 -0.59 0.00
 -3 1 30 2.40 0.00
 -1 1 32 0.05 0.00
 1 1 34 -0.92 0.00
 -6 2 27 -1.69 0.00
 -4 2 29 -0.27 0.00
 -2 2 31 -1.78 0.00
 0 2 33 0.39 0.00
 2 2 35 -2.61 0.00
 -7 3 26 3.55 0.00
 -5 3 28 6.90 0.00
 -3 3 30 -5.06 0.00
 -1 3 32 8.14 0.00
 1 3 34 1.16 0.00
 -6 4 27 0.08 0.00
 -4 4 29 1.13 0.00
 -2 4 31 3.61 0.00
 0 4 33 1.87 0.00
 2 4 35 0.65 0.00
 -7 5 26 -0.14 0.00
 -5 5 28 -2.87 0.00
 -3 5 30 0.35 0.00
 -1 5 32 -0.77 0.00
 1 5 34 -3.30 0.00
 -6 6 27 -1.39 0.00
 -4 6 29 2.06 0.00
 -2 6 31 1.22 0.00
 0 6 33 2.27 0.00
 2 6 35 -3.51 0.00
 -5 7 28 7.47 0.00
 -3 7 30 -1.86 0.00
 -1 7 32 0.91 0.00
 1 7 34 -1.52 0.00
 -6 8 27 6.06 0.00
 -4 8 29 0.54 0.00
 -2 8 31 -1.54 0.00
 0 8 33 0.08 0.00
 2 8 35 -1.82 0.00
 -5 9 28 -3.10 0.00
 -3 9 30 -2.67 0.00
 -1 9 32 -4.95 0.00
 1 9 34 -2.43 0.00
 -6 10 27 12.79 0.00
 -4 10 29 -1.08 0.00
 -2 10 31 -6.15 0.00
 0 10 33 -3.35 0.00
 -5 11 28 1.63 0.00
 -3 11 30 0.89 0.00
 -1 11 32 1.33 0.00
 1 11 34 1.52 0.00
 -6 12 27 5.01 0.00
 -4 12 29 2.78 0.00
 -2 12 31 0.55 0.00
 0 12 33 -3.27 0.00
 -5 13 28 5.83 0.00
 -3 13 30 8.08 0.00
 -1 13 32 -1.87 0.00
 1 13 34 3.22 0.00
 -4 14 29 1.57 0.00
 -2 14 31 2.62 0.00
 0 14 33 0.16 0.00
 -5 15 28 7.35 0.00
 -3 15 30 4.58 0.00
 -1 15 32 0.80 0.00
 -4 16 29 -4.63 0.00
 -2 16 31 9.28 0.00
 0 16 33 -5.57 0.00
 -3 17 30 0.67 0.00
 -1 17 32 3.43 0.00
 -4 18 29 -3.63 0.00
 -2 18 31 5.26 0.00
 -3 19 30 -4.75 0.00
 -6 0 28 -1.28 0.00
 -4 0 30 8.57 0.00
 -2 0 32 0.35 0.00
 0 0 34 1.28 0.00
 2 0 36 -3.06 0.00
 -7 1 27 -5.24 0.00
 -5 1 29 1.10 0.00
 -3 1 31 0.23 0.00
 -1 1 33 0.58 0.00
 1 1 35 -2.47 0.00
 -6 2 28 4.13 0.00
 -4 2 30 -2.19 0.00
 -2 2 32 6.63 0.00
 0 2 34 -2.79 0.00
 2 2 36 -2.99 0.00
 -5 3 29 -3.52 0.00
 -3 3 31 1.96 0.00
 -1 3 33 0.37 0.00
 1 3 35 -0.63 0.00
 -6 4 28 -1.94 0.00
 -4 4 30 4.69 0.00
 -2 4 32 -0.64 0.00
 0 4 34 0.98 0.00
 2 4 36 -1.91 0.00
 -5 5 29 1.21 0.00
 -3 5 31 -1.70 0.00
 -1 5 33 4.17 0.00
 1 5 35 -2.39 0.00
 -6 6 28 6.85 0.00
 -4 6 30 1.90 0.00
 -2 6 32 4.00 0.00
 0 6 34 1.00 0.00
 2 6 36 2.82 0.00
 -5 7 29 0.91 0.00
 -3 7 31 -0.23 0.00
 -1 7 33 -1.08 0.00
 1 7 35 0.36 0.00
 -6 8 28 3.63 0.00
 -4 8 30 10.58 0.00
 -2 8 32 -1.54 0.00
 0 8 34 2.59 0.00
 -5 9 29 4.66 0.00
 -3 9 31 3.39 0.00
 -1 9 33 0.03 0.00
 1 9 35 -2.26 0.00
 -6 10 28 8.64 0.00
 -4 10 30 2.98 0.00
 -2 10 32 -0.23 0.00
 0 10 34 1.45 0.00
 -5 11 29 2.51 0.00
 -3 11 31 -4.65 0.00
 -1 11 33 -3.17 0.00
 1 11 35 -2.95 0.00
 -4 12 30 -0.88 0.00
 -2 12 32 -1.25 0.00
 0 12 34 -1.62 0.00
 -5 13 29 -1.53 0.00
 -3 13 31 4.44 0.00
 -1 13 33 -0.01 0.00
 -4 14 30 3.48 0.00
 -2 14 32 1.05 0.00
 0 14 34 6.70 0.00
 -5 15 29 0.64 0.00
 -3 15 31 5.20 0.00
 -1 15 33 2.18 0.00
 -4 16 30 -3.23 0.00
 -2 16 32 3.86 0.00
 -3 17 31 6.90 0.00
 -1 17 33 0.83 0.00
 -2 18 32 5.24 0.00
 -5 1 30 2.90 0.00
 -3 1 32 -4.37 0.00
 -1 1 34 2.77 0.00
 1 1 36 1.79 0.00
 -6 2 29 -0.11 0.00
 -4 2 31 4.26 0.00
 -2 2 33 -0.24 0.00
 0 2 35 1.13 0.00
 -5 3 30 -2.20 0.00
 -3 3 32 0.17 0.00
 -1 3 34 -3.91 0.00
 1 3 36 -3.68 0.00
 -6 4 29 2.85 0.00
 -4 4 31 5.26 0.00
 -2 4 33 4.06 0.00
 0 4 35 0.27 0.00
 -5 5 30 10.23 0.00
 -3 5 32 -4.99 0.00
 -1 5 34 3.60 0.00
 1 5 36 -4.15 0.00
 -6 6 29 7.50 0.00
 -4 6 31 2.47 0.00
 -2 6 33 7.38 0.00
 0 6 35 0.62 0.00
 -5 7 30 -0.43 0.00
 -3 7 32 0.90 0.00
 -1 7 34 -7.93 0.00
 1 7 36 -4.03 0.00
 -6 8 29 8.93 0.00
 -4 8 31 2.53 0.00
 -2 8 33 -1.55 0.00
 0 8 35 1.78 0.00
 -5 9 30 4.88 0.00
 -3 9 32 2.26 0.00
 -1 9 34 0.94 0.00
 1 9 36 -0.73 0.00
 -4 10 31 -1.28 0.00
 -2 10 33 -2.62 0.00
 0 10 35 0.72 0.00
 -5 11 30 0.43 0.00
 -3 11 32 3.29 0.00
 -1 11 34 0.01 0.00
 -4 12 31 -1.08 0.00
 -2 12 33 -4.98 0.00
 0 12 35 -3.59 0.00
 -5 13 30 7.11 0.00
 -3 13 32 -0.98 0.00
 -1 13 34 3.45 0.00
 -4 14 31 -0.98 0.00
 -2 14 33 4.27 0.00
 -3 15 32 3.40 0.00
 -1 15 34 2.27 0.00
 -2 16 33 2.14 0.00
 -6 0 30 1.77 0.00
 -4 0 32 -0.43 0.00
 -2 0 34 4.93 0.00
 0 0 36 -1.86 0.00
 -5 1 31 -1.71 0.00
 -3 1 33 -0.98 0.00
 -1 1 35 3.74 0.00
 1 1 37 0.24 0.00
 -6 2 30 -3.77 0.00
 -4 2 32 7.53 0.00
 -2 2 34 -2.50 0.00
 0 2 36 1.01 0.00
 -5 3 31 4.57 0.00
 -3 3 33 0.65 0.00
 -1 3 35 1.95 0.00
 1 3 37 -2.05 0.00
 -6 4 30 3.58 0.00
 -4 4 32 0.01 0.00
 -2 4 34 6.63 0.00
 0 4 36 -1.83 0.00
 -5 5 31 -5.81 0.00
 -3 5 33 3.95 0.00
 -1 5 35 -3.34 0.00
 1 5 37 0.10 0.00
 -6 6 30 4.43 0.00
 -4 6 32 4.38 0.00
 -2 6 34 -3.12 0.00
 0 6 36 1.39 0.00
 -5 7 31 2.02 0.00
 -3 7 33 5.08 0.00
 -1 7 35 2.94 0.00
 -4 8 32 -3.30 0.00
 -2 8 34 -1.05 0.00
 0 8 36 -2.59 0.00
 -5 9 31 0.11 0.00
 -3 9 33 0.03 0.00
 -1 9 35 0.61 0.00
 -4 10 32 0.93 0.00
 -2 10 34 -0.16 0.00
 0 10 36 -0.06 0.00
 -5 11 31 0.98 0.00
 -3 11 33 9.79 0.00
 -1 11 35 1.75 0.00
 -4 12 32 -1.80 0.00
 -2 12 34 3.45 0.00
 -3 13 33 2.32 0.00
 -1 13 35 0.59 0.00
 -4 14 32 -5.57 0.00
 -2 14 34 2.98 0.00
 -3 15 33 1.92 0.00
 -5 1 32 -3.59 0.00
 -3 1 34 -2.61 0.00
 -1 1 36 -0.61 0.00
 -6 2 31 0.91 0.00
 -4 2 33 2.59 0.00
 -2 2 35 -0.34 0.00
 0 2 37 1.35 0.00
 -5 3 32 7.04 0.00
 -3 3 34 -7.09 0.00
 -1 3 36 6.66 0.00
 -4 4 33 6.41 0.00
 -2 4 35 0.49 0.00
 0 4 37 2.89 0.00
 -5 5 32 1.01 0.00
 -3 5 34 0.86 0.00
 -1 5 36 -7.64 0.00
 -4 6 33 9.42 0.00
 -2 6 35 1.46 0.00
 0 6 37 2.57 0.00
 -5 7 32 8.22 0.00
 -3 7 34 1.80 0.00
 -1 7 36 -0.88 0.00
 -4 8 33 -0.22 0.00
 -2 8 35 0.36 0.00
 0 8 37 0.54 0.00
 -5 9 32 -1.10 0.00
 -3 9 34 5.65 0.00
 -1 9 36 -5.63 0.00
 -4 10 33 1.19 0.00
 -2 10 35 -5.87 0.00
 -3 11 34 2.30 0.00
 -1 11 36 0.65 0.00
 -4 12 33 -2.08 0.00
 -2 12 35 3.98 0.00
 -3 13 34 8.34 0.00
 -4 0 34 9.53 0.00
 -2 0 36 -6.04 0.00
 0 0 38 0.86 0.00
 -5 1 33 4.59 0.00
 -3 1 35 0.39 0.00
 -1 1 37 -1.29 0.00
 -4 2 34 -0.36 0.00
 -2 2 36 8.25 0.00
 0 2 38 -2.31 0.00
 -5 3 33 -0.53 0.00
 -3 3 35 2.45 0.00
 -1 3 37 1.63 0.00
 -4 4 34 0.93 0.00
 -2 4 36 0.48 0.00
 0 4 38 0.70 0.00
 -5 5 33 7.47 0.00
 -3 5 35 9.27 0.00
 -1 5 37 3.15 0.00
 -4 6 34 -2.50 0.00
 -2 6 36 -1.12 0.00
 -5 7 33 -2.76 0.00
 -3 7 35 4.18 0.00
 -1 7 37 1.57 0.00
 -4 8 34 2.17 0.00
 -2 8 36 -6.77 0.00
 -3 9 35 5.42 0.00
 -1 9 37 7.13 0.00
 -4 10 34 -4.71 0.00
 -2 10 36 -1.84 0.00
 -3 11 35 -3.17 0.00
 -5 1 34 1.74 0.00
 -3 1 36 -1.08 0.00
 -1 1 38 2.65 0.00
 -4 2 35 2.88 0.00
 -2 2 37 0.22 0.00
 -3 3 36 1.51 0.00
 -1 3 38 -6.22 0.00
 -4 4 35 3.19 0.00
 -2 4 37 3.52 0.00
 -3 5 36 0.42 0.00
 -1 5 38 4.35 0.00
 -4 6 35 -2.22 0.00
 -2 6 37 1.94 0.00
 -3 7 36 6.65 0.00
 -2 8 37 -1.10 0.00
 -3 9 36 2.83 0.00
 -4 0 36 1.02 0.00
 -2 0 38 1.15 0.00
 -3 1 37 1.13 0.00
 -4 2 36 5.49 0.00
 -2 2 38 -6.43 0.00
 -3 3 37 6.25 0.00
 -3 5 37 7.46 0.00
 0 2 0 107.93 0.00
 9 5 0 1.45 0.00
 9 7 0 -3.89 0.00
 8 16 0 -3.78 0.00
 6 26 0 2.94 0.00
 5 29 0 1.60 0.00
 0 34 0 1.22 0.00
 -9 5 1 3.85 0.00
 9 5 1 10.47 0.00
 -9 7 1 -7.07 0.00
 9 7 1 -2.09 0.00
 8 16 1 2.78 0.00
 -6 26 1 0.87 0.00
 6 26 1 1.01 0.00
 -5 29 1 -0.29 0.00
 0 34 1 -1.66 0.00
 0 0 2 4.04 0.00
 9 3 2 -0.30 0.00
 -9 5 2 5.34 0.00
 9 5 2 2.39 0.00
 -9 7 2 5.12 0.00
 8 16 2 1.46 0.00
 -6 26 2 -6.32 0.00
 6 26 2 -2.55 0.00
 -5 29 2 2.03 0.00
 0 34 2 -6.26 0.00
 9 1 3 0.37 0.00
 9 3 3 4.75 0.00
 9 5 3 -6.09 0.00
 -9 7 3 -0.51 0.00
 8 16 3 -7.15 0.00
 7 21 3 -0.31 0.00
 -6 26 3 -2.12 0.00
 -5 29 3 0.99 0.00
 0 34 3 2.74 0.00
 9 1 4 4.00 0.00
 9 3 4 5.56 0.00
 9 5 4 0.03 0.00
 -9 7 4 -2.91 0.00
 8 16 4 2.64 0.00
 7 21 4 6.88 0.00
 -6 26 4 -1.91 0.00
 -5 29 4 -0.19 0.00
 4 30 4 6.08 0.00
 0 34 4 2.36 0.00
 9 1 5 1.05 0.00
 9 3 5 -4.23 0.00
 -9 5 5 5.73 0.00
 -9 7 5 -7.57 0.00
 -8 16 5 7.60 0.00
 7 21 5 3.53 0.00
 -6 26 5 0.10 0.00
 4 30 5 -6.09 0.00
 0 34 5 -0.42 0.00
 -9 5 6 2.59 0.00
 -9 7 6 5.26 0.00
 -8 16 6 2.13 0.00
 7 21 6 1.09 0.00
 -6 26 6 -3.07 0.00
 4 30 6 -1.70 0.00
 0 34 6 -3.33 0.00
 -9 5 7 -9.42 0.00
 -9 7 7 1.22 0.00
 8 14 7 -1.85 0.00
 -8 16 7 0.04 0.00
 6 24 7 -11.17 0.00
 -6 26 7 -5.00 0.00
 -4 30 7 0.41 0.00
 4 30 7 -1.33 0.00
 1 33 7 -2.15 0.00
 -9 5 8 0.09 0.00
 -9 7 8 -3.14 0.00
 8 14 8 -0.96 0.00
 -8 16 8 -5.74 0.00
 -7 21 8 -0.01 0.00
 6 24 8 6.41 0.00
 5 27 8 0.60 0.00
 -4 30 8 5.40 0.00
 4 30 8 6.92 0.00
 3 31 8 2.10 0.00
 -1 33 8 4.07 0.00
 1 33 8 1.74 0.00
 -9 3 9 -1.83 0.00
 -9 5 9 4.68 0.00
 -8 16 9 9.69 0.00
 7 19 9 -3.21 0.00
 -7 21 9 2.10 0.00
 6 24 9 3.40 0.00
 5 27 9 4.46 0.00
 -4 30 9 -4.80 0.00
 3 31 9 -5.36 0.00
 2 32 9 -1.81 0.00
 -1 33 9 -2.57 0.00
 1 33 9 6.42 0.00
 -9 1 10 -2.31 0.00
 -9 3 10 -2.09 0.00
 -9 5 10 2.32 0.00
 8 12 10 -0.40 0.00
 -8 16 10 5.47 0.00
 7 19 10 1.11 0.00
 -7 21 10 0.99 0.00
 6 24 10 -5.33 0.00
 5 27 10 -2.28 0.00
 -4 30 10 3.69 0.00
 -3 31 10 -0.21 0.00
 3 31 10 -2.24 0.00
 2 32 10 -4.58 0.00
 -1 33 10 -0.96 0.00
 1 33 10 -1.17 0.00
 -9 1 11 0.18 0.00
 -9 3 11 2.81 0.00
 8 12 11 -0.83 0.00
 -8 16 11 5.57 0.00
 7 19 11 1.23 0.00
 -7 21 11 1.07 0.00
 -4 30 11 1.19 0.00
 -3 31 11 2.45 0.00
 -2 32 11 4.47 0.00
 2 32 11 3.03 0.00
 -1 33 11 -3.35 0.00
 -9 1 12 -1.03 0.00
 -9 3 12 2.35 0.00
 8 10 12 -0.33 0.00
 -7 21 12 -0.15 0.00
 6 22 12 -1.17 0.00
 -6 24 12 1.62 0.00
 -5 27 12 -3.13 0.00
 4 28 12 -0.09 0.00
 -3 31 12 -5.18 0.00
 -2 32 12 2.53 0.00
 8 8 13 2.70 0.00
 8 10 13 -0.37 0.00
 -8 14 13 9.11 0.00
 7 17 13 1.89 0.00
 6 22 13 -1.44 0.00
 -6 24 13 2.54 0.00
 5 25 13 7.63 0.00
 -5 27 13 1.80 0.00
 4 28 13 -2.11 0.00
 0 32 13 -3.19 0.00
 8 8 14 -0.49 0.00
 -8 14 14 1.55 0.00
 7 17 14 -6.16 0.00
 -7 19 14 -4.36 0.00
 6 22 14 4.74 0.00
 -6 24 14 -3.05 0.00
 5 25 14 -1.21 0.00
 -5 27 14 6.97 0.00
 4 28 14 0.18 0.00
 0 32 14 -2.25 0.00
 8 4 15 2.72 0.00
 8 6 15 6.11 0.00
 -7 19 15 -4.80 0.00
 -4 28 15 8.20 0.00
 3 29 15 3.05 0.00
 2 30 15 3.56 0.00
 1 31 15 1.30 0.00
 8 0 16 1.93 0.00
 8 2 16 2.17 0.00
 8 4 16 -4.73 0.00
 -8 12 16 -2.27 0.00
 7 15 16 -1.17 0.00
 -7 19 16 2.72 0.00
 6 20 16 3.99 0.00
 -4 28 16 -0.42 0.00
 2 30 16 -1.12 0.00
 -1 31 16 2.40 0.00
 1 31 16 0.04 0.00
 -8 12 17 -3.11 0.00
 6 20 17 -3.56 0.00
 -6 22 17 -0.50 0.00
 5 23 17 2.40 0.00
 -5 25 17 8.20 0.00
 4 26 17 1.94 0.00
 -4 28 17 1.99 0.00
 -3 29 17 -0.02 0.00
 -2 30 17 0.62 0.00
 -1 31 17 2.72 0.00
 -8 10 18 7.19 0.00
 7 13 18 3.44 0.00
 -7 17 18 3.36 0.00
 -6 22 18 1.63 0.00
 5 23 18 8.46 0.00
 -5 25 18 -1.74 0.00
 -3 29 18 0.08 0.00
 -2 30 18 -0.79 0.00
 0 30 18 -4.89 0.00
 -8 10 19 -7.29 0.00
 7 11 19 -2.80 0.00
 -7 17 19 -2.19 0.00
 6 18 19 -2.51 0.00
 3 27 19 7.71 0.00
 2 28 19 3.80 0.00
 1 29 19 -3.90 0.00
 0 30 19 -0.23 0.00
 -8 8 20 5.15 0.00
 7 9 20 1.94 0.00
 -6 20 20 7.57 0.00
 5 21 20 11.21 0.00
 4 24 20 11.03 0.00
 -4 26 20 -2.02 0.00
 2 28 20 -0.33 0.00
 -1 29 20 2.57 0.00
 1 29 20 -5.49 0.00
 -8 4 21 1.76 0.00
 -8 6 21 0.73 0.00
 7 7 21 -0.55 0.00
 -7 15 21 -1.77 0.00
 6 16 21 -1.89 0.00
 -6 20 21 -4.51 0.00
 -5 23 21 4.85 0.00
 4 24 21 1.37 0.00
 -4 26 21 -0.51 0.00
 -3 27 21 5.26 0.00
 -2 28 21 5.26 0.00
 -1 29 21 -3.31 0.00
 -8 0 22 1.48 0.00
 7 1 22 1.39 0.00
 -8 2 22 -1.03 0.00
 7 3 22 -0.61 0.00
 -8 4 22 -3.47 0.00
 7 5 22 2.23 0.00
 6 14 22 -3.88 0.00
 5 19 22 1.28 0.00
 -5 23 22 -1.90 0.00
 3 25 22 3.28 0.00
 -3 27 22 3.45 0.00
 -2 28 22 -3.86 0.00
 0 28 22 -2.64 0.00
 7 1 23 3.01 0.00
 -7 13 23 3.38 0.00
 6 14 23 0.60 0.00
 -6 18 23 1.66 0.00
 5 19 23 7.10 0.00
 4 22 23 5.07 0.00
 -4 24 23 -2.80 0.00
 2 26 23 -5.47 0.00
 1 27 23 5.00 0.00
 0 28 23 3.24 0.00
 -7 11 24 5.31 0.00
 6 12 24 -5.06 0.00
 5 17 24 0.69 0.00
 -6 18 24 -8.82 0.00
 -5 21 24 -0.39 0.00
 3 23 24 4.12 0.00
 -4 24 24 2.57 0.00
 -3 25 24 7.81 0.00
 -2 26 24 1.41 0.00
 -1 27 24 -2.04 0.00
 -7 9 25 -1.58 0.00
 6 10 25 4.77 0.00
 -7 11 25 2.41 0.00
 -6 16 25 0.39 0.00
 4 20 25 3.19 0.00
 3 23 25 4.98 0.00
 2 24 25 -4.38 0.00
 -3 25 25 3.12 0.00
 -2 26 25 -4.38 0.00
 0 26 25 2.88 0.00
 6 6 26 -1.97 0.00
 -7 7 26 -3.12 0.00
 6 8 26 -4.64 0.00
 -7 9 26 -2.71 0.00
 5 15 26 -4.07 0.00
 -6 16 26 -4.06 0.00
 -5 19 26 0.07 0.00
 3 21 26 -2.74 0.00
 -4 22 26 0.84 0.00
 2 24 26 -4.57 0.00
 -1 25 26 0.17 0.00
 1 25 26 3.02 0.00
 6 2 27 -1.38 0.00
 -7 3 27 7.22 0.00
 6 4 27 -3.74 0.00
 -7 5 27 -0.28 0.00
 -7 7 27 1.00 0.00
 5 13 27 6.81 0.00
 -6 14 27 0.84 0.00
 4 18 27 -1.28 0.00
 3 21 27 0.04 0.00
 -3 23 27 2.92 0.00
 -2 24 27 2.76 0.00
 -1 25 27 2.23 0.00
 -7 1 28 7.01 0.00
 -7 3 28 0.13 0.00
 5 11 28 -3.94 0.00
 -6 12 28 5.48 0.00
 4 16 28 1.67 0.00
 -5 17 28 6.17 0.00
 3 19 28 1.37 0.00
 -4 20 28 2.92 0.00
 2 22 28 -2.53 0.00
 1 23 28 2.43 0.00
 0 24 28 0.97 0.00
 5 9 29 -0.24 0.00
 -6 10 29 3.09 0.00
 3 19 29 -3.15 0.00
 2 20 29 -1.56 0.00
 -3 21 29 2.32 0.00
 -2 22 29 5.29 0.00
 -1 23 29 4.20 0.00
 5 5 30 -0.31 0.00
 5 7 30 -0.37 0.00
 -6 8 30 12.34 0.00
 -6 10 30 8.15 0.00
 4 14 30 -0.76 0.00
 -5 15 30 7.33 0.00
 3 17 30 0.21 0.00
 -4 18 30 -0.02 0.00
 2 20 30 -0.82 0.00
 1 21 30 -4.82 0.00
 0 22 30 1.82 0.00
 5 1 31 -3.56 0.00
 -6 4 31 1.40 0.00
 -6 6 31 5.40 0.00
 4 12 31 -3.44 0.00
 -5 13 31 1.14 0.00
 3 15 31 -0.35 0.00
 -4 16 31 5.12 0.00
 2 18 31 0.51 0.00
 -3 19 31 1.33 0.00
 1 19 31 8.15 0.00
 -2 20 31 5.11 0.00
 0 20 31 3.75 0.00
 -1 21 31 -0.20 0.00
 -6 0 32 -1.31 0.00
 -6 2 32 3.98 0.00
 4 8 32 -0.81 0.00
 4 10 32 -1.97 0.00
 -5 11 32 3.02 0.00
 3 13 32 -0.16 0.00
 2 16 32 4.90 0.00
 -3 17 32 -0.18 0.00
 -1 19 32 7.53 0.00
 1 19 32 0.43 0.00
 0 20 32 -0.34 0.00
 4 2 33 -2.46 0.00
 4 4 33 -1.16 0.00
 4 6 33 4.47 0.00
 -5 9 33 -0.04 0.00
 3 11 33 -0.23 0.00
 -4 14 33 2.96 0.00
 1 17 33 4.65 0.00
 -2 18 33 6.16 0.00
 0 18 33 4.06 0.00
 -5 3 34 -4.78 0.00
 -5 5 34 5.92 0.00
 -5 7 34 2.20 0.00
 3 9 34 3.24 0.00
 -4 12 34 -0.07 0.00
 2 14 34 0.06 0.00
 -3 15 34 2.85 0.00
 1 15 34 0.81 0.00
 -2 16 34 2.86 0.00
 0 16 34 -2.35 0.00
 -1 17 34 0.45 0.00
 3 3 35 -3.96 0.00
 3 5 35 -1.49 0.00
 3 7 35 0.09 0.00
 -4 8 35 4.13 0.00
 -4 10 35 -2.10 0.00
 2 10 35 -5.83 0.00
 2 12 35 -0.59 0.00
 -3 13 35 2.56 0.00
 1 13 35 0.31 0.00
 -2 14 35 1.52 0.00
 0 14 35 -5.00 0.00
 -1 15 35 2.18 0.00
 -4 4 36 0.83 0.00
 -4 6 36 0.85 0.00
 2 8 36 -3.42 0.00
 -3 11 36 3.01 0.00
 1 11 36 -3.31 0.00
 -2 12 36 0.67 0.00
 0 12 36 2.54 0.00
 -1 13 36 1.56 0.00
 2 2 37 -2.92 0.00
 2 4 37 -4.33 0.00
 -3 7 37 9.71 0.00
 1 7 37 -2.84 0.00
 1 9 37 1.74 0.00
 -2 10 37 2.47 0.00
 0 10 37 -1.73 0.00
 -1 11 37 2.40 0.00
 -3 1 38 0.75 0.00
 1 1 38 -1.15 0.00
 -3 3 38 2.79 0.00
 1 3 38 -1.97 0.00
 -2 4 38 2.20 0.00
 1 5 38 -2.05 0.00
 -2 6 38 -2.99 0.00
 0 6 38 0.07 0.00
 -1 7 38 -2.31 0.00
 -2 8 38 -1.43 0.00
 0 8 38 3.05 0.00
 -1 9 38 0.60 0.00
 -1 1 39 2.15 0.00
 -2 2 39 2.70 0.00
 0 2 39 -0.44 0.00
 -1 3 39 -1.71 0.00
 0 4 39 -0.31 0.00
 -1 5 39 -3.22 0.00
 0 0 0 0.00 0.00
# SQUEEZE RESULTS (Version = 200618)
# Note: Data are Listed for all Voids in the P1 Unit Cell
# i.e. Centre of Gravity, Solvent Accessible Volume,
# Recovered number of Electrons in the Void and
# Details about the Squeezed Material
;
_platon_squeeze_void_probe_radius 1.20
_olex2_submission_special_instructions 'No special instructions were received'
loop_
_space_group_symop_operation_xyz
'x, y, z'
'-x, y, -z+1/2'
'x+1/2, y+1/2, z'
'-x+1/2, y+1/2, -z+1/2'
'-x, -y, -z'
'x, -y, z-1/2'
'-x+1/2, -y+1/2, -z'
'x+1/2, -y+1/2, z-1/2'
loop_
_atom_site_label
_atom_site_type_symbol
_atom_site_fract_x
_atom_site_fract_y
_atom_site_fract_z
_atom_site_U_iso_or_equiv
_atom_site_adp_type
_atom_site_occupancy
_atom_site_site_symmetry_order
_atom_site_calc_flag
_atom_site_refinement_flags_posn
_atom_site_refinement_flags_adp
_atom_site_refinement_flags_occupancy
_atom_site_disorder_assembly
_atom_site_disorder_group
Cd1 Cd 1.500000 0.90698(4) 0.750000 0.0648(4) Uani 1 2 d S T P . .
Cd2 Cd -0.500000 0.45439(6) 0.750000 0.0848(8) Uani 0.635(4) 2 d S T P . .
O2 O 1.1846(8) 0.8864(3) 0.72656(18) 0.086(2) Uani 1 1 d . U . . .
O1 O 1.4028(8) 0.8492(3) 0.6933(2) 0.094(2) Uani 1 1 d . U . . .
N1 N 0.4677(10) 0.8012(3) 0.4963(2) 0.0674(18) Uani 1 1 d . U . . .
H1 H 0.381553 0.778274 0.496489 0.081 Uiso 1 1 calc R . . . .
C12 C 0.4787(14) 0.8370(4) 0.4647(3) 0.076(2) Uani 1 1 d . U . . .
C10 C 0.7312(17) 0.8485(5) 0.5141(4) 0.106(3) Uani 1 1 d . U . . .
H10 H 0.842268 0.860363 0.529331 0.127 Uiso 1 1 calc R . . . .
C11 C 0.6506(17) 0.8671(5) 0.4748(4) 0.104(3) Uani 1 1 d . U . . .
H11 H 0.695058 0.893300 0.458010 0.125 Uiso 1 1 calc R . . . .
C9 C 0.6170(12) 0.8074(4) 0.5282(3) 0.073(2) Uani 1 1 d . U . . .
C8 C 0.6493(12) 0.7814(4) 0.5673(3) 0.071(2) Uani 1 1 d . U . . .
C1 C 1.2330(11) 0.8583(4) 0.6965(3) 0.076(2) Uani 1 1 d . U . . .
O4B O 0.2284(15) 0.4571(4) 0.6997(3) 0.099(3) Uani 0.6826(19) 1 d D U . A 1
O3B O -0.0627(19) 0.4820(5) 0.7054(4) 0.102(3) Uani 0.6826(19) 1 d D U . A 1
N2B N 0.386(5) 0.7210(15) 0.5600(7) 0.059(3) Uani 0.6826(19) 1 d . U . A 1
C16B C 0.329(2) 0.6836(12) 0.5827(10) 0.069(3) Uani 0.6826(19) 1 d . U . A 1
C19B C 0.286(2) 0.5754(6) 0.6080(5) 0.087(3) Uani 0.6826(19) 1 d . U . A 1
H19B H 0.389718 0.577599 0.591476 0.104 Uiso 0.6826(19) 1 calc R . . A 1
C15B C 0.454(3) 0.6818(9) 0.6244(7) 0.078(4) Uani 0.6826(19) 1 d . U . A 1
H15B H 0.444218 0.659202 0.647752 0.093 Uiso 0.6826(19) 1 calc R . . A 1
C23B C -0.002(2) 0.6088(6) 0.6265(7) 0.079(3) Uani 0.6826(19) 1 d . U . A 1
H23B H -0.091626 0.634626 0.624093 0.094 Uiso 0.6826(19) 1 calc R . . A 1
C21B C 0.112(2) 0.5317(6) 0.6605(5) 0.079(3) Uani 0.6826(19) 1 d . U . A 1
C13B C 0.550(3) 0.7450(9) 0.5810(9) 0.063(3) Uani 0.6826(19) 1 d . U . A 1
C18B C 0.144(2) 0.6113(6) 0.6029(5) 0.073(3) Uani 0.6826(19) 1 d . U . A 1
C14B C 0.583(3) 0.7184(8) 0.6227(7) 0.076(4) Uani 0.6826(19) 1 d . U . A 1
H14B H 0.678655 0.725588 0.644876 0.092 Uiso 0.6826(19) 1 calc R . . A 1
C24B C 0.091(2) 0.4862(5) 0.6914(5) 0.084(3) Uani 0.6826(19) 1 d D U . A 1
C22B C -0.027(2) 0.5682(6) 0.6550(5) 0.083(3) Uani 0.6826(19) 1 d . U . A 1
H22B H -0.135322 0.565853 0.670143 0.100 Uiso 0.6826(19) 1 calc R . . A 1
C20B C 0.272(2) 0.5376(6) 0.6369(5) 0.091(3) Uani 0.6826(19) 1 d . U . A 1
H20B H 0.371673 0.514587 0.641486 0.109 Uiso 0.6826(19) 1 calc R . . A 1
C17B C 0.174(2) 0.6550(9) 0.5712(7) 0.067(4) Uani 0.6826(19) 1 d . U . A 1
O4A O -0.040(3) 0.4552(9) 0.6923(8) 0.083(5) Uani 0.3174(19) 1 d D U . A 2
O3A O -0.318(3) 0.5041(7) 0.7047(6) 0.083(4) Uani 0.3174(19) 1 d D U . A 2
N2A N 0.371(11) 0.722(4) 0.5535(19) 0.065(4) Uani 0.3174(19) 1 d . U . A 2
C13A C 0.522(8) 0.734(2) 0.582(2) 0.065(4) Uani 0.3174(19) 1 d . U . A 2
C21A C -0.069(4) 0.5282(12) 0.6573(10) 0.076(4) Uani 0.3174(19) 1 d D U . A 2
C14A C 0.557(8) 0.7017(17) 0.6203(17) 0.073(5) Uani 0.3174(19) 1 d . U . A 2
H14A H 0.662246 0.703129 0.640919 0.088 Uiso 0.3174(19) 1 calc R . . A 2
C19A C 0.146(5) 0.5640(13) 0.6041(10) 0.074(4) Uani 0.3174(19) 1 d . U . A 2
H19A H 0.248689 0.558641 0.587541 0.089 Uiso 0.3174(19) 1 calc R . . A 2
C22A C -0.153(5) 0.5812(12) 0.6549(11) 0.079(4) Uani 0.3174(19) 1 d . U . A 2
H22A H -0.247821 0.589533 0.672967 0.095 Uiso 0.3174(19) 1 calc R . . A 2
C15A C 0.405(6) 0.6685(18) 0.6214(16) 0.075(5) Uani 0.3174(19) 1 d . U . A 2
H15A H 0.387674 0.644107 0.642876 0.089 Uiso 0.3174(19) 1 calc R . . A 2
C17A C 0.113(5) 0.6543(17) 0.5727(15) 0.060(5) Uani 0.3174(19) 1 d D U . A 2
C23A C -0.095(5) 0.6152(14) 0.6278(13) 0.074(5) Uani 0.3174(19) 1 d . U . A 2
H23A H -0.160949 0.645634 0.626728 0.089 Uiso 0.3174(19) 1 calc R . . A 2
C18A C 0.047(5) 0.6123(13) 0.6014(12) 0.068(4) Uani 0.3174(19) 1 d D U . A 2
C16A C 0.283(7) 0.680(3) 0.583(2) 0.066(4) Uani 0.3174(19) 1 d . U . A 2
C24A C -0.161(4) 0.4912(10) 0.6877(10) 0.086(5) Uani 0.3174(19) 1 d D U . A 2
C20A C 0.085(5) 0.5246(13) 0.6325(11) 0.079(4) Uani 0.3174(19) 1 d . U . A 2
H20A H 0.154589 0.494707 0.634324 0.095 Uiso 0.3174(19) 1 calc R . . A 2
C3B C 0.8958(10) 0.8398(5) 0.6703(3) 0.075(3) Uani 0.792(18) 1 d . U . A 3
H3B H 0.862454 0.856207 0.695744 0.090 Uiso 0.792(18) 1 calc R . . A 3
C2B C 1.0855(9) 0.8337(4) 0.6634(2) 0.080(3) Uani 0.792(18) 1 d G U . A 3
C7B C 1.1353(10) 0.8091(5) 0.6254(3) 0.077(3) Uani 0.792(18) 1 d G U . A 3
H7B H 1.262282 0.805052 0.620791 0.092 Uiso 0.792(18) 1 calc R . . A 3
C6B C 0.9953(14) 0.7906(5) 0.5944(3) 0.078(3) Uani 0.792(18) 1 d G U . A 3
H6B H 1.028657 0.774179 0.568988 0.094 Uiso 0.792(18) 1 calc R . . A 3
C5B C 0.8056(12) 0.7967(4) 0.6013(2) 0.076(3) Uani 0.792(18) 1 d G U . A 3
C4B C 0.7558(8) 0.8213(5) 0.6393(3) 0.077(3) Uani 0.792(18) 1 d G U . A 3
H4B H 0.628824 0.825334 0.643940 0.092 Uiso 0.792(18) 1 calc R . . A 3
C5A C 0.808(5) 0.8081(16) 0.5991(10) 0.077(4) Uani 0.208(18) 1 d . U . A 4
C6A C 0.980(7) 0.7829(14) 0.6072(13) 0.079(5) Uani 0.208(18) 1 d G U . A 4
H6A H 1.002440 0.753560 0.591506 0.095 Uiso 0.208(18) 1 calc R . . A 4
C7A C 1.118(5) 0.8016(17) 0.6387(14) 0.077(5) Uani 0.208(18) 1 d G U . A 4
H7A H 1.232454 0.784717 0.644060 0.093 Uiso 0.208(18) 1 calc R . . A 4
C2A C 1.084(4) 0.8455(17) 0.6621(11) 0.076(4) Uani 0.208(18) 1 d G U . A 4
C3A C 0.912(5) 0.8707(17) 0.6540(12) 0.077(5) Uani 0.208(18) 1 d G U . A 4
H3A H 0.889395 0.900042 0.669630 0.093 Uiso 0.208(18) 1 calc R . . A 4
C4A C 0.774(4) 0.8520(18) 0.6225(12) 0.077(5) Uani 0.208(18) 1 d G U . A 4
H4A H 0.659378 0.868886 0.617076 0.092 Uiso 0.208(18) 1 calc R . . A 4
loop_
_atom_site_aniso_label
_atom_site_aniso_U_11
_atom_site_aniso_U_22
_atom_site_aniso_U_33
_atom_site_aniso_U_23
_atom_site_aniso_U_13
_atom_site_aniso_U_12
Cd1 0.0525(5) 0.1081(8) 0.0320(4) 0.000 -0.0055(3) 0.000
Cd2 0.0792(12) 0.0539(10) 0.1099(14) 0.000 -0.0533(9) 0.000
O2 0.048(3) 0.165(6) 0.046(3) -0.036(3) 0.004(2) -0.001(4)
O1 0.051(3) 0.146(6) 0.080(4) -0.038(4) -0.020(3) 0.024(4)
N1 0.068(4) 0.083(5) 0.047(3) -0.014(3) -0.016(3) 0.000(3)
C12 0.096(6) 0.077(6) 0.051(4) -0.016(4) -0.016(4) -0.007(5)
C10 0.100(7) 0.129(8) 0.081(6) -0.020(5) -0.027(5) -0.033(6)
C11 0.125(8) 0.105(7) 0.077(6) -0.015(5) -0.017(6) -0.038(6)
C9 0.064(5) 0.101(6) 0.052(4) -0.026(4) -0.014(3) -0.001(4)
C8 0.051(4) 0.112(6) 0.046(4) -0.026(3) -0.010(3) 0.015(4)
C1 0.046(4) 0.136(7) 0.045(4) -0.028(4) -0.007(3) 0.014(4)
O4B 0.118(7) 0.070(6) 0.099(7) -0.012(5) -0.057(6) 0.036(5)
O3B 0.106(7) 0.084(7) 0.112(8) 0.006(6) -0.015(6) -0.002(7)
N2B 0.053(7) 0.087(6) 0.034(7) -0.015(6) -0.012(5) 0.021(5)
C16B 0.058(8) 0.098(7) 0.047(5) -0.013(5) -0.016(7) 0.011(6)
C19B 0.075(7) 0.104(8) 0.078(7) -0.001(6) -0.008(6) 0.037(6)
C15B 0.069(9) 0.112(9) 0.047(6) -0.006(6) -0.022(6) 0.011(6)
C23B 0.071(7) 0.067(6) 0.096(8) 0.009(6) 0.001(7) 0.021(6)
C21B 0.074(6) 0.075(6) 0.081(7) 0.002(5) -0.022(5) 0.021(5)
C13B 0.046(7) 0.096(8) 0.044(5) -0.023(6) -0.014(5) 0.021(5)
C18B 0.071(6) 0.082(6) 0.064(6) -0.006(5) -0.009(6) 0.020(6)
C14B 0.060(7) 0.114(10) 0.050(6) -0.016(7) -0.021(5) 0.010(7)
C24B 0.092(7) 0.072(7) 0.080(7) -0.006(5) -0.037(6) 0.014(6)
C22B 0.073(7) 0.081(7) 0.094(7) 0.016(6) 0.001(6) 0.023(6)
C20B 0.078(6) 0.105(8) 0.085(7) 0.002(6) -0.015(5) 0.040(6)
C17B 0.061(8) 0.083(6) 0.055(6) -0.010(5) -0.015(7) 0.016(6)
O4A 0.102(10) 0.076(10) 0.069(10) 0.002(9) -0.010(9) -0.017(8)
O3A 0.087(7) 0.079(8) 0.075(8) 0.045(7) -0.026(6) -0.023(7)
N2A 0.052(9) 0.095(8) 0.045(9) -0.016(8) -0.010(7) 0.015(7)
C13A 0.052(8) 0.101(9) 0.040(7) -0.021(7) -0.008(7) 0.019(7)
C21A 0.072(8) 0.078(8) 0.077(9) 0.012(8) -0.005(7) 0.015(8)
C14A 0.064(9) 0.106(11) 0.046(8) -0.017(8) -0.019(7) 0.015(8)
C19A 0.066(8) 0.086(8) 0.069(9) 0.005(7) -0.001(8) 0.022(8)
C22A 0.072(10) 0.076(8) 0.089(10) 0.017(8) 0.008(9) 0.012(8)
C15A 0.069(11) 0.102(11) 0.048(8) -0.012(8) -0.015(8) 0.011(8)
C17A 0.056(10) 0.078(8) 0.045(8) -0.013(7) 0.001(9) 0.021(8)
C23A 0.067(10) 0.072(9) 0.084(10) 0.011(8) 0.009(9) 0.013(9)
C18A 0.063(9) 0.078(7) 0.063(9) -0.004(7) 0.001(9) 0.022(7)
C16A 0.058(9) 0.092(8) 0.045(7) -0.013(7) -0.010(8) 0.017(7)
C24A 0.101(10) 0.082(9) 0.069(10) 0.021(8) -0.026(8) -0.011(8)
C20A 0.071(8) 0.083(8) 0.081(9) 0.010(8) -0.007(7) 0.020(8)
C3B 0.045(4) 0.141(9) 0.040(5) -0.033(6) 0.006(4) 0.011(6)
C2B 0.049(4) 0.144(8) 0.044(5) -0.038(5) -0.013(4) 0.026(5)
C7B 0.039(4) 0.135(8) 0.055(6) -0.034(6) -0.003(4) 0.027(5)
C6B 0.051(4) 0.140(8) 0.044(6) -0.044(6) -0.002(4) 0.018(5)
C5B 0.046(4) 0.131(7) 0.046(4) -0.032(5) -0.014(4) 0.023(5)
C4B 0.047(4) 0.135(9) 0.047(5) -0.031(6) 0.001(4) 0.014(6)
C5A 0.049(7) 0.130(9) 0.049(8) -0.034(7) -0.010(7) 0.019(7)
C6A 0.050(8) 0.135(9) 0.051(9) -0.037(8) -0.007(8) 0.021(8)
C7A 0.044(8) 0.140(9) 0.046(9) -0.037(8) -0.004(7) 0.024(8)
C2A 0.045(7) 0.136(9) 0.047(8) -0.037(7) -0.003(7) 0.018(8)
C3A 0.046(8) 0.136(11) 0.048(10) -0.039(9) -0.008(8) 0.019(8)
C4A 0.049(8) 0.133(10) 0.046(9) -0.037(8) -0.007(7) 0.016(8)
loop_
_atom_type_symbol
_atom_type_description
_atom_type_scat_dispersion_real
_atom_type_scat_dispersion_imag
_atom_type_scat_source
C C 0.0033 0.0016 'International Tables Vol C Tables 4.2.6.8 and 6.1.1.4'
H H 0.0000 0.0000 'International Tables Vol C Tables 4.2.6.8 and 6.1.1.4'
Cd Cd -0.8075 1.2024 'International Tables Vol C Tables 4.2.6.8 and 6.1.1.4'
N N 0.0061 0.0033 'International Tables Vol C Tables 4.2.6.8 and 6.1.1.4'
O O 0.0106 0.0060 'International Tables Vol C Tables 4.2.6.8 and 6.1.1.4'
loop_
_geom_angle_atom_site_label_1
_geom_angle_atom_site_label_2
_geom_angle_atom_site_label_3
_geom_angle
_geom_angle_site_symmetry_1
_geom_angle_site_symmetry_3
O2 Cd1 O2 153.2(4) . 2_856
O2 Cd1 O1 106.1(2) . 2_856
O2 Cd1 O1 54.7(2) . .
O2 Cd1 O1 106.1(2) 2_856 .
O2 Cd1 O1 54.7(2) 2_856 2_856
O2 Cd1 C1 131.8(3) . 2_856
O2 Cd1 C1 27.4(2) 2_856 2_856
O2 Cd1 O3B 118.7(4) . 4_656
O2 Cd1 O3B 118.7(4) 2_856 3_655
O2 Cd1 O3B 84.3(4) 2_856 4_656
O2 Cd1 O3B 84.3(4) . 3_655
O1 Cd1 O1 98.9(4) 2_856 .
O1 Cd1 C1 27.3(2) 2_856 2_856
O1 Cd1 C1 105.6(3) . 2_856
O1 Cd1 O3B 95.8(4) . 3_655
O1 Cd1 O3B 95.8(4) 2_856 4_656
O1 Cd1 O3B 165.1(4) 2_856 3_655
O1 Cd1 O3B 165.1(4) . 4_656
O3B Cd1 C1 143.9(4) 3_655 2_856
O3B Cd1 C1 88.6(4) 4_656 2_856
O3B Cd1 O3B 69.5(6) 4_656 3_655
O4A Cd1 O2 115.6(7) 4_656 .
O4A Cd1 O2 80.9(7) 3_655 .
O4A Cd1 O1 168.8(7) 4_656 .
O4A Cd1 O1 77.8(7) 3_655 .
O2 Cd2 O2 81.4(3) 4_546 3_345
O4B Cd2 O2 105.9(3) 1_455 3_345
O4B Cd2 O2 76.8(3) 1_455 4_546
O4B Cd2 O2 105.9(3) 2_556 4_546
O4B Cd2 O2 76.8(3) 2_556 3_345
O4B Cd2 O4B 176.5(5) 2_556 1_455
O4B Cd2 O3A 93.9(5) 2_556 2_456
O4B Cd2 O3A 84.2(5) 1_455 2_456
Cd1 O2 Cd2 105.8(3) . 3_655
C1 O2 Cd1 92.3(5) . .
C1 O2 Cd2 150.1(6) . 3_655
C1 O1 Cd1 92.3(5) . .
C12 N1 H1 125.7 . .
C12 N1 C9 108.6(8) . .
C9 N1 H1 125.7 . .
N1 C12 C11 109.5(8) . .
N1 C12 C17B 122.1(11) . 7_566
C11 C12 C17B 128.2(12) . 7_566
C17A C12 N1 134.1(19) 7_566 .
C17A C12 C11 115.8(18) 7_566 .
C11 C10 H10 125.4 . .
C11 C10 C9 109.1(9) . .
C9 C10 H10 125.4 . .
C12 C11 H11 127.4 . .
C10 C11 C12 105.2(10) . .
C10 C11 H11 127.4 . .
N1 C9 C10 107.5(8) . .
C8 C9 N1 127.0(9) . .
C8 C9 C10 125.5(8) . .
C9 C8 C13A 124(2) . .
C9 C8 C5B 120.7(10) . .
C9 C8 C5A 110.6(18) . .
C13B C8 C9 127.0(14) . .
O2 C1 C2B 120.9(7) . .
O2 C1 C2A 115.4(16) . .
O1 C1 O2 120.4(8) . .
O1 C1 C2B 118.7(8) . .
O1 C1 C2A 123.2(16) . .
C24B O4B Cd2 136.8(9) . 1_655
C24B O3B Cd1 98.2(11) . 3_345
C16B N2B C13B 113.0(19) . .
N2B C16B C15B 106.6(18) . .
N2B C16B C17B 125(2) . .
C17B C16B C15B 128(2) . .
C18B C19B H19B 120.2 . .
C20B C19B H19B 120.2 . .
C20B C19B C18B 119.7(16) . .
C16B C15B H15B 126.2 . .
C14B C15B C16B 107.7(19) . .
C14B C15B H15B 126.2 . .
C18B C23B H23B 119.3 . .
C18B C23B C22B 121.5(15) . .
C22B C23B H23B 119.3 . .
C22B C21B C24B 121.0(15) . .
C22B C21B C20B 117.8(15) . .
C20B C21B C24B 121.2(13) . .
C8 C13B N2B 130(3) . .
C8 C13B C14B 126.6(17) . .
N2B C13B C14B 103(2) . .
C19B C18B C17B 116.8(15) . .
C23B C18B C19B 120.6(16) . .
C23B C18B C17B 122.5(15) . .
C15B C14B C13B 109.3(14) . .
C15B C14B H14B 125.4 . .
C13B C14B H14B 125.4 . .
O4B C24B C21B 119.2(14) . .
O3B C24B O4B 125.9(16) . .
O3B C24B C21B 114.9(13) . .
C23B C22B H22B 120.5 . .
C21B C22B C23B 118.9(16) . .
C21B C22B H22B 120.5 . .
C19B C20B C21B 121.3(14) . .
C19B C20B H20B 119.3 . .
C21B C20B H20B 119.3 . .
C12 C17B C18B 115.7(14) 7_566 .
C16B C17B C12 129.3(18) . 7_566
C16B C17B C18B 114.7(17) . .
C24A O3A Cd2 127.4(16) . .
C13A N2A C16A 98(5) . .
N2A C13A C8 117(6) . .
N2A C13A C14A 116(5) . .
C14A C13A C8 127(4) . .
C22A C21A C24A 116(2) . .
C20A C21A C22A 111(3) . .
C20A C21A C24A 133(3) . .
C13A C14A H14A 125.9 . .
C15A C14A C13A 108(4) . .
C15A C14A H14A 125.9 . .
C18A C19A H19A 120.0 . .
C20A C19A H19A 120.0 . .
C20A C19A C18A 120(3) . .
C21A C22A H22A 119.4 . .
C23A C22A C21A 121(3) . .
C23A C22A H22A 119.4 . .
C14A C15A H15A 127.5 . .
C14A C15A C16A 105(4) . .
C16A C15A H15A 127.5 . .
C12 C17A C18A 119(3) 7_566 .
C12 C17A C16A 118(3) 7_566 .
C16A C17A C18A 123(4) . .
C22A C23A H23A 115.5 . .
C22A C23A C18A 129(3) . .
C18A C23A H23A 115.5 . .
C19A C18A C17A 120(3) . .
C23A C18A C19A 114(3) . .
C23A C18A C17A 126(3) . .
C15A C16A N2A 112(4) . .
C17A C16A N2A 127(4) . .
C17A C16A C15A 122(5) . .
O4A C24A O3A 137(3) . .
O4A C24A C21A 103(2) . .
O3A C24A C21A 120(2) . .
C21A C20A C19A 125(3) . .
C21A C20A H20A 117.7 . .
C19A C20A H20A 117.7 . .
C2B C3B H3B 120.0 . .
C2B C3B C4B 120.0 . .
C4B C3B H3B 120.0 . .
C3B C2B C1 117.9(6) . .
C3B C2B C7B 120.0 . .
C7B C2B C1 121.9(6) . .
C2B C7B H7B 120.0 . .
C6B C7B C2B 120.0 . .
C6B C7B H7B 120.0 . .
C7B C6B H6B 120.0 . .
C7B C6B C5B 120.0 . .
C5B C6B H6B 120.0 . .
C6B C5B C8 122.2(6) . .
C6B C5B C4B 120.0 . .
C4B C5B C8 117.6(6) . .
C3B C4B H4B 120.0 . .
C5B C4B C3B 120.0 . .
C5B C4B H4B 120.0 . .
C6A C5A C8 117(2) . .
C6A C5A C4A 120.0 . .
C4A C5A C8 122(2) . .
C5A C6A H6A 120.0 . .
C5A C6A C7A 120.0 . .
C7A C6A H6A 120.0 . .
C6A C7A H7A 120.0 . .
C2A C7A C6A 120.00(5) . .
C2A C7A H7A 120.0 . .
C7A C2A C1 114(2) . .
C7A C2A C3A 120.00(5) . .
C3A C2A C1 126(2) . .
C2A C3A H3A 120.0 . .
C2A C3A C4A 120.0 . .
C4A C3A H3A 120.0 . .
C5A C4A H4A 120.0 . .
C3A C4A C5A 120.0 . .
C3A C4A H4A 120.0 . .
loop_
_geom_bond_atom_site_label_1
_geom_bond_atom_site_label_2
_geom_bond_distance
_geom_bond_site_symmetry_2
Cd1 O2 2.347(6) .
Cd1 O2 2.347(6) 2_856
Cd1 O1 2.348(6) .
Cd1 O1 2.348(6) 2_856
Cd1 C1 2.700(8) 2_856
Cd1 O3B 2.415(13) 3_655
Cd1 O3B 2.415(13) 4_656
Cd1 O4A 2.16(2) 4_656
Cd1 O4A 2.16(2) 3_655
Cd2 O2 2.369(7) 4_546
Cd2 O2 2.369(7) 3_345
Cd2 O4B 2.343(9) 2_556
Cd2 O4B 2.343(9) 1_455
Cd2 O3A 2.361(18) .
Cd2 O3A 2.361(18) 2_456
O2 C1 1.244(10) .
O1 C1 1.240(9) .
N1 H1 0.8600 .
N1 C12 1.353(12) .
N1 C9 1.374(10) .
C12 C11 1.464(14) .
C12 C17B 1.476(19) 7_566
C12 C17A 1.27(4) 7_566
C10 H10 0.9300 .
C10 C11 1.359(15) .
C10 C9 1.443(15) .
C11 H11 0.9300 .
C9 C8 1.367(13) .
C8 C13B 1.28(2) .
C8 C13A 1.63(5) .
C8 C5B 1.496(10) .
C8 C5A 1.58(3) .
C1 C2B 1.525(10) .
C1 C2A 1.46(3) .
O4B C24B 1.248(13) .
O3B C24B 1.210(15) .
N2B C16B 1.29(5) .
N2B C13B 1.42(3) .
C16B C15B 1.47(3) .
C16B C17B 1.35(3) .
C19B H19B 0.9300 .
C19B C18B 1.38(2) .
C19B C20B 1.34(2) .
C15B H15B 0.9300 .
C15B C14B 1.34(3) .
C23B H23B 0.9300 .
C23B C18B 1.31(2) .
C23B C22B 1.40(2) .
C21B C24B 1.54(2) .
C21B C22B 1.376(19) .
C21B C20B 1.41(2) .
C13B C14B 1.44(3) .
C18B C17B 1.53(2) .
C14B H14B 0.9300 .
C22B H22B 0.9300 .
C20B H20B 0.9300 .
O4A C24A 1.282(19) .
O3A C24A 1.312(18) .
N2A C13A 1.34(6) .
N2A C16A 1.57(10) .
C13A C14A 1.44(7) .
C21A C22A 1.52(4) .
C21A C24A 1.529(19) .
C21A C20A 1.38(4) .
C14A H14A 0.9300 .
C14A C15A 1.39(6) .
C19A H19A 0.9300 .
C19A C18A 1.45(4) .
C19A C20A 1.44(4) .
C22A H22A 0.9300 .
C22A C23A 1.31(4) .
C15A H15A 0.9300 .
C15A C16A 1.42(6) .
C17A C18A 1.51(2) .
C17A C16A 1.40(5) .
C23A H23A 0.9300 .
C23A C18A 1.34(5) .
C20A H20A 0.9300 .
C3B H3B 0.9300 .
C3B C2B 1.3900 .
C3B C4B 1.3900 .
C2B C7B 1.3900 .
C7B H7B 0.9300 .
C7B C6B 1.3900 .
C6B H6B 0.9300 .
C6B C5B 1.3900 .
C5B C4B 1.3900 .
C4B H4B 0.9300 .
C5A C6A 1.3900 .
C5A C4A 1.3900 .
C6A H6A 0.9300 .
C6A C7A 1.3900 .
C7A H7A 0.9300 .
C7A C2A 1.3900 .
C2A C3A 1.3900 .
C3A H3A 0.9300 .
C3A C4A 1.3900 .
C4A H4A 0.9300 .
loop_
_platon_squeeze_void_nr
_platon_squeeze_void_average_x
_platon_squeeze_void_average_y
_platon_squeeze_void_average_z
_platon_squeeze_void_volume
_platon_squeeze_void_count_electrons
_platon_squeeze_void_content
1 -0.005 0.000 0.000 260 74 ' '
2 0.918 0.000 0.500 260 74 ' '
3 0.926 0.181 0.750 207 53 ' '
4 0.675 0.319 0.250 207 53 ' '
5 0.647 0.500 0.500 260 74 ' '
6 0.294 0.500 1.000 260 74 ' '
7 0.426 0.680 0.750 207 53 ' '
8 0.175 0.819 0.250 207 53 ' '
loop_
_platon_missing_refln_index_h
_platon_missing_refln_index_k
_platon_missing_refln_index_l
_platon_missing_refln_theta
0 2 0 1.541
0 0 2 1.356
